40
rmsd116.gzmat
C          0.00000        0.00000        0.00000
O          1.18190        0.00000        0.00000
C         -1.13810        0.00000       -1.07670
C         -1.14650        1.26040       -1.90280
C         -1.18150       -1.26260       -1.89880
C         -2.13200        0.00160        0.13890
H         -2.88950       -0.78280        0.22840
N         -0.96230       -0.06610        1.10660
C         -1.12270        1.09370        1.93450
C         -2.17890        1.83600        1.48180
C         -2.77960        3.09540        1.91700
O         -2.78350        1.25870        0.39150
C         -0.30270        1.37090        3.09750
O         -0.40480        2.34560        3.80690
O          0.61430        0.39330        3.31770
C          1.58070        0.66410        4.33230
C          2.69370        1.48420        3.75290
C          3.35310        2.42740        4.54470
C          4.37480        3.19810        4.00100
C          4.72700        3.01020        2.66120
C          4.07800        2.06480        1.86150
C          3.06030        1.29860        2.41780
N          5.78910        3.81910        2.08640
O          6.12480        3.60120        0.93310
O          6.29990        4.68260        2.78330
H         -1.13550        2.17000       -1.28580
H         -2.04540        1.31920       -2.53280
H         -0.27470        1.31050       -2.57130
H         -1.16490       -2.16910       -1.27690
H         -0.31620       -1.32640       -2.57630
H         -2.08350       -1.31000       -2.52380
H         -2.42040        3.38820        2.92690
H         -3.88160        3.04600        1.95510
H         -2.52170        3.92880        1.23780
H          1.91780       -0.35890        4.60550
H          1.09980        1.13870        5.20980
H          3.06000        2.57300        5.58380
H          4.89280        3.94680        4.60810
H          4.36660        1.93100        0.81400
H          2.53860        0.55280        1.80640
