rmsd54.gzmat
 OpenBabel08211713393D

 40 42  0  0  1  0  0  0  0  0999 V2000
    0.0000    0.0000    0.0000 C   0  0  0  0  0  0  0  0  0  0  0  0
    1.1818    0.0000    0.0000 O   0  0  0  0  0  0  0  0  0  0  0  0
   -1.1364    0.0000   -1.0784 C   0  0  0  0  0  0  0  0  0  0  0  0
   -1.1243    1.2484   -1.9220 C   0  0  0  0  0  0  0  0  0  0  0  0
   -1.1933   -1.2727   -1.8847 C   0  0  0  0  0  0  0  0  0  0  0  0
   -2.1314    0.0221    0.1361 C   0  0  1  0  0  0  0  0  0  0  0  0
   -2.8985   -0.7529    0.2281 H   0  0  0  0  0  0  0  0  0  0  0  0
   -0.9637   -0.0567    1.1048 N   0  0  0  0  0  0  0  0  0  0  0  0
   -1.1163    1.1009    1.9366 C   0  0  0  0  0  0  0  0  0  0  0  0
   -2.1658    1.8524    1.4844 C   0  0  0  0  0  0  0  0  0  0  0  0
   -2.7639    3.1108    1.9264 C   0  0  0  0  0  0  0  0  0  0  0  0
   -2.7682    1.2872    0.3860 O   0  0  0  0  0  0  0  0  0  0  0  0
   -0.2924    1.3692    3.0993 C   0  0  0  0  0  0  0  0  0  0  0  0
   -0.3936    2.3361    3.8194 O   0  0  0  0  0  0  0  0  0  0  0  0
    0.6312    0.3938    3.3035 O   0  0  0  0  0  0  0  0  0  0  0  0
    1.6085    0.6635    4.3083 C   0  0  0  0  0  0  0  0  0  0  0  0
    2.6971    1.5146    3.7269 C   0  0  0  0  0  0  0  0  0  0  0  0
    3.3521    2.4557    4.5246 C   0  0  0  0  0  0  0  0  0  0  0  0
    4.3465    3.2583    3.9762 C   0  0  0  0  0  0  0  0  0  0  0  0
    4.6733    3.1068    2.6254 C   0  0  0  0  0  0  0  0  0  0  0  0
    4.0302    2.1617    1.8206 C   0  0  0  0  0  0  0  0  0  0  0  0
    3.0426    1.3612    2.3825 C   0  0  0  0  0  0  0  0  0  0  0  0
    5.7020    3.9533    2.0444 N   0  0  0  0  0  0  0  0  0  0  0  0
    5.9642    3.8173    0.8598 O   0  0  0  0  0  0  0  0  0  0  0  0
    6.2594    4.7651    2.7670 O   0  0  0  0  0  0  0  0  0  0  0  0
   -1.1438    2.1665   -1.3181 H   0  0  0  0  0  0  0  0  0  0  0  0
   -1.9979    1.2908   -2.5878 H   0  0  0  0  0  0  0  0  0  0  0  0
   -0.2273    1.2962   -2.5570 H   0  0  0  0  0  0  0  0  0  0  0  0
   -1.2010   -2.1715   -1.2516 H   0  0  0  0  0  0  0  0  0  0  0  0
   -0.3217   -1.3614   -2.5513 H   0  0  0  0  0  0  0  0  0  0  0  0
   -2.0892   -1.3111   -2.5191 H   0  0  0  0  0  0  0  0  0  0  0  0
   -2.2867    3.4807    2.8596 H   0  0  0  0  0  0  0  0  0  0  0  0
   -3.8459    3.0123    2.1259 H   0  0  0  0  0  0  0  0  0  0  0  0
   -2.6545    3.9085    1.1693 H   0  0  0  0  0  0  0  0  0  0  0  0
    1.9677   -0.3578    4.5578 H   0  0  0  0  0  0  0  0  0  0  0  0
    1.1320    1.1138    5.2012 H   0  0  0  0  0  0  0  0  0  0  0  0
    3.0769    2.5744    5.5721 H   0  0  0  0  0  0  0  0  0  0  0  0
    4.8633    4.0034    4.5885 H   0  0  0  0  0  0  0  0  0  0  0  0
    4.3004    2.0544    0.7650 H   0  0  0  0  0  0  0  0  0  0  0  0
    2.5277    0.6132    1.7681 H   0  0  0  0  0  0  0  0  0  0  0  0
  1  8  1  0  0  0  0
  2  1  2  0  0  0  0
  3  1  1  0  0  0  0
  3  6  1  0  0  0  0
  4 26  1  0  0  0  0
  4  3  1  0  0  0  0
  5 29  1  0  0  0  0
  5  3  1  0  0  0  0
  6  7  1  1  0  0  0
  6 12  1  0  0  0  0
  6  8  1  0  0  0  0
  8  9  1  0  0  0  0
  9 13  1  0  0  0  0
 10 11  1  0  0  0  0
 10  9  2  0  0  0  0
 11 33  1  0  0  0  0
 11 32  1  0  0  0  0
 12 10  1  0  0  0  0
 13 15  1  0  0  0  0
 13 14  2  0  0  0  0
 15 16  1  0  0  0  0
 16 35  1  0  0  0  0
 16 36  1  0  0  0  0
 17 16  1  0  0  0  0
 17 18  2  0  0  0  0
 18 37  1  0  0  0  0
 19 18  1  0  0  0  0
 19 38  1  0  0  0  0
 20 19  2  0  0  0  0
 21 22  2  0  0  0  0
 21 20  1  0  0  0  0
 22 17  1  0  0  0  0
 23 20  1  0  0  0  0
 23 25  2  0  0  0  0
 24 23  2  0  0  0  0
 27  4  1  0  0  0  0
 28  4  1  0  0  0  0
 30  5  1  0  0  0  0
 31  5  1  0  0  0  0
 34 11  1  0  0  0  0
 39 21  1  0  0  0  0
 40 22  1  0  0  0  0
M  END
$$$$
