rmsd166.gzmat
 OpenBabel08211713393D

 40 42  0  0  1  0  0  0  0  0999 V2000
    0.0000    0.0000    0.0000 C   0  0  0  0  0  0  0  0  0  0  0  0
    1.1819    0.0000    0.0000 O   0  0  0  0  0  0  0  0  0  0  0  0
   -1.1380    0.0000   -1.0762 C   0  0  0  0  0  0  0  0  0  0  0  0
   -1.1505    1.2680   -1.8907 C   0  0  0  0  0  0  0  0  0  0  0  0
   -1.1725   -1.2556   -1.9091 C   0  0  0  0  0  0  0  0  0  0  0  0
   -2.1319   -0.0137    0.1399 C   0  0  1  0  0  0  0  0  0  0  0  0
   -2.8780   -0.8095    0.2258 H   0  0  0  0  0  0  0  0  0  0  0  0
   -0.9612   -0.0706    1.1070 N   0  0  0  0  0  0  0  0  0  0  0  0
   -1.1300    1.0891    1.9334 C   0  0  0  0  0  0  0  0  0  0  0  0
   -2.2017    1.8138    1.4900 C   0  0  0  0  0  0  0  0  0  0  0  0
   -2.8331    3.0524    1.9413 C   0  0  0  0  0  0  0  0  0  0  0  0
   -2.8006    1.2322    0.3983 O   0  0  0  0  0  0  0  0  0  0  0  0
   -0.2913    1.3894    3.0777 C   0  0  0  0  0  0  0  0  0  0  0  0
   -0.3684    2.3882    3.7561 O   0  0  0  0  0  0  0  0  0  0  0  0
    0.6111    0.4032    3.3185 O   0  0  0  0  0  0  0  0  0  0  0  0
    1.5883    0.6807    4.3213 C   0  0  0  0  0  0  0  0  0  0  0  0
    2.7352    1.4232    3.7045 C   0  0  0  0  0  0  0  0  0  0  0  0
    3.1097    1.1356    2.3904 C   0  0  0  0  0  0  0  0  0  0  0  0
    4.1620    1.8245    1.7983 C   0  0  0  0  0  0  0  0  0  0  0  0
    4.8402    2.7929    2.5439 C   0  0  0  0  0  0  0  0  0  0  0  0
    4.4800    3.0821    3.8632 C   0  0  0  0  0  0  0  0  0  0  0  0
    3.4204    2.3917    4.4410 C   0  0  0  0  0  0  0  0  0  0  0  0
    5.9411    3.5201    1.9337 N   0  0  0  0  0  0  0  0  0  0  0  0
    6.5713    4.3034    2.6271 O   0  0  0  0  0  0  0  0  0  0  0  0
    6.1878    3.3181    0.7553 O   0  0  0  0  0  0  0  0  0  0  0  0
   -1.0970    2.1711   -1.2665 H   0  0  0  0  0  0  0  0  0  0  0  0
   -2.0704    1.3516   -2.4865 H   0  0  0  0  0  0  0  0  0  0  0  0
   -0.3025    1.3058   -2.5899 H   0  0  0  0  0  0  0  0  0  0  0  0
   -1.1939   -2.1665   -1.2946 H   0  0  0  0  0  0  0  0  0  0  0  0
   -0.2840   -1.3296   -2.5552 H   0  0  0  0  0  0  0  0  0  0  0  0
   -2.0509   -1.2834   -2.5676 H   0  0  0  0  0  0  0  0  0  0  0  0
   -2.1700    3.6188    2.6290 H   0  0  0  0  0  0  0  0  0  0  0  0
   -3.7693    2.8555    2.4960 H   0  0  0  0  0  0  0  0  0  0  0  0
   -3.0981    3.7196    1.1032 H   0  0  0  0  0  0  0  0  0  0  0  0
    1.8828   -0.3414    4.6429 H   0  0  0  0  0  0  0  0  0  0  0  0
    1.1294    1.2156    5.1757 H   0  0  0  0  0  0  0  0  0  0  0  0
    2.5652    0.3729    1.8217 H   0  0  0  0  0  0  0  0  0  0  0  0
    4.4538    1.6132    0.7645 H   0  0  0  0  0  0  0  0  0  0  0  0
    5.0222    3.8462    4.4278 H   0  0  0  0  0  0  0  0  0  0  0  0
    3.1198    2.6192    5.4630 H   0  0  0  0  0  0  0  0  0  0  0  0
  1  2  2  0  0  0  0
  1  8  1  0  0  0  0
  3  1  1  0  0  0  0
  3  6  1  0  0  0  0
  4 26  1  0  0  0  0
  4  3  1  0  0  0  0
  5 29  1  0  0  0  0
  5  3  1  0  0  0  0
  6  7  1  1  0  0  0
  6 12  1  0  0  0  0
  6  8  1  0  0  0  0
  8  9  1  0  0  0  0
  9 13  1  0  0  0  0
 10  9  2  0  0  0  0
 10 11  1  0  0  0  0
 11 33  1  0  0  0  0
 11 32  1  0  0  0  0
 12 10  1  0  0  0  0
 13 15  1  0  0  0  0
 13 14  2  0  0  0  0
 15 16  1  0  0  0  0
 16 35  1  0  0  0  0
 16 36  1  0  0  0  0
 17 16  1  0  0  0  0
 17 22  2  0  0  0  0
 18 17  1  0  0  0  0
 19 18  2  0  0  0  0
 19 20  1  0  0  0  0
 20 21  2  0  0  0  0
 21 39  1  0  0  0  0
 21 22  1  0  0  0  0
 22 40  1  0  0  0  0
 23 20  1  0  0  0  0
 23 24  2  0  0  0  0
 25 23  2  0  0  0  0
 27  4  1  0  0  0  0
 28  4  1  0  0  0  0
 30  5  1  0  0  0  0
 31  5  1  0  0  0  0
 34 11  1  0  0  0  0
 37 18  1  0  0  0  0
 38 19  1  0  0  0  0
M  END
$$$$
