
     RDKit          3D

 40 42  0  0  0  0  0  0  0  0999 V2000
   -0.1055    0.0212   -0.0945 C   0  0  0  0  0  0  0  0  0  0  0  0
    1.0852    0.1359   -0.1526 O   0  0  0  0  0  0  0  0  0  0  0  0
   -1.2592   -0.1262   -1.1256 C   0  0  0  0  0  0  0  0  0  0  0  0
   -1.2648    0.9957   -2.1582 C   0  0  0  0  0  0  0  0  0  0  0  0
   -1.3771   -1.5113   -1.7563 C   0  0  0  0  0  0  0  0  0  0  0  0
   -2.1746    0.0945    0.1164 C   0  0  1  0  0  0  0  0  0  0  0  0
   -2.9686   -0.6477    0.3052 H   0  0  0  0  0  0  0  0  0  0  0  0
   -1.0068    0.0498    0.9960 N   0  0  0  0  0  0  0  0  0  0  0  0
   -1.1457    1.1438    1.9151 C   0  0  0  0  0  0  0  0  0  0  0  0
   -2.1590    1.9256    1.4485 C   0  0  0  0  0  0  0  0  0  0  0  0
   -2.7116    3.2038    1.9505 C   0  0  0  0  0  0  0  0  0  0  0  0
   -2.7355    1.4060    0.3264 O   0  0  0  0  0  0  0  0  0  0  0  0
   -0.2766    1.3757    3.0647 C   0  0  0  0  0  0  0  0  0  0  0  0
   -0.3243    2.3388    3.7998 O   0  0  0  0  0  0  0  0  0  0  0  0
    0.6182    0.3715    3.2020 O   0  0  0  0  0  0  0  0  0  0  0  0
    1.6439    0.5648    4.1735 C   0  0  0  0  0  0  0  0  0  0  0  0
    2.7732    1.4195    3.6459 C   0  0  0  0  0  0  0  0  0  0  0  0
    3.0594    1.4594    2.2728 C   0  0  0  0  0  0  0  0  0  0  0  0
    4.1246    2.2253    1.8011 C   0  0  0  0  0  0  0  0  0  0  0  0
    4.9002    2.9398    2.7134 C   0  0  0  0  0  0  0  0  0  0  0  0
    4.6372    2.9153    4.0831 C   0  0  0  0  0  0  0  0  0  0  0  0
    3.5651    2.1533    4.5411 C   0  0  0  0  0  0  0  0  0  0  0  0
    6.0281    3.7512    2.2177 N   0  0  0  0  0  0  0  0  0  0  0  0
    6.6927    4.3591    3.0424 O   0  0  0  0  0  0  0  0  0  0  0  0
    6.2289    3.7650    1.0138 O   0  0  0  0  0  0  0  0  0  0  0  0
   -1.2200    1.9863   -1.6846 H   0  0  0  0  0  0  0  0  0  0  0  0
   -2.1786    0.9502   -2.7711 H   0  0  0  0  0  0  0  0  0  0  0  0
   -0.3934    0.8900   -2.8213 H   0  0  0  0  0  0  0  0  0  0  0  0
   -1.4049   -2.3027   -0.9913 H   0  0  0  0  0  0  0  0  0  0  0  0
   -0.5136   -1.7021   -2.4112 H   0  0  0  0  0  0  0  0  0  0  0  0
   -2.2929   -1.5835   -2.3646 H   0  0  0  0  0  0  0  0  0  0  0  0
   -2.1617    3.5201    2.8439 H   0  0  0  0  0  0  0  0  0  0  0  0
   -3.7835    3.0923    2.1814 H   0  0  0  0  0  0  0  0  0  0  0  0
   -2.6258    3.9747    1.1670 H   0  0  0  0  0  0  0  0  0  0  0  0
    2.0079   -0.4481    4.4048 H   0  0  0  0  0  0  0  0  0  0  0  0
    1.2222    1.0109    5.0856 H   0  0  0  0  0  0  0  0  0  0  0  0
    2.4427    0.9002    1.5661 H   0  0  0  0  0  0  0  0  0  0  0  0
    4.3644    2.2762    0.7398 H   0  0  0  0  0  0  0  0  0  0  0  0
    5.2639    3.4966    4.7580 H   0  0  0  0  0  0  0  0  0  0  0  0
    3.3348    2.1369    5.6093 H   0  0  0  0  0  0  0  0  0  0  0  0
  1  2  2  0
  1  3  1  0
  1  8  1  0
  3  4  1  0
  3  5  1  0
  3  6  1  0
  4 26  1  0
  4 27  1  0
  4 28  1  0
  5 29  1  0
  5 30  1  0
  5 31  1  0
  6  7  1  1
  6  8  1  0
  6 12  1  0
  8  9  1  0
  9 10  2  0
  9 13  1  0
 10 11  1  0
 10 12  1  0
 11 32  1  0
 11 33  1  0
 11 34  1  0
 13 14  2  0
 13 15  1  0
 15 16  1  0
 16 17  1  0
 16 35  1  0
 16 36  1  0
 17 18  2  0
 17 22  1  0
 18 19  1  0
 18 37  1  0
 19 20  2  0
 19 38  1  0
 20 21  1  0
 20 23  1  0
 21 22  2  0
 21 39  1  0
 22 40  1  0
 23 24  1  0
 23 25  2  0
M  CHG  2  23   1  24  -1
M  END

