40
rmsd166.gzmat
C          0.00000        0.00000        0.00000
O          1.18190        0.00000        0.00000
C         -1.13800        0.00000       -1.07620
C         -1.15050        1.26800       -1.89070
C         -1.17250       -1.25560       -1.90910
C         -2.13190       -0.01370        0.13990
H         -2.87800       -0.80950        0.22580
N         -0.96120       -0.07060        1.10700
C         -1.13000        1.08910        1.93340
C         -2.20170        1.81380        1.49000
C         -2.83310        3.05240        1.94130
O         -2.80060        1.23220        0.39830
C         -0.29130        1.38940        3.07770
O         -0.36840        2.38820        3.75610
O          0.61110        0.40320        3.31850
C          1.58830        0.68070        4.32130
C          2.73520        1.42320        3.70450
C          3.10970        1.13560        2.39040
C          4.16200        1.82450        1.79830
C          4.84020        2.79290        2.54390
C          4.48000        3.08210        3.86320
C          3.42040        2.39170        4.44100
N          5.94110        3.52010        1.93370
O          6.57130        4.30340        2.62710
O          6.18780        3.31810        0.75530
H         -1.09700        2.17110       -1.26650
H         -2.07040        1.35160       -2.48650
H         -0.30250        1.30580       -2.58990
H         -1.19390       -2.16650       -1.29460
H         -0.28400       -1.32960       -2.55520
H         -2.05090       -1.28340       -2.56760
H         -2.17000        3.61880        2.62900
H         -3.76930        2.85550        2.49600
H         -3.09810        3.71960        1.10320
H          1.88280       -0.34140        4.64290
H          1.12940        1.21560        5.17570
H          2.56520        0.37290        1.82170
H          4.45380        1.61320        0.76450
H          5.02220        3.84620        4.42780
H          3.11980        2.61920        5.46300
