40
rmsd118.gzmat
C          0.00000        0.00000        0.00000
O          1.18180        0.00000        0.00000
C         -1.13860        0.00000       -1.07670
C         -1.12670        1.24940       -1.91910
C         -1.20080       -1.27340       -1.88090
C         -2.13250        0.02460        0.13850
H         -2.90000       -0.74950        0.23330
N         -0.96350       -0.05200        1.10560
C         -1.11060        1.11310        1.92870
C         -2.15970        1.86360        1.47500
C         -2.74680        3.13090        1.90590
O         -2.76850        1.29070        0.38430
C         -0.27450        1.38470        3.08130
O         -0.40430        2.31900        3.83840
O          0.70750        0.45540        3.21790
C          1.70390        0.74370        4.19770
C          2.66640        1.75200        3.64540
C          3.03080        1.68090        2.29850
C          3.89980        2.62320        1.76100
C          4.40330        3.62900        2.59130
C          4.05500        3.70250        3.94290
C          3.18020        2.75710        4.46720
N          5.30600        4.62470        2.03730
O          5.82420        5.42430        2.80160
O          5.50610        4.61970        0.83280
H         -1.12020        2.16680       -1.31360
H         -2.01430        1.30610       -2.56480
H         -0.24320        1.28430       -2.57360
H         -1.20380       -2.17050       -1.24500
H         -0.33440       -1.36400       -2.55350
H         -2.10150       -1.31330       -2.50850
H         -2.41140        3.40430        2.92890
H         -3.84990        3.10510        1.91170
H         -2.45180        3.96500        1.24300
H          2.17710       -0.25220        4.33740
H          1.22880        1.06260        5.14520
H          2.62130        0.88590        1.66440
H          4.18460        2.58000        0.70500
H          4.45980        4.49870        4.57440
H          2.88510        2.81510        5.51450
