40

C         -0.10550        0.02120       -0.09450
O          1.08520        0.13590       -0.15260
C         -1.25920       -0.12620       -1.12560
C         -1.26480        0.99570       -2.15820
C         -1.37710       -1.51130       -1.75630
C         -2.17460        0.09450        0.11640
H         -2.96860       -0.64770        0.30520
N         -1.00680        0.04980        0.99600
C         -1.14570        1.14380        1.91510
C         -2.15900        1.92560        1.44850
C         -2.71160        3.20380        1.95050
O         -2.73550        1.40600        0.32640
C         -0.27660        1.37570        3.06470
O         -0.32430        2.33880        3.79980
O          0.61820        0.37150        3.20200
C          1.64390        0.56480        4.17350
C          2.77320        1.41950        3.64590
C          3.05940        1.45940        2.27280
C          4.12460        2.22530        1.80110
C          4.90020        2.93980        2.71340
C          4.63720        2.91530        4.08310
C          3.56510        2.15330        4.54110
N          6.02810        3.75120        2.21770
O          6.69270        4.35910        3.04240
O          6.22890        3.76500        1.01380
H         -1.22000        1.98630       -1.68460
H         -2.17860        0.95020       -2.77110
H         -0.39340        0.89000       -2.82130
H         -1.40490       -2.30270       -0.99130
H         -0.51360       -1.70210       -2.41120
H         -2.29290       -1.58350       -2.36460
H         -2.16170        3.52010        2.84390
H         -3.78350        3.09230        2.18140
H         -2.62580        3.97470        1.16700
H          2.00790       -0.44810        4.40480
H          1.22220        1.01090        5.08560
H          2.44270        0.90020        1.56610
H          4.36440        2.27620        0.73980
H          5.26390        3.49660        4.75800
H          3.33480        2.13690        5.60930
