rmsd89.gzmat
 OpenBabel08211713393D

 40 42  0  0  1  0  0  0  0  0999 V2000
    0.0000    0.0000    0.0000 C   0  0  0  0  0  0  0  0  0  0  0  0
    1.1819    0.0000    0.0000 O   0  0  0  0  0  0  0  0  0  0  0  0
   -1.1381    0.0000   -1.0767 C   0  0  0  0  0  0  0  0  0  0  0  0
   -1.1372    1.2567   -1.9083 C   0  0  0  0  0  0  0  0  0  0  0  0
   -1.1921   -1.2672   -1.8916 C   0  0  0  0  0  0  0  0  0  0  0  0
   -2.1322    0.0109    0.1387 C   0  0  1  0  0  0  0  0  0  0  0  0
   -2.8934   -0.7696    0.2303 H   0  0  0  0  0  0  0  0  0  0  0  0
   -0.9628   -0.0603    1.1060 N   0  0  0  0  0  0  0  0  0  0  0  0
   -1.1215    1.0974    1.9367 C   0  0  0  0  0  0  0  0  0  0  0  0
   -2.1786    1.8399    1.4875 C   0  0  0  0  0  0  0  0  0  0  0  0
   -2.7883    3.0926    1.9297 C   0  0  0  0  0  0  0  0  0  0  0  0
   -2.7787    1.2701    0.3904 O   0  0  0  0  0  0  0  0  0  0  0  0
   -0.2969    1.3708    3.0975 C   0  0  0  0  0  0  0  0  0  0  0  0
   -0.4081    2.3329    3.8224 O   0  0  0  0  0  0  0  0  0  0  0  0
    0.6385    0.4057    3.2934 O   0  0  0  0  0  0  0  0  0  0  0  0
    1.6061    0.6701    4.3085 C   0  0  0  0  0  0  0  0  0  0  0  0
    2.7212    1.4907    3.7341 C   0  0  0  0  0  0  0  0  0  0  0  0
    3.4005    2.4082    4.5393 C   0  0  0  0  0  0  0  0  0  0  0  0
    4.4355    3.1676    4.0052 C   0  0  0  0  0  0  0  0  0  0  0  0
    4.7762    3.0001    2.6597 C   0  0  0  0  0  0  0  0  0  0  0  0
    4.1033    2.0845    1.8454 C   0  0  0  0  0  0  0  0  0  0  0  0
    3.0757    1.3256    2.3936 C   0  0  0  0  0  0  0  0  0  0  0  0
    5.8524    3.7982    2.0964 N   0  0  0  0  0  0  0  0  0  0  0  0
    6.1117    3.6685    0.9105 O   0  0  0  0  0  0  0  0  0  0  0  0
    6.4512    4.5648    2.8352 O   0  0  0  0  0  0  0  0  0  0  0  0
   -1.1022    2.1682   -1.2951 H   0  0  0  0  0  0  0  0  0  0  0  0
   -2.0438    1.3282   -2.5263 H   0  0  0  0  0  0  0  0  0  0  0  0
   -0.2737    1.2899   -2.5885 H   0  0  0  0  0  0  0  0  0  0  0  0
   -1.1990   -2.1700   -1.2638 H   0  0  0  0  0  0  0  0  0  0  0  0
   -0.3197   -1.3514   -2.5579 H   0  0  0  0  0  0  0  0  0  0  0  0
   -2.0875   -1.3031   -2.5276 H   0  0  0  0  0  0  0  0  0  0  0  0
   -2.3629    3.4315    2.8986 H   0  0  0  0  0  0  0  0  0  0  0  0
   -3.8810    3.0034    2.0599 H   0  0  0  0  0  0  0  0  0  0  0  0
   -2.6221    3.9089    1.2035 H   0  0  0  0  0  0  0  0  0  0  0  0
    1.9431   -0.3552    4.5744 H   0  0  0  0  0  0  0  0  0  0  0  0
    1.1276    1.1397    5.1902 H   0  0  0  0  0  0  0  0  0  0  0  0
    3.1144    2.5415    5.5821 H   0  0  0  0  0  0  0  0  0  0  0  0
    4.9747    3.8904    4.6248 H   0  0  0  0  0  0  0  0  0  0  0  0
    4.3822    1.9667    0.7932 H   0  0  0  0  0  0  0  0  0  0  0  0
    2.5377    0.6001    1.7723 H   0  0  0  0  0  0  0  0  0  0  0  0
  1  8  1  0  0  0  0
  2  1  2  0  0  0  0
  3  1  1  0  0  0  0
  3  6  1  0  0  0  0
  4 26  1  0  0  0  0
  4  3  1  0  0  0  0
  5 29  1  0  0  0  0
  5  3  1  0  0  0  0
  6  7  1  1  0  0  0
  6 12  1  0  0  0  0
  6  8  1  0  0  0  0
  8  9  1  0  0  0  0
  9 13  1  0  0  0  0
 10 11  1  0  0  0  0
 10  9  2  0  0  0  0
 11 33  1  0  0  0  0
 11 32  1  0  0  0  0
 12 10  1  0  0  0  0
 13 15  1  0  0  0  0
 13 14  2  0  0  0  0
 15 16  1  0  0  0  0
 16 35  1  0  0  0  0
 16 36  1  0  0  0  0
 17 16  1  0  0  0  0
 17 18  2  0  0  0  0
 18 37  1  0  0  0  0
 19 18  1  0  0  0  0
 19 38  1  0  0  0  0
 20 19  2  0  0  0  0
 21 22  2  0  0  0  0
 21 20  1  0  0  0  0
 22 17  1  0  0  0  0
 23 20  1  0  0  0  0
 23 25  2  0  0  0  0
 24 23  2  0  0  0  0
 27  4  1  0  0  0  0
 28  4  1  0  0  0  0
 30  5  1  0  0  0  0
 31  5  1  0  0  0  0
 34 11  1  0  0  0  0
 39 21  1  0  0  0  0
 40 22  1  0  0  0  0
M  END
$$$$
