40
rmsd89.gzmat
C          0.00000        0.00000        0.00000
O          1.18190        0.00000        0.00000
C         -1.13810        0.00000       -1.07670
C         -1.13720        1.25670       -1.90830
C         -1.19210       -1.26720       -1.89160
C         -2.13220        0.01090        0.13870
H         -2.89340       -0.76960        0.23030
N         -0.96280       -0.06030        1.10600
C         -1.12150        1.09740        1.93670
C         -2.17860        1.83990        1.48750
C         -2.78830        3.09260        1.92970
O         -2.77870        1.27010        0.39040
C         -0.29690        1.37080        3.09750
O         -0.40810        2.33290        3.82240
O          0.63850        0.40570        3.29340
C          1.60610        0.67010        4.30850
C          2.72120        1.49070        3.73410
C          3.40050        2.40820        4.53930
C          4.43550        3.16760        4.00520
C          4.77620        3.00010        2.65970
C          4.10330        2.08450        1.84540
C          3.07570        1.32560        2.39360
N          5.85240        3.79820        2.09640
O          6.11170        3.66850        0.91050
O          6.45120        4.56480        2.83520
H         -1.10220        2.16820       -1.29510
H         -2.04380        1.32820       -2.52630
H         -0.27370        1.28990       -2.58850
H         -1.19900       -2.17000       -1.26380
H         -0.31970       -1.35140       -2.55790
H         -2.08750       -1.30310       -2.52760
H         -2.36290        3.43150        2.89860
H         -3.88100        3.00340        2.05990
H         -2.62210        3.90890        1.20350
H          1.94310       -0.35520        4.57440
H          1.12760        1.13970        5.19020
H          3.11440        2.54150        5.58210
H          4.97470        3.89040        4.62480
H          4.38220        1.96670        0.79320
H          2.53770        0.60010        1.77230
