rmsd176.gzmat
 OpenBabel08211713403D

 34 36  0  0  0  0  0  0  0  0999 V2000
    0.0000    0.0000    0.0000 S   0  0  0  0  0  0  0  0  0  0  0  0
    1.8272    0.0000    0.0000 C   0  0  0  0  0  0  0  0  0  0  0  0
    2.5577    0.0000    0.9479 O   0  0  0  0  0  0  0  0  0  0  0  0
    2.2675    0.0720   -1.3341 N   0  0  0  0  0  0  0  0  0  0  0  0
    1.2506   -0.0038   -2.3073 C   0  0  0  0  0  0  0  0  0  0  0  0
    1.4398   -0.0328   -3.6894 C   0  0  0  0  0  0  0  0  0  0  0  0
    0.3132   -0.0905   -4.5062 C   0  0  0  0  0  0  0  0  0  0  0  0
   -0.9728   -0.1220   -3.9623 C   0  0  0  0  0  0  0  0  0  0  0  0
   -1.1623   -0.0922   -2.5806 C   0  0  0  0  0  0  0  0  0  0  0  0
   -0.0496   -0.0307   -1.7587 C   0  0  0  0  0  0  0  0  0  0  0  0
    3.6634   -0.1641   -1.6701 C   0  0  0  0  0  0  0  0  0  0  0  0
    3.8592   -1.5429   -2.2872 C   0  0  0  0  0  0  0  0  0  0  0  0
    4.4423   -1.7794   -3.3109 O   0  0  0  0  0  0  0  0  0  0  0  0
    3.2839   -2.4755   -1.5011 O   0  0  0  0  0  0  0  0  0  0  0  0
    3.1412   -3.7926   -2.0465 C   0  0  0  0  0  0  0  0  0  0  0  0
    1.8564   -3.8339   -2.8135 C   0  0  0  0  0  0  0  0  0  0  0  0
    1.8658   -3.9518   -4.2029 C   0  0  0  0  0  0  0  0  0  0  0  0
    0.6622   -3.9687   -4.9045 C   0  0  0  0  0  0  0  0  0  0  0  0
   -0.5473   -3.8601   -4.2201 C   0  0  0  0  0  0  0  0  0  0  0  0
   -0.5551   -3.7385   -2.8314 C   0  0  0  0  0  0  0  0  0  0  0  0
    0.6463   -3.7237   -2.1271 C   0  0  0  0  0  0  0  0  0  0  0  0
    2.4371   -0.0247   -4.1248 H   0  0  0  0  0  0  0  0  0  0  0  0
    0.4407   -0.1161   -5.5894 H   0  0  0  0  0  0  0  0  0  0  0  0
   -1.8358   -0.1746   -4.6230 H   0  0  0  0  0  0  0  0  0  0  0  0
   -2.1703   -0.1192   -2.1662 H   0  0  0  0  0  0  0  0  0  0  0  0
    4.2958   -0.0703   -0.7461 H   0  0  0  0  0  0  0  0  0  0  0  0
    4.0205    0.6168   -2.3881 H   0  0  0  0  0  0  0  0  0  0  0  0
    3.1184   -4.4167   -1.1304 H   0  0  0  0  0  0  0  0  0  0  0  0
    4.0275   -4.0596   -2.6523 H   0  0  0  0  0  0  0  0  0  0  0  0
    2.8116   -4.0208   -4.7405 H   0  0  0  0  0  0  0  0  0  0  0  0
    0.6684   -4.0662   -5.9882 H   0  0  0  0  0  0  0  0  0  0  0  0
   -1.4862   -3.8684   -4.7699 H   0  0  0  0  0  0  0  0  0  0  0  0
   -1.4987   -3.6536   -2.2964 H   0  0  0  0  0  0  0  0  0  0  0  0
    0.6430   -3.6162   -1.0429 H   0  0  0  0  0  0  0  0  0  0  0  0
  2  1  1  0  0  0  0
  2  3  2  0  0  0  0
  4  2  1  0  0  0  0
  5 10  1  0  0  0  0
  5  4  1  0  0  0  0
  6  5  2  0  0  0  0
  7  8  2  0  0  0  0
  7  6  1  0  0  0  0
  8  9  1  0  0  0  0
  9 25  1  0  0  0  0
  9 10  2  0  0  0  0
 10  1  1  0  0  0  0
 11  4  1  0  0  0  0
 11 26  1  0  0  0  0
 12 11  1  0  0  0  0
 12 14  1  0  0  0  0
 13 12  2  0  0  0  0
 15 14  1  0  0  0  0
 15 28  1  0  0  0  0
 16 21  1  0  0  0  0
 16 15  1  0  0  0  0
 17 16  2  0  0  0  0
 18 19  2  0  0  0  0
 18 17  1  0  0  0  0
 19 20  1  0  0  0  0
 20 33  1  0  0  0  0
 20 21  2  0  0  0  0
 21 34  1  0  0  0  0
 22  6  1  0  0  0  0
 23  7  1  0  0  0  0
 24  8  1  0  0  0  0
 27 11  1  0  0  0  0
 29 15  1  0  0  0  0
 30 17  1  0  0  0  0
 31 18  1  0  0  0  0
 32 19  1  0  0  0  0
M  END
$$$$
