rmsd16.gzmat
 OpenBabel08211713403D

 34 35  0  0  0  0  0  0  0  0999 V2000
    0.0000    0.0000    0.0000 S   0  0  0  0  0  0  0  0  0  0  0  0
    1.8270    0.0000    0.0000 C   0  0  0  0  0  0  0  0  0  0  0  0
    2.5557    0.0000    0.9490 O   0  0  0  0  0  0  0  0  0  0  0  0
    2.2674    0.0704   -1.3343 N   0  0  0  0  0  0  0  0  0  0  0  0
    1.2496    0.0069   -2.3079 C   0  0  0  0  0  0  0  0  0  0  0  0
    1.4370   -0.0135   -3.6905 C   0  0  0  0  0  0  0  0  0  0  0  0
    0.3093   -0.0600   -4.5062 C   0  0  0  0  0  0  0  0  0  0  0  0
   -0.9767   -0.0839   -3.9617 C   0  0  0  0  0  0  0  0  0  0  0  0
   -1.1646   -0.0628   -2.5796 C   0  0  0  0  0  0  0  0  0  0  0  0
   -0.0503   -0.0170   -1.7587 C   0  0  0  0  0  0  0  0  0  0  0  0
    3.6654   -0.1550   -1.6709 C   0  0  0  0  0  0  0  0  0  0  0  0
    3.8524   -1.5438   -2.2712 C   0  0  0  0  0  0  0  0  0  0  0  0
    4.2726   -1.7888   -3.3700 O   0  0  0  0  0  0  0  0  0  0  0  0
    3.4678   -2.4742   -1.3738 O   0  0  0  0  0  0  0  0  0  0  0  0
    3.2573   -3.8035   -1.8668 C   0  0  0  0  0  0  0  0  0  0  0  0
    1.9101   -3.8350   -2.5194 C   0  0  0  0  0  0  0  0  0  0  0  0
    0.7605   -3.8245   -1.7288 C   0  0  0  0  0  0  0  0  0  0  0  0
   -0.4951   -3.8046   -2.3316 C   0  0  0  0  0  0  0  0  0  0  0  0
   -0.6007   -3.7971   -3.7218 C   0  0  0  0  0  0  0  0  0  0  0  0
    0.5488   -3.8017   -4.5105 C   0  0  0  0  0  0  0  0  0  0  0  0
    1.8056   -3.8142   -3.9104 C   0  0  0  0  0  0  0  0  0  0  0  0
    2.4344   -0.0091   -4.1271 H   0  0  0  0  0  0  0  0  0  0  0  0
    0.4354   -0.0840   -5.5898 H   0  0  0  0  0  0  0  0  0  0  0  0
   -1.8400   -0.1240   -4.6231 H   0  0  0  0  0  0  0  0  0  0  0  0
   -2.1722   -0.0844   -2.1640 H   0  0  0  0  0  0  0  0  0  0  0  0
    4.2974   -0.0457   -0.7488 H   0  0  0  0  0  0  0  0  0  0  0  0
    4.0147    0.6174   -2.4011 H   0  0  0  0  0  0  0  0  0  0  0  0
    3.3089   -4.4002   -0.9344 H   0  0  0  0  0  0  0  0  0  0  0  0
    4.0836   -4.0972   -2.5413 H   0  0  0  0  0  0  0  0  0  0  0  0
    0.8457   -3.8172   -0.6425 H   0  0  0  0  0  0  0  0  0  0  0  0
   -1.3923   -3.7890   -1.7161 H   0  0  0  0  0  0  0  0  0  0  0  0
   -1.5817   -3.7827   -4.1923 H   0  0  0  0  0  0  0  0  0  0  0  0
    0.4661   -3.7880   -5.5952 H   0  0  0  0  0  0  0  0  0  0  0  0
    2.7064   -3.7884   -4.5249 H   0  0  0  0  0  0  0  0  0  0  0  0
  1  2  1  0  0  0  0
  2  3  2  0  0  0  0
  4  2  1  0  0  0  0
  5 10  1  0  0  0  0
  5  4  1  0  0  0  0
  6  5  2  0  0  0  0
  7  8  2  0  0  0  0
  7  6  1  0  0  0  0
  8  9  1  0  0  0  0
  9 25  1  0  0  0  0
  9 10  2  0  0  0  0
 10  1  1  0  0  0  0
 11  4  1  0  0  0  0
 11 26  1  0  0  0  0
 12 11  1  0  0  0  0
 12 14  1  0  0  0  0
 13 12  2  0  0  0  0
 15 14  1  0  0  0  0
 15 28  1  0  0  0  0
 16 15  1  0  0  0  0
 16 17  2  0  0  0  0
 17 30  1  0  0  0  0
 18 17  1  0  0  0  0
 18 31  1  0  0  0  0
 19 18  2  0  0  0  0
 20 21  2  0  0  0  0
 20 19  1  0  0  0  0
 21 16  1  0  0  0  0
 22  6  1  0  0  0  0
 23  7  1  0  0  0  0
 24  8  1  0  0  0  0
 27 11  1  0  0  0  0
 29 15  1  0  0  0  0
 32 19  1  0  0  0  0
 34 21  1  0  0  0  0
M  RAD  2  20   2  33   2
M  END
$$$$
