34

S          0.17170       -0.30550        0.20120
C          1.97450       -0.22440        0.04030
O          2.76070       -0.29860        0.94970
N          2.28970       -0.06930       -1.30270
C          1.21310        0.03660       -2.18200
C          1.27780        0.25250       -3.56070
C          0.08260        0.32420       -4.28160
C         -1.15400        0.18120       -3.64360
C         -1.22030       -0.02300       -2.26150
C         -0.03290       -0.08790       -1.53540
C          3.65940        0.17400       -1.69960
C          3.84370        1.60630       -2.18990
O          4.40800        1.91180       -3.20970
O          3.26270        2.46490       -1.34400
C          3.04710        3.81210       -1.81890
C          1.83170        3.84750       -2.70820
C          0.57120        3.53830       -2.17330
C         -0.55610        3.51720       -2.99210
C         -0.43610        3.80420       -4.35590
C          0.81580        4.10180       -4.89720
C          1.94770        4.11600       -4.07640
H          2.23550        0.38300       -4.06490
H          0.12180        0.50610       -5.35700
H         -2.07690        0.24130       -4.22400
H         -2.18300       -0.12470       -1.75670
H          3.97330       -0.50870       -2.50150
H          4.28360        0.00280       -0.81020
H          3.94360        4.16440       -2.34580
H          2.90000        4.40100       -0.90410
H          0.47970        3.29610       -1.11140
H         -1.53050        3.26540       -2.56900
H         -1.32000        3.78490       -4.99780
H          0.91540        4.31580       -5.96400
H          2.93240        4.32390       -4.50110
