rmsd135.gzmat
 OpenBabel08211713403D

 34 36  0  0  0  0  0  0  0  0999 V2000
    0.0000    0.0000    0.0000 S   0  0  0  0  0  0  0  0  0  0  0  0
    1.8265    0.0000    0.0000 C   0  0  0  0  0  0  0  0  0  0  0  0
    2.5561    0.0000    0.9481 O   0  0  0  0  0  0  0  0  0  0  0  0
    2.2708   -0.0800   -1.3348 N   0  0  0  0  0  0  0  0  0  0  0  0
    1.2524   -0.0033   -2.3077 C   0  0  0  0  0  0  0  0  0  0  0  0
    1.4392    0.0147   -3.6902 C   0  0  0  0  0  0  0  0  0  0  0  0
    0.3113    0.0612   -4.5065 C   0  0  0  0  0  0  0  0  0  0  0  0
   -0.9743    0.0885   -3.9621 C   0  0  0  0  0  0  0  0  0  0  0  0
   -1.1616    0.0692   -2.5797 C   0  0  0  0  0  0  0  0  0  0  0  0
   -0.0477    0.0218   -1.7588 C   0  0  0  0  0  0  0  0  0  0  0  0
    3.6557    0.2263   -1.6611 C   0  0  0  0  0  0  0  0  0  0  0  0
    3.8284    1.6682   -2.1186 C   0  0  0  0  0  0  0  0  0  0  0  0
    4.5597    2.0445   -2.9947 O   0  0  0  0  0  0  0  0  0  0  0  0
    3.0418    2.4773   -1.3800 O   0  0  0  0  0  0  0  0  0  0  0  0
    2.8831    3.8283   -1.8299 C   0  0  0  0  0  0  0  0  0  0  0  0
    1.8804    3.8299   -2.9416 C   0  0  0  0  0  0  0  0  0  0  0  0
    0.5161    3.8178   -2.6504 C   0  0  0  0  0  0  0  0  0  0  0  0
   -0.4130    3.7735   -3.6878 C   0  0  0  0  0  0  0  0  0  0  0  0
    0.0211    3.7380   -5.0120 C   0  0  0  0  0  0  0  0  0  0  0  0
    1.3848    3.7458   -5.3014 C   0  0  0  0  0  0  0  0  0  0  0  0
    2.3157    3.7902   -4.2667 C   0  0  0  0  0  0  0  0  0  0  0  0
    2.4344    0.0036   -4.1270 H   0  0  0  0  0  0  0  0  0  0  0  0
    0.4377    0.0821   -5.5901 H   0  0  0  0  0  0  0  0  0  0  0  0
   -1.8386    0.1279   -4.6221 H   0  0  0  0  0  0  0  0  0  0  0  0
   -2.1692    0.0928   -2.1639 H   0  0  0  0  0  0  0  0  0  0  0  0
    4.0220   -0.4629   -2.4629 H   0  0  0  0  0  0  0  0  0  0  0  0
    4.3028    0.0427   -0.7602 H   0  0  0  0  0  0  0  0  0  0  0  0
    3.8634    4.2508   -2.1215 H   0  0  0  0  0  0  0  0  0  0  0  0
    2.5234    4.3279   -0.9082 H   0  0  0  0  0  0  0  0  0  0  0  0
    0.1772    3.8309   -1.6150 H   0  0  0  0  0  0  0  0  0  0  0  0
   -1.4778    3.7608   -3.4647 H   0  0  0  0  0  0  0  0  0  0  0  0
   -0.7059    3.7018   -5.8209 H   0  0  0  0  0  0  0  0  0  0  0  0
    1.7237    3.7148   -6.3348 H   0  0  0  0  0  0  0  0  0  0  0  0
    3.3846    3.7779   -4.4899 H   0  0  0  0  0  0  0  0  0  0  0  0
  1  2  1  0  0  0  0
  2  3  2  0  0  0  0
  4  2  1  0  0  0  0
  5 10  1  0  0  0  0
  5  4  1  0  0  0  0
  6  5  2  0  0  0  0
  7  8  2  0  0  0  0
  7  6  1  0  0  0  0
  8  9  1  0  0  0  0
  9 25  1  0  0  0  0
  9 10  2  0  0  0  0
 10  1  1  0  0  0  0
 11  4  1  0  0  0  0
 11 27  1  0  0  0  0
 12 11  1  0  0  0  0
 12 14  1  0  0  0  0
 13 12  2  0  0  0  0
 15 14  1  0  0  0  0
 15 29  1  0  0  0  0
 16 17  1  0  0  0  0
 16 15  1  0  0  0  0
 17 30  1  0  0  0  0
 18 31  1  0  0  0  0
 18 17  2  0  0  0  0
 19 18  1  0  0  0  0
 20 19  2  0  0  0  0
 20 21  1  0  0  0  0
 21 16  2  0  0  0  0
 22  6  1  0  0  0  0
 23  7  1  0  0  0  0
 24  8  1  0  0  0  0
 26 11  1  0  0  0  0
 28 15  1  0  0  0  0
 32 19  1  0  0  0  0
 33 20  1  0  0  0  0
 34 21  1  0  0  0  0
M  END
$$$$
