rmsd182.gzmat
 OpenBabel08211713403D

 34 36  0  0  0  0  0  0  0  0999 V2000
    0.0000    0.0000    0.0000 S   0  0  0  0  0  0  0  0  0  0  0  0
    1.8273    0.0000    0.0000 C   0  0  0  0  0  0  0  0  0  0  0  0
    2.5568    0.0000    0.9483 O   0  0  0  0  0  0  0  0  0  0  0  0
    2.2683   -0.0739   -1.3347 N   0  0  0  0  0  0  0  0  0  0  0  0
    1.2501   -0.0071   -2.3078 C   0  0  0  0  0  0  0  0  0  0  0  0
    1.4383    0.0149   -3.6900 C   0  0  0  0  0  0  0  0  0  0  0  0
    0.3109    0.0540   -4.5068 C   0  0  0  0  0  0  0  0  0  0  0  0
   -0.9752    0.0718   -3.9627 C   0  0  0  0  0  0  0  0  0  0  0  0
   -1.1636    0.0528   -2.5804 C   0  0  0  0  0  0  0  0  0  0  0  0
   -0.0499    0.0132   -1.7587 C   0  0  0  0  0  0  0  0  0  0  0  0
    3.6618    0.1811   -1.6696 C   0  0  0  0  0  0  0  0  0  0  0  0
    3.8290    1.5891   -2.2286 C   0  0  0  0  0  0  0  0  0  0  0  0
    4.2992    1.8758   -3.2964 O   0  0  0  0  0  0  0  0  0  0  0  0
    3.3610    2.4824   -1.3332 O   0  0  0  0  0  0  0  0  0  0  0  0
    3.1416    3.8191   -1.8006 C   0  0  0  0  0  0  0  0  0  0  0  0
    1.8251    3.8407   -2.5136 C   0  0  0  0  0  0  0  0  0  0  0  0
    0.6397    3.8286   -1.7776 C   0  0  0  0  0  0  0  0  0  0  0  0
   -0.5862    3.7955   -2.4385 C   0  0  0  0  0  0  0  0  0  0  0  0
   -0.6274    3.7763   -3.8317 C   0  0  0  0  0  0  0  0  0  0  0  0
    0.5575    3.7916   -4.5661 C   0  0  0  0  0  0  0  0  0  0  0  0
    1.7850    3.8195   -3.9083 C   0  0  0  0  0  0  0  0  0  0  0  0
    2.4361    0.0159   -4.1251 H   0  0  0  0  0  0  0  0  0  0  0  0
    0.4379    0.0750   -5.5902 H   0  0  0  0  0  0  0  0  0  0  0  0
   -1.8390    0.1044   -4.6238 H   0  0  0  0  0  0  0  0  0  0  0  0
   -2.1717    0.0698   -2.1657 H   0  0  0  0  0  0  0  0  0  0  0  0
    4.0194   -0.5651   -2.4223 H   0  0  0  0  0  0  0  0  0  0  0  0
    4.2994    0.0540   -0.7536 H   0  0  0  0  0  0  0  0  0  0  0  0
    3.9901    4.1491   -2.4290 H   0  0  0  0  0  0  0  0  0  0  0  0
    3.1383    4.3917   -0.8517 H   0  0  0  0  0  0  0  0  0  0  0  0
    0.6727    3.8340   -0.6883 H   0  0  0  0  0  0  0  0  0  0  0  0
   -1.5114    3.7800   -1.8659 H   0  0  0  0  0  0  0  0  0  0  0  0
   -1.5860    3.7466   -4.3458 H   0  0  0  0  0  0  0  0  0  0  0  0
    0.5248    3.7765   -5.6537 H   0  0  0  0  0  0  0  0  0  0  0  0
    2.7135    3.8086   -4.4812 H   0  0  0  0  0  0  0  0  0  0  0  0
  1  2  1  0  0  0  0
  2  3  2  0  0  0  0
  4  2  1  0  0  0  0
  5 10  1  0  0  0  0
  5  4  1  0  0  0  0
  6  5  2  0  0  0  0
  7  8  2  0  0  0  0
  7  6  1  0  0  0  0
  8  9  1  0  0  0  0
  9 25  1  0  0  0  0
  9 10  2  0  0  0  0
 10  1  1  0  0  0  0
 11  4  1  0  0  0  0
 11 27  1  0  0  0  0
 12 11  1  0  0  0  0
 12 14  1  0  0  0  0
 13 12  2  0  0  0  0
 15 14  1  0  0  0  0
 15 29  1  0  0  0  0
 16 15  1  0  0  0  0
 16 17  2  0  0  0  0
 17 30  1  0  0  0  0
 18 31  1  0  0  0  0
 18 17  1  0  0  0  0
 19 18  2  0  0  0  0
 20 21  2  0  0  0  0
 20 19  1  0  0  0  0
 21 16  1  0  0  0  0
 22  6  1  0  0  0  0
 23  7  1  0  0  0  0
 24  8  1  0  0  0  0
 26 11  1  0  0  0  0
 28 15  1  0  0  0  0
 32 19  1  0  0  0  0
 33 20  1  0  0  0  0
 34 21  1  0  0  0  0
M  END
$$$$
