rmsd103.gzmat
 OpenBabel08211713403D

 34 35  0  0  0  0  0  0  0  0999 V2000
    0.0000    0.0000    0.0000 S   0  0  0  0  0  0  0  0  0  0  0  0
    1.8279    0.0000    0.0000 C   0  0  0  0  0  0  0  0  0  0  0  0
    2.5589    0.0000    0.9471 O   0  0  0  0  0  0  0  0  0  0  0  0
    2.2675   -0.0728   -1.3351 N   0  0  0  0  0  0  0  0  0  0  0  0
    1.2485   -0.0015   -2.3073 C   0  0  0  0  0  0  0  0  0  0  0  0
    1.4384    0.0181   -3.6894 C   0  0  0  0  0  0  0  0  0  0  0  0
    0.3127    0.0758   -4.5071 C   0  0  0  0  0  0  0  0  0  0  0  0
   -0.9734    0.1144   -3.9640 C   0  0  0  0  0  0  0  0  0  0  0  0
   -1.1635    0.0894   -2.5819 C   0  0  0  0  0  0  0  0  0  0  0  0
   -0.0515    0.0282   -1.7588 C   0  0  0  0  0  0  0  0  0  0  0  0
    3.6579    0.1939   -1.6740 C   0  0  0  0  0  0  0  0  0  0  0  0
    3.8136    1.5969   -2.2485 C   0  0  0  0  0  0  0  0  0  0  0  0
    4.2966    1.8749   -3.3130 O   0  0  0  0  0  0  0  0  0  0  0  0
    3.3216    2.4970   -1.3729 O   0  0  0  0  0  0  0  0  0  0  0  0
    3.1148    3.8295   -1.8581 C   0  0  0  0  0  0  0  0  0  0  0  0
    1.8161    3.8496   -2.6027 C   0  0  0  0  0  0  0  0  0  0  0  0
    0.6142    3.8126   -1.8946 C   0  0  0  0  0  0  0  0  0  0  0  0
   -0.5962    3.7910   -2.5835 C   0  0  0  0  0  0  0  0  0  0  0  0
   -0.6053    3.8090   -3.9774 C   0  0  0  0  0  0  0  0  0  0  0  0
    0.5961    3.8412   -4.6837 C   0  0  0  0  0  0  0  0  0  0  0  0
    1.8084    3.8567   -3.9978 C   0  0  0  0  0  0  0  0  0  0  0  0
    2.4365    0.0026   -4.1228 H   0  0  0  0  0  0  0  0  0  0  0  0
    0.4408    0.0958   -5.5902 H   0  0  0  0  0  0  0  0  0  0  0  0
   -1.8354    0.1683   -4.6261 H   0  0  0  0  0  0  0  0  0  0  0  0
   -2.1723    0.1211   -2.1696 H   0  0  0  0  0  0  0  0  0  0  0  0
    4.0216   -0.5568   -2.4196 H   0  0  0  0  0  0  0  0  0  0  0  0
    4.2982    0.0824   -0.7582 H   0  0  0  0  0  0  0  0  0  0  0  0
    3.9789    4.1523   -2.4687 H   0  0  0  0  0  0  0  0  0  0  0  0
    3.0879    4.4121   -0.9156 H   0  0  0  0  0  0  0  0  0  0  0  0
    0.6224    3.7890   -0.8054 H   0  0  0  0  0  0  0  0  0  0  0  0
   -1.5344    3.7562   -2.0332 H   0  0  0  0  0  0  0  0  0  0  0  0
   -1.5513    3.7939   -4.5147 H   0  0  0  0  0  0  0  0  0  0  0  0
    0.5876    3.8503   -5.7718 H   0  0  0  0  0  0  0  0  0  0  0  0
    2.7491    3.8603   -4.5505 H   0  0  0  0  0  0  0  0  0  0  0  0
  1  2  1  0  0  0  0
  2  3  2  0  0  0  0
  4  2  1  0  0  0  0
  5 10  1  0  0  0  0
  5  4  1  0  0  0  0
  6  5  2  0  0  0  0
  7  8  2  0  0  0  0
  7  6  1  0  0  0  0
  8  9  1  0  0  0  0
  9 25  1  0  0  0  0
  9 10  2  0  0  0  0
 10  1  1  0  0  0  0
 11  4  1  0  0  0  0
 11 27  1  0  0  0  0
 12 11  1  0  0  0  0
 12 14  1  0  0  0  0
 13 12  2  0  0  0  0
 15 14  1  0  0  0  0
 15 29  1  0  0  0  0
 16 17  2  0  0  0  0
 16 15  1  0  0  0  0
 17 30  1  0  0  0  0
 18 31  1  0  0  0  0
 18 17  1  0  0  0  0
 19 18  2  0  0  0  0
 20 21  2  0  0  0  0
 20 19  1  0  0  0  0
 21 16  1  0  0  0  0
 22  6  1  0  0  0  0
 24  8  1  0  0  0  0
 26 11  1  0  0  0  0
 28 15  1  0  0  0  0
 32 19  1  0  0  0  0
 33 20  1  0  0  0  0
 34 21  1  0  0  0  0
M  RAD  2   7   2  23   2
M  END
$$$$
