rmsd242.gzmat
 OpenBabel08211713403D

 34 36  0  0  0  0  0  0  0  0999 V2000
    0.0000    0.0000    0.0000 S   0  0  0  0  0  0  0  0  0  0  0  0
    1.8275    0.0000    0.0000 C   0  0  0  0  0  0  0  0  0  0  0  0
    2.5570    0.0000    0.9484 O   0  0  0  0  0  0  0  0  0  0  0  0
    2.2679   -0.0744   -1.3350 N   0  0  0  0  0  0  0  0  0  0  0  0
    1.2492   -0.0090   -2.3078 C   0  0  0  0  0  0  0  0  0  0  0  0
    1.4369    0.0099   -3.6903 C   0  0  0  0  0  0  0  0  0  0  0  0
    0.3093    0.0488   -4.5068 C   0  0  0  0  0  0  0  0  0  0  0  0
   -0.9768    0.0718   -3.9628 C   0  0  0  0  0  0  0  0  0  0  0  0
   -1.1647    0.0565   -2.5803 C   0  0  0  0  0  0  0  0  0  0  0  0
   -0.0506    0.0147   -1.7587 C   0  0  0  0  0  0  0  0  0  0  0  0
    3.6605    0.1828   -1.6723 C   0  0  0  0  0  0  0  0  0  0  0  0
    3.8272    1.5951   -2.2206 C   0  0  0  0  0  0  0  0  0  0  0  0
    4.2936    1.8899   -3.2880 O   0  0  0  0  0  0  0  0  0  0  0  0
    3.3636    2.4823   -1.3169 O   0  0  0  0  0  0  0  0  0  0  0  0
    3.1421    3.8220   -1.7748 C   0  0  0  0  0  0  0  0  0  0  0  0
    1.8407    3.8405   -2.5148 C   0  0  0  0  0  0  0  0  0  0  0  0
    0.6375    3.8358   -1.8083 C   0  0  0  0  0  0  0  0  0  0  0  0
   -0.5717    3.8007   -2.4993 C   0  0  0  0  0  0  0  0  0  0  0  0
   -0.5782    3.7698   -3.8931 C   0  0  0  0  0  0  0  0  0  0  0  0
    0.6247    3.7728   -4.5977 C   0  0  0  0  0  0  0  0  0  0  0  0
    1.8351    3.8051   -3.9093 C   0  0  0  0  0  0  0  0  0  0  0  0
    2.4345    0.0085   -4.1259 H   0  0  0  0  0  0  0  0  0  0  0  0
    0.4364    0.0669   -5.5902 H   0  0  0  0  0  0  0  0  0  0  0  0
   -1.8406    0.1056   -4.6236 H   0  0  0  0  0  0  0  0  0  0  0  0
   -2.1725    0.0805   -2.1652 H   0  0  0  0  0  0  0  0  0  0  0  0
    4.0146   -0.5575   -2.4328 H   0  0  0  0  0  0  0  0  0  0  0  0
    4.3009    0.0482   -0.7594 H   0  0  0  0  0  0  0  0  0  0  0  0
    4.0005    4.1633   -2.3835 H   0  0  0  0  0  0  0  0  0  0  0  0
    3.1168    4.3853   -0.8210 H   0  0  0  0  0  0  0  0  0  0  0  0
    0.6426    3.8470   -0.7189 H   0  0  0  0  0  0  0  0  0  0  0  0
   -1.5106    3.7931   -1.9494 H   0  0  0  0  0  0  0  0  0  0  0  0
   -1.5233    3.7390   -4.4318 H   0  0  0  0  0  0  0  0  0  0  0  0
    0.6197    3.7439   -5.6853 H   0  0  0  0  0  0  0  0  0  0  0  0
    2.7784    3.7854   -4.4582 H   0  0  0  0  0  0  0  0  0  0  0  0
  1  2  1  0  0  0  0
  2  3  2  0  0  0  0
  4  2  1  0  0  0  0
  5 10  1  0  0  0  0
  5  4  1  0  0  0  0
  6  5  2  0  0  0  0
  7  8  2  0  0  0  0
  7  6  1  0  0  0  0
  8  9  1  0  0  0  0
  9 25  1  0  0  0  0
  9 10  2  0  0  0  0
 10  1  1  0  0  0  0
 11  4  1  0  0  0  0
 11 27  1  0  0  0  0
 12 11  1  0  0  0  0
 12 14  1  0  0  0  0
 13 12  2  0  0  0  0
 15 14  1  0  0  0  0
 15 29  1  0  0  0  0
 16 17  2  0  0  0  0
 16 15  1  0  0  0  0
 17 30  1  0  0  0  0
 18 31  1  0  0  0  0
 18 17  1  0  0  0  0
 19 18  2  0  0  0  0
 20 21  2  0  0  0  0
 20 19  1  0  0  0  0
 21 16  1  0  0  0  0
 22  6  1  0  0  0  0
 23  7  1  0  0  0  0
 24  8  1  0  0  0  0
 26 11  1  0  0  0  0
 28 15  1  0  0  0  0
 32 19  1  0  0  0  0
 33 20  1  0  0  0  0
 34 21  1  0  0  0  0
M  END
$$$$
