34
rmsd1.gzmat
S          0.00000        0.00000        0.00000
C          1.82730        0.00000        0.00000
O          2.55610        0.00000        0.94880
N          2.27160        0.08140       -1.33470
C          1.25180        0.00940       -2.30690
C          1.43910       -0.00030       -3.68930
C          0.31210       -0.05720       -4.50600
C         -0.97310       -0.10430       -3.96160
C         -1.16150       -0.08640       -2.57940
C         -0.04830       -0.02510       -1.75840
C          3.65450       -0.23010       -1.66680
C          3.80350       -1.65580       -2.18080
O          4.47690       -2.00180       -3.11400
O          3.06890       -2.49070       -1.41810
C          2.88400       -3.82680       -1.90060
C          1.76880       -3.80600       -2.89920
C          2.05790       -3.74260       -4.26270
C          1.02030       -3.69740       -5.19050
C         -0.30460       -3.71230       -4.75650
C         -0.59230       -3.76240       -3.39360
C          0.44370       -3.80630       -2.46320
H          2.43490        0.02430       -4.12540
H          0.43900       -0.07250       -5.58930
H         -1.83610       -0.15830       -4.62200
H         -2.16920       -0.12160       -2.16460
H          4.30110       -0.09310       -0.75780
H          4.03320        0.48340       -2.44100
H          2.63070       -4.36880       -0.96740
H          3.83300       -4.22100       -2.31140
H          3.09580       -3.71420       -4.59960
H          1.24470       -3.64690       -6.25410
H         -1.11470       -3.68110       -5.48230
H         -1.62600       -3.76260       -3.05470
H          0.21780       -3.82960       -1.39790
