rmsd192.gzmat
 OpenBabel08211713403D

 34 36  0  0  0  0  0  0  0  0999 V2000
    0.0000    0.0000    0.0000 S   0  0  0  0  0  0  0  0  0  0  0  0
    1.8275    0.0000    0.0000 C   0  0  0  0  0  0  0  0  0  0  0  0
    2.5572    0.0000    0.9479 O   0  0  0  0  0  0  0  0  0  0  0  0
    2.2679   -0.0732   -1.3351 N   0  0  0  0  0  0  0  0  0  0  0  0
    1.2490   -0.0021   -2.3075 C   0  0  0  0  0  0  0  0  0  0  0  0
    1.4372    0.0246   -3.6897 C   0  0  0  0  0  0  0  0  0  0  0  0
    0.3096    0.0669   -4.5061 C   0  0  0  0  0  0  0  0  0  0  0  0
   -0.9766    0.0849   -3.9621 C   0  0  0  0  0  0  0  0  0  0  0  0
   -1.1653    0.0634   -2.5799 C   0  0  0  0  0  0  0  0  0  0  0  0
   -0.0513    0.0186   -1.7584 C   0  0  0  0  0  0  0  0  0  0  0  0
    3.6595    0.1897   -1.6724 C   0  0  0  0  0  0  0  0  0  0  0  0
    3.8214    1.6035   -2.2182 C   0  0  0  0  0  0  0  0  0  0  0  0
    4.2947    1.9002   -3.2818 O   0  0  0  0  0  0  0  0  0  0  0  0
    3.3428    2.4880   -1.3194 O   0  0  0  0  0  0  0  0  0  0  0  0
    3.1207    3.8271   -1.7797 C   0  0  0  0  0  0  0  0  0  0  0  0
    1.8423    3.8376   -2.5592 C   0  0  0  0  0  0  0  0  0  0  0  0
    0.6206    3.8471   -1.8854 C   0  0  0  0  0  0  0  0  0  0  0  0
   -0.5694    3.8050   -2.6085 C   0  0  0  0  0  0  0  0  0  0  0  0
   -0.5384    3.7585   -4.0015 C   0  0  0  0  0  0  0  0  0  0  0  0
    0.6831    3.7455   -4.6734 C   0  0  0  0  0  0  0  0  0  0  0  0
    1.8747    3.7808   -3.9529 C   0  0  0  0  0  0  0  0  0  0  0  0
    2.4347    0.0289   -4.1253 H   0  0  0  0  0  0  0  0  0  0  0  0
    0.4364    0.0919   -5.5894 H   0  0  0  0  0  0  0  0  0  0  0  0
   -1.8399    0.1189   -4.6234 H   0  0  0  0  0  0  0  0  0  0  0  0
   -2.1734    0.0836   -2.1650 H   0  0  0  0  0  0  0  0  0  0  0  0
    4.0156   -0.5474   -2.4349 H   0  0  0  0  0  0  0  0  0  0  0  0
    4.3014    0.0537   -0.7612 H   0  0  0  0  0  0  0  0  0  0  0  0
    3.9947    4.1805   -2.3581 H   0  0  0  0  0  0  0  0  0  0  0  0
    3.0589    4.3846   -0.8236 H   0  0  0  0  0  0  0  0  0  0  0  0
    0.5968    3.8759   -0.7966 H   0  0  0  0  0  0  0  0  0  0  0  0
   -1.5231    3.8020   -2.0847 H   0  0  0  0  0  0  0  0  0  0  0  0
   -1.4689    3.7295   -4.5649 H   0  0  0  0  0  0  0  0  0  0  0  0
    0.7078    3.7028   -5.7605 H   0  0  0  0  0  0  0  0  0  0  0  0
    2.8327    3.7484   -4.4752 H   0  0  0  0  0  0  0  0  0  0  0  0
  1  2  1  0  0  0  0
  2  3  2  0  0  0  0
  4  2  1  0  0  0  0
  5 10  1  0  0  0  0
  5  4  1  0  0  0  0
  6  5  2  0  0  0  0
  7  8  2  0  0  0  0
  7  6  1  0  0  0  0
  8  9  1  0  0  0  0
  9 25  1  0  0  0  0
  9 10  2  0  0  0  0
 10  1  1  0  0  0  0
 11  4  1  0  0  0  0
 11 27  1  0  0  0  0
 12 11  1  0  0  0  0
 12 14  1  0  0  0  0
 13 12  2  0  0  0  0
 15 14  1  0  0  0  0
 15 29  1  0  0  0  0
 16 17  1  0  0  0  0
 16 15  1  0  0  0  0
 17 30  1  0  0  0  0
 18 31  1  0  0  0  0
 18 17  2  0  0  0  0
 19 18  1  0  0  0  0
 20 19  2  0  0  0  0
 20 21  1  0  0  0  0
 21 16  2  0  0  0  0
 22  6  1  0  0  0  0
 23  7  1  0  0  0  0
 24  8  1  0  0  0  0
 26 11  1  0  0  0  0
 28 15  1  0  0  0  0
 32 19  1  0  0  0  0
 33 20  1  0  0  0  0
 34 21  1  0  0  0  0
M  END
$$$$
