54

O          0.01670       -0.33070       -0.08110
C          1.22320       -0.16250       -0.01060
N          1.87490       -0.09770        1.24690
C          3.25080        0.00100        1.34050
N          4.03620        0.13010        0.32090
C          3.50090        0.15820       -0.94820
C          2.11310       -0.00020       -1.16210
C          1.58570        0.00680       -2.46570
C          2.43240        0.17730       -3.55160
C          3.81670        0.33910       -3.34430
C          4.34850        0.32880       -2.06290
C          3.92810       -0.11930        2.69850
H          3.20910        0.10580        3.49350
N          4.98200        0.86730        2.75080
C          5.65770        1.20180        3.90950
C          6.83800        1.99030        3.81060
C          7.48830        2.36130        4.98590
C          7.01740        1.98490        6.24910
C          5.85920        1.21020        6.35600
C          5.19460        0.82380        5.18320
C          5.31870        0.78380        7.69850
C          7.34830        2.40880        2.45790
C          4.43180       -1.56610        2.88180
C          0.99840       -0.12420        2.43170
C          1.00190       -1.44550        3.16470
C          1.26650       -1.50190        4.53790
C          1.29610       -2.72830        5.20790
C          1.06200       -3.91260        4.50590
C          0.78340       -3.86270        3.13550
C          0.74830       -2.63690        2.46940
H          0.50880       -0.12040       -2.58800
H          2.02900        0.18630       -4.56640
H          4.47920        0.47210       -4.20320
H          5.41830        0.44650       -1.88290
H          5.46980        0.96720        1.86750
H          8.39550        2.96790        4.91080
H          7.55490        2.29400        7.14850
H          4.29600        0.21110        5.27530
H          4.30800        1.19120        7.87130
H          5.96340        1.12760        8.52040
H          5.23880       -0.31400        7.76840
H          8.25010        3.03040        2.54850
H          6.59200        2.98910        1.89990
H          7.60850        1.53830        1.82790
H          4.94770       -1.66190        3.84760
H          5.14110       -1.80320        2.07530
H          3.60470       -2.28930        2.85420
H         -0.00620        0.08180        2.04100
H          1.28060        0.69740        3.10310
H          1.46190       -0.57820        5.09010
H          1.51070       -2.75750        6.27870
H          1.09310       -4.87340        5.02470
H          0.58860       -4.78530        2.58350
H          0.51780       -2.59680        1.40250
