54

O         -0.14280        0.03390        0.17210
C          1.07730        0.06410        0.11490
N          1.85770        0.04610        1.29480
C          3.23840        0.13480        1.25180
N          3.92350        0.18700        0.15800
C          3.26530        0.18280       -1.05150
C          1.85490        0.12450       -1.12330
C          1.20120        0.12990       -2.36860
C          1.94530        0.18910       -3.53790
C          3.35200        0.24720       -3.47330
C          4.00680        0.24530       -2.25040
C          4.03810        0.12290        2.56210
H          3.44760        0.59740        3.35440
N          5.27740        0.84950        2.42880
C          5.28270        2.22950        2.19620
C          6.46220        2.81320        1.66450
C          6.49050        4.19380        1.47230
C          5.39610        5.00630        1.78470
C          4.22850        4.43740        2.30030
C          4.18390        3.04830        2.49710
C          3.02620        5.28300        2.63410
C          7.64120        1.94540        1.31390
C          4.34880       -1.32280        2.97030
C          1.10860       -0.05760        2.56060
C          0.84640        1.26750        3.24210
C          0.14640        2.28520        2.57450
C         -0.10880        3.49900        3.21290
C          0.32700        3.71380        4.52490
C          1.01800        2.70490        5.19760
C          1.27430        1.48880        4.55710
H          0.11080        0.08680       -2.37970
H          1.44420        0.19280       -4.50830
H          3.93310        0.29710       -4.39750
H          5.09450        0.29550       -2.17930
H          5.91180        0.36090        1.80520
H          7.39770        4.64730        1.06260
H          5.45160        6.08510        1.62040
H          3.26590        2.61340        2.89200
H          2.14560        4.97150        2.04950
H          3.21440        6.34730        2.43070
H          2.74550        5.17880        3.69450
H          8.48190        2.54850        0.94310
H          7.38510        1.21520        0.52360
H          7.99530        1.36640        2.18460
H          4.91600       -1.33010        3.91200
H          4.95410       -1.80830        2.18850
H          3.43410       -1.91990        3.09890
H          1.63780       -0.73840        3.23650
H          0.15270       -0.52290        2.28810
H         -0.21340        2.10860        1.55940
H         -0.65570        4.28330        2.68430
H          0.12810        4.66700        5.01990
H          1.36320        2.86290        6.22190
H          1.81310        0.70100        5.09110
