54
rmsd124.gzmat
O          0.00000        0.00000        0.00000
C          1.21130        0.00000        0.00000
N          1.89170        0.00000        1.25100
C          3.28220       -0.06010        1.30610
N          4.03800       -0.04200        0.23470
C          3.46090        0.00270       -1.02820
C          2.06240        0.00830       -1.18430
C          1.49650        0.03340       -2.46740
C          2.32100        0.05940       -3.57720
C          3.71910        0.06140       -3.42170
C          4.29500        0.03310       -2.16620
C          3.97510       -0.16100        2.67610
H          3.36780       -0.85610        3.32520
N          3.94380        1.19860        3.23880
C          4.07890        1.37260        4.63010
C          4.22090        2.69370        5.12320
C          4.24800        2.90050        6.49720
C          4.13510        1.83680        7.39230
C          3.99900        0.53870        6.90700
C          3.98220        0.30510        5.53050
C          3.87750       -0.61750        7.84240
C          4.32350        3.85570        4.19410
C          5.39220       -0.72380        2.54370
C          1.06730        0.09160        2.47160
C          0.95110       -1.22870        3.18340
C          1.14420       -1.28260        4.56530
C          1.04640       -2.50080        5.23320
C          0.74870       -3.66400        4.52460
C          0.53470       -3.60540        3.14840
C          0.63120       -2.38870        2.47760
H          0.40750        0.03390       -2.56860
H          1.89450        0.07940       -4.57770
H          4.35170        0.08530       -4.30980
H          5.37540        0.03240       -2.02900
H          4.45910        1.86880        2.66770
H          4.35640        3.91230        6.88780
H          4.15440        2.02600        8.46090
H          3.89720       -0.71880        5.17690
H          2.98100       -1.21650        7.62570
H          3.81170       -0.30750        8.89330
H          4.74610       -1.28750        7.75720
H          4.37680        4.81480        4.72780
H          3.44510        3.91530        3.53110
H          5.22190        3.79820        3.56300
H          5.88840       -0.77630        3.51930
H          6.01790       -0.11170        1.87800
H          5.38070       -1.73220        2.11010
H          0.03830        0.44840        2.19060
H          1.49190        0.88780        3.13430
H          1.37170       -0.37430        5.12530
H          1.20060       -2.54380        6.30910
H          0.67840       -4.61590        5.04500
H          0.28800       -4.51030        2.59650
H          0.45070       -2.34050        1.40310
