rmsd126.gzmat
 OpenBabel08211713403D

 54 57  0  0  1  0  0  0  0  0999 V2000
    0.0000    0.0000    0.0000 O   0  0  0  0  0  0  0  0  0  0  0  0
    1.2110    0.0000    0.0000 C   0  0  0  0  0  0  0  0  0  0  0  0
    1.8885    0.0000    1.2551 N   0  0  0  0  0  0  0  0  0  0  0  0
    3.2775   -0.0651    1.3125 C   0  0  0  0  0  0  0  0  0  0  0  0
    4.0351   -0.0570    0.2402 N   0  0  0  0  0  0  0  0  0  0  0  0
    3.4621   -0.0109   -1.0237 C   0  0  0  0  0  0  0  0  0  0  0  0
    2.0639    0.0077   -1.1819 C   0  0  2  0  0  0  0  0  0  0  0  0
    1.5010    0.0403   -2.4664 C   0  0  0  0  0  0  0  0  0  0  0  0
    2.3281    0.0588   -3.5744 C   0  0  0  0  0  0  0  0  0  0  0  0
    3.7258    0.0432   -3.4161 C   0  0  0  0  0  0  0  0  0  0  0  0
    4.2991    0.0082   -2.1597 C   0  0  0  0  0  0  0  0  0  0  0  0
    4.0018   -0.1384    2.6674 C   0  0  2  0  0  0  0  0  0  0  0  0
    3.2654   -0.2485    3.5084 H   0  0  0  0  0  0  0  0  0  0  0  0
    4.6892    1.1535    2.8183 N   0  0  0  0  0  0  0  0  0  0  0  0
    5.2509    1.4844    4.0640 C   0  0  0  0  0  0  0  0  0  0  0  0
    6.1822    2.5510    4.1198 C   0  0  0  0  0  0  0  0  0  0  0  0
    6.6758    2.9519    5.3561 C   0  0  0  0  0  0  0  0  0  0  0  0
    6.2724    2.3248    6.5337 C   0  0  0  0  0  0  0  0  0  0  0  0
    5.3553    1.2766    6.4787 C   0  0  0  0  0  0  0  0  0  0  0  0
    4.8474    0.8545    5.2503 C   0  0  0  0  0  0  0  0  0  0  0  0
    4.9086    0.6101    7.7375 C   0  0  0  0  0  0  0  0  0  0  0  0
    6.6250    3.2515    2.8795 C   0  0  0  0  0  0  0  0  0  0  0  0
    4.9427   -1.3489    2.6671 C   0  0  0  0  0  0  0  0  0  0  0  0
    1.0568    0.0583    2.4718 C   0  0  0  0  0  0  0  0  0  0  0  0
    1.0278   -1.2602    3.1974 C   0  0  0  0  0  0  0  0  0  0  0  0
    1.2557   -1.2973    4.5744 C   0  0  0  0  0  0  0  0  0  0  0  0
    1.2471   -2.5181    5.2451 C   0  0  0  0  0  0  0  0  0  0  0  0
    1.0037   -3.6989    4.5452 C   0  0  0  0  0  0  0  0  0  0  0  0
    0.7571   -3.6581    3.1738 C   0  0  0  0  0  0  0  0  0  0  0  0
    0.7621   -2.4390    2.5003 C   0  0  0  0  0  0  0  0  0  0  0  0
    0.4122    0.0520   -2.5701 H   0  0  0  0  0  0  0  0  0  0  0  0
    1.9040    0.0861   -4.5758 H   0  0  0  0  0  0  0  0  0  0  0  0
    4.3602    0.0587   -4.3034 H   0  0  0  0  0  0  0  0  0  0  0  0
    5.3790   -0.0074   -2.0205 H   0  0  0  0  0  0  0  0  0  0  0  0
    5.2625    1.3846    2.0029 H   0  0  0  0  0  0  0  0  0  0  0  0
    7.3920    3.7721    5.4095 H   0  0  0  0  0  0  0  0  0  0  0  0
    6.6716    2.6545    7.4872 H   0  0  0  0  0  0  0  0  0  0  0  0
    4.1363    0.0349    5.2291 H   0  0  0  0  0  0  0  0  0  0  0  0
    4.1393    1.2138    8.2427 H   0  0  0  0  0  0  0  0  0  0  0  0
    5.7372    0.4809    8.4477 H   0  0  0  0  0  0  0  0  0  0  0  0
    4.4790   -0.3845    7.5606 H   0  0  0  0  0  0  0  0  0  0  0  0
    7.3146    4.0802    3.0890 H   0  0  0  0  0  0  0  0  0  0  0  0
    5.7680    3.6858    2.3395 H   0  0  0  0  0  0  0  0  0  0  0  0
    7.1488    2.5719    2.1912 H   0  0  0  0  0  0  0  0  0  0  0  0
    5.5247   -1.3940    3.5960 H   0  0  0  0  0  0  0  0  0  0  0  0
    5.6564   -1.3084    1.8307 H   0  0  0  0  0  0  0  0  0  0  0  0
    4.3865   -2.2888    2.5733 H   0  0  0  0  0  0  0  0  0  0  0  0
    0.0057    0.3416    2.1833 H   0  0  0  0  0  0  0  0  0  0  0  0
    1.4204    0.8929    3.1193 H   0  0  0  0  0  0  0  0  0  0  0  0
    1.4374   -0.3778    5.1292 H   0  0  0  0  0  0  0  0  0  0  0  0
    1.4314   -2.5503    6.3173 H   0  0  0  0  0  0  0  0  0  0  0  0
    1.0027   -4.6520    5.0692 H   0  0  0  0  0  0  0  0  0  0  0  0
    0.5594   -4.5786    2.6271 H   0  0  0  0  0  0  0  0  0  0  0  0
    0.5558   -2.4044    1.4295 H   0  0  0  0  0  0  0  0  0  0  0  0
  2  1  2  0  0  0  0
  2  3  1  0  0  0  0
  3  4  1  0  0  0  0
  3 24  1  0  0  0  0
  4 12  1  0  0  0  0
  5  4  2  0  0  0  0
  6  5  2  0  0  0  0
  7  8  1  1  0  0  0
  7  6  1  0  0  0  0
  7  2  1  0  0  0  0
  9 10  1  0  0  0  0
  9  8  2  0  0  0  0
 10 11  2  0  0  0  0
 11 34  1  0  0  0  0
 11  6  1  0  0  0  0
 12 14  1  0  0  0  0
 12 13  1  1  0  0  0
 14 15  1  0  0  0  0
 15 16  2  0  0  0  0
 15 20  1  0  0  0  0
 16 17  1  0  0  0  0
 17 36  1  0  0  0  0
 17 18  2  0  0  0  0
 18 37  1  0  0  0  0
 19 18  1  0  0  0  0
 19 21  1  0  0  0  0
 20 19  2  0  0  0  0
 21 39  1  0  0  0  0
 21 40  1  0  0  0  0
 22 42  1  0  0  0  0
 22 16  1  0  0  0  0
 23 12  1  0  0  0  0
 23 45  1  0  0  0  0
 24 49  1  0  0  0  0
 24 25  1  0  0  0  0
 25 26  2  0  0  0  0
 26 50  1  0  0  0  0
 26 27  1  0  0  0  0
 27 51  1  0  0  0  0
 28 52  1  0  0  0  0
 28 27  2  0  0  0  0
 29 28  1  0  0  0  0
 30 29  2  0  0  0  0
 30 25  1  0  0  0  0
 31  8  1  0  0  0  0
 32  9  1  0  0  0  0
 33 10  1  0  0  0  0
 35 14  1  0  0  0  0
 38 20  1  0  0  0  0
 41 21  1  0  0  0  0
 43 22  1  0  0  0  0
 44 22  1  0  0  0  0
 46 23  1  0  0  0  0
 47 23  1  0  0  0  0
 48 24  1  0  0  0  0
 53 29  1  0  0  0  0
 54 30  1  0  0  0  0
M  RAD  1   7   2
M  END
$$$$
