54
rmsd98.gzmat
O          0.00000        0.00000        0.00000
C          1.21080        0.00000        0.00000
N          1.88820        0.00000        1.25610
C          3.27830        0.02270        1.31740
N          4.03490       -0.02240        0.24640
C          3.46380       -0.02770       -1.01910
C          2.06580       -0.00950       -1.18050
C          1.50540        0.00370       -2.46630
C          2.33480       -0.00470       -3.57290
C          3.73200       -0.02720       -3.41150
C          4.30320       -0.03960       -2.15340
C          3.99500        0.07780        2.68450
H          3.34910        0.61870        3.42870
N          5.28850        0.76840        2.59950
C          5.23130        2.18960        2.52090
C          5.92010        2.89030        1.50980
C          5.90360        4.28430        1.52650
C          5.23980        4.98400        2.52920
C          4.58030        4.28770        3.54360
C          4.56640        2.89500        3.53300
C          3.91270        5.03950        4.64600
C          6.65720        2.17630        0.42850
C          4.23850       -1.36800        3.13700
C          1.05560        0.05170        2.47070
C          0.98850        1.43370        3.06380
C          1.13430        1.59630        4.44270
C          1.02380        2.86570        5.00530
C          0.77510        3.97130        4.19320
C          0.64270        3.80860        2.81530
C          0.73930        2.53900        2.25100
H          0.41700        0.02080       -2.57200
H          1.91310        0.00580       -4.57530
H          4.36820       -0.03320       -4.29710
H          5.38260       -0.05780       -2.01420
H          5.88780        0.34270        1.88430
H          6.41630        4.83670        0.73990
H          5.23860        6.06960        2.52490
H          4.05310        2.35390        4.32410
H          3.27850        5.84870        4.25890
H          4.65840        5.49630        5.31320
H          3.27390        4.39620        5.26610
H          6.99090        2.85210       -0.36930
H          6.02520        1.41030       -0.05510
H          7.55330        1.67250        0.81840
H          4.78570       -1.38180        4.09030
H          4.84970       -1.92140        2.41060
H          3.30300       -1.91830        3.27140
H          1.42690       -0.70170        3.20270
H          0.01030       -0.27730        2.20670
H          1.32380        0.73810        5.08360
H          1.13050        2.99300        6.08020
H          0.68430        4.96130        4.63440
H          0.46160        4.67260        2.17750
H          0.61180        2.41010        1.17560
