54
rmsd202.gzmat
O          0.00000        0.00000        0.00000
C          1.21120        0.00000        0.00000
N          1.88780        0.00000        1.25610
C          3.27760        0.04860        1.31650
N          4.03560        0.00300        0.24710
C          3.46430       -0.02480       -1.01810
C          2.06630       -0.01510       -1.18000
C          1.50650       -0.02340       -2.46640
C          2.33630       -0.04710       -3.57260
C          3.73360       -0.06320       -3.41040
C          4.30410       -0.05240       -2.15210
C          3.99390        0.15050        2.67960
H          3.33250        0.68050        3.41770
N          5.25610        0.89560        2.57920
C          5.14780        2.28590        2.29430
C          5.96720        2.87770        1.30920
C          5.91960        4.25880        1.13280
C          5.07370        5.05280        1.90130
C          4.26060        4.46530        2.87080
C          4.29510        3.08570        3.06580
C          3.34460        5.31630        3.68410
C          6.86120        2.05700        0.44220
C          4.29990       -1.27480        3.15750
C          1.05410       -0.01780        2.47100
C          0.88040        1.34940        3.07650
C          0.41020        2.40680        2.29740
C          0.20240        3.65670        2.87540
C          0.45710        3.85010        4.23230
C          0.93110        2.79430        5.00920
C          1.14260        1.54330        4.43370
H          0.41820       -0.01270       -2.57230
H          1.91440       -0.05410       -4.57520
H          4.37130       -0.08390       -4.29490
H          5.38320       -0.06360       -2.01120
H          5.92320        0.40810        1.97200
H          6.54850        4.72590        0.37610
H          5.04420        6.12640        1.74260
H          3.66410        2.63600        3.82860
H          2.40800        5.50330        3.13470
H          3.78790        6.29270        3.91910
H          3.07060        4.84310        4.63680
H          7.32850        2.64850       -0.35560
H          6.29740        1.24790       -0.05620
H          7.67610        1.59760        1.01860
H          4.89710       -1.24870        4.08040
H          4.88300       -1.83500        2.41340
H          3.38780       -1.84330        3.36090
H          1.48010       -0.74670        3.19790
H          0.03720       -0.42320        2.20270
H          0.19530        2.25120        1.23840
H         -0.16530        4.48050        2.26570
H          0.28400        4.82320        4.68620
H          1.13290        2.94510        6.06750
H          1.50100        0.72230        5.05060
