54
rmsd125.gzmat
O          0.00000        0.00000        0.00000
C          1.21110        0.00000        0.00000
N          1.89150        0.00000        1.25150
C          3.28250       -0.04240        1.30800
N          4.03770       -0.01860        0.23610
C          3.46080        0.00880       -1.02710
C          2.06250        0.00520       -1.18430
C          1.49830        0.01200       -2.46850
C          2.32430        0.02630       -3.57770
C          3.72220        0.03710       -3.42070
C          4.29630        0.02880       -2.16430
C          3.98060       -0.13520        2.67590
H          3.39420       -0.85030        3.32260
N          3.92390        1.21800        3.25400
C          4.10200        1.37580        4.64330
C          4.34350        2.67820        5.14630
C          4.40350        2.86890        6.52200
C          4.23580        1.80610        7.40880
C          4.00800        0.52450        6.91400
C          3.94910        0.30830        5.53630
C          3.81910       -0.62860        7.84210
C          4.52170        3.84060        4.22930
C          5.41080       -0.66200        2.53230
C          1.06690        0.05090        2.47380
C          1.01690       -1.27450        3.18450
C          1.13920       -1.30870        4.57510
C          1.10910       -2.52910        5.24540
C          0.95600       -3.71580        4.53030
C          0.81460       -3.67940        3.14410
C          0.83750       -2.46010        2.47150
H          0.40940        0.00730       -2.57100
H          1.89970        0.03070       -4.57930
H          4.35580        0.05240       -4.30820
H          5.37640        0.03540       -2.02560
H          4.41320        1.90360        2.67730
H          4.58460        3.86710        6.92040
H          4.28580        1.98320        8.47810
H          3.78370       -0.70270        5.17250
H          2.77760       -0.98320        7.82070
H          4.05170       -0.37590        8.88490
H          4.45920       -1.47880        7.56590
H          4.69550        4.77900        4.77360
H          3.62530        3.99980        3.60910
H          5.38110        3.70600        3.55720
H          5.91090       -0.71570        3.50590
H          6.01820       -0.02570        1.87240
H          5.42190       -1.66450        2.08560
H          0.02110        0.35970        2.19790
H          1.45760        0.86500        3.13630
H          1.26120       -0.38400        5.14040
H          1.20470       -2.55590        6.32830
H          0.94060       -4.66890        5.05280
H          0.68170       -4.60390        2.58540
H          0.70840       -2.43280        1.38940
