54
rmsd126.gzmat
O          0.00000        0.00000        0.00000
C          1.21100        0.00000        0.00000
N          1.88850        0.00000        1.25510
C          3.27750       -0.06510        1.31250
N          4.03510       -0.05700        0.24020
C          3.46210       -0.01090       -1.02370
C          2.06390        0.00770       -1.18190
C          1.50100        0.04030       -2.46640
C          2.32810        0.05880       -3.57440
C          3.72580        0.04320       -3.41610
C          4.29910        0.00820       -2.15970
C          4.00180       -0.13840        2.66740
H          3.26540       -0.24850        3.50840
N          4.68920        1.15350        2.81830
C          5.25090        1.48440        4.06400
C          6.18220        2.55100        4.11980
C          6.67580        2.95190        5.35610
C          6.27240        2.32480        6.53370
C          5.35530        1.27660        6.47870
C          4.84740        0.85450        5.25030
C          4.90860        0.61010        7.73750
C          6.62500        3.25150        2.87950
C          4.94270       -1.34890        2.66710
C          1.05680        0.05830        2.47180
C          1.02780       -1.26020        3.19740
C          1.25570       -1.29730        4.57440
C          1.24710       -2.51810        5.24510
C          1.00370       -3.69890        4.54520
C          0.75710       -3.65810        3.17380
C          0.76210       -2.43900        2.50030
H          0.41220        0.05200       -2.57010
H          1.90400        0.08610       -4.57580
H          4.36020        0.05870       -4.30340
H          5.37900       -0.00740       -2.02050
H          5.26250        1.38460        2.00290
H          7.39200        3.77210        5.40950
H          6.67160        2.65450        7.48720
H          4.13630        0.03490        5.22910
H          4.13930        1.21380        8.24270
H          5.73720        0.48090        8.44770
H          4.47900       -0.38450        7.56060
H          7.31460        4.08020        3.08900
H          5.76800        3.68580        2.33950
H          7.14880        2.57190        2.19120
H          5.52470       -1.39400        3.59600
H          5.65640       -1.30840        1.83070
H          4.38650       -2.28880        2.57330
H          0.00570        0.34160        2.18330
H          1.42040        0.89290        3.11930
H          1.43740       -0.37780        5.12920
H          1.43140       -2.55030        6.31730
H          1.00270       -4.65200        5.06920
H          0.55940       -4.57860        2.62710
H          0.55580       -2.40440        1.42950
