54
rmsd40.gzmat
O          0.00000        0.00000        0.00000
C          1.21110        0.00000        0.00000
N          1.88800        0.00000        1.25600
C          3.27800       -0.06400        1.31350
N          4.03520       -0.06160        0.24090
C          3.46230       -0.01490       -1.02300
C          2.06410        0.00550       -1.18150
C          1.50080        0.03140       -2.46620
C          2.32770        0.04200       -3.57450
C          3.72540        0.02820       -3.41600
C          4.29900       -0.00020       -2.15940
C          3.99370       -0.16870        2.67040
H          3.27040       -0.00020        3.51410
N          4.98790        0.91080        2.71610
C          5.63990        1.18800        3.92650
C          6.76330        2.05420        3.90320
C          7.35250        2.42610        5.10490
C          6.86670        1.95920        6.32660
C          5.77020        1.10170        6.34900
C          5.15990        0.71280        5.15550
C          5.23040        0.59250        7.64440
C          7.30490        2.57710        2.61550
C          4.59080       -1.57820        2.77640
C          1.05300        0.01010        2.47240
C          1.08400       -1.31790        3.18000
C          1.38560       -1.37780        4.54140
C          1.44100       -2.61210        5.18500
C          1.18390       -3.78350        4.47470
C          0.85660       -3.72010        3.12100
C          0.80350       -2.48850        2.47340
H          0.41220        0.04470       -2.57020
H          1.90350        0.06210       -4.57600
H          4.35940        0.04060       -4.30350
H          5.37900       -0.01260       -2.02070
H          5.55860        0.96340        1.86980
H          8.21210        3.09650        5.09890
H          7.34470        2.26690        7.25070
H          4.31080        0.03920        5.19900
H          4.29680        1.11140        7.90860
H          5.92940        0.74070        8.47800
H          5.00680       -0.48240        7.59850
H          8.15690        3.25430        2.76370
H          6.54030        3.14880        2.06450
H          7.65600        1.76580        1.96070
H          5.18980       -1.68580        3.68960
H          5.24850       -1.80590        1.92640
H          3.80490       -2.34320        2.80320
H         -0.00890        0.24970        2.18450
H          1.37550        0.85290        3.12880
H          1.57690       -0.46740        5.10730
H          1.68620       -2.66240        6.24420
H          1.23300       -4.74720        4.97690
H          0.63920       -4.63340        2.56950
H          0.54010       -2.43690        1.41590
