42

S          0.51710        0.16890       -0.12950
O          1.88140       -0.23750        0.19740
O         -0.01410        0.13670       -1.48900
N          0.34350        1.80130        0.38030
C          0.62300        2.05940        1.74040
C          1.91350        2.07890        2.21860
C          2.16680        2.25380        3.60740
O          3.47610        2.25770        3.94560
C          3.82930        2.42330        5.29950
C          1.11890        2.40150        4.50410
C         -0.22020        2.37400        4.03040
C         -1.35660        2.45300        4.87850
C         -2.61930        2.35170        4.34060
C         -2.77920        2.19290        2.93290
N         -1.73720        2.14370        2.12520
C         -0.48610        2.21400        2.63920
C         -4.15170        2.05460        2.33310
C         -0.61820       -0.67800        0.95860
C         -1.94790       -0.82480        0.56190
C         -2.88750       -1.26240        1.49350
C         -2.52090       -1.52760        2.82230
C         -3.55500       -1.90030        3.85180
C         -1.16960       -1.40100        3.18340
C         -0.21280       -0.98290        2.26070
H         -0.62450        2.06780        0.17460
H          2.75280        1.93050        1.54100
H          4.92580        2.39860        5.34340
H          3.42460        1.61000        5.92840
H          3.47330        3.39030        5.69820
H          1.29260        2.52500        5.57250
H         -1.21540        2.57960        5.95540
H         -3.50380        2.39570        4.98030
H         -4.08280        2.06370        1.23800
H         -4.61350        1.10190        2.64330
H         -4.82030        2.86580        2.66310
H         -2.23220       -0.58180       -0.46300
H         -3.93060       -1.38050        1.18950
H         -3.18010       -2.66990        4.54370
H         -4.47770       -2.27460        3.38500
H         -3.82280       -1.01940        4.46150
H         -0.86370       -1.62230        4.20910
H          0.83500       -0.87400        2.54200
