rmsd98.gzmat
 OpenBabel08211713403D

 42 44  0  0  1  0  0  0  0  0999 V2000
    0.0000    0.0000    0.0000 S   0  0  0  0  0  0  0  0  0  0  0  0
    1.4427    0.0000    0.0000 O   0  0  0  0  0  0  0  0  0  0  0  0
   -0.7668    0.0000   -1.2153 O   0  0  0  0  0  0  0  0  0  0  0  0
   -0.3991    1.4417    0.9114 N   0  0  0  0  0  0  0  0  0  0  0  0
   -1.6492    2.0137    1.0597 C   0  0  0  0  0  0  0  0  0  0  0  0
   -2.7538    1.6603    0.3084 C   0  0  0  0  0  0  0  0  0  0  0  0
   -4.0092    2.2583    0.5825 C   0  0  0  0  0  0  0  0  0  0  0  0
   -4.9806    1.7649   -0.2279 O   0  0  0  0  0  0  0  0  0  0  0  0
   -6.2801    2.3251   -0.0976 C   0  0  0  0  0  0  0  0  0  0  0  0
   -4.1917    3.2132    1.5584 C   0  0  0  0  0  0  0  0  0  0  0  0
   -3.0689    3.6183    2.3164 C   0  0  1  0  0  0  0  0  0  0  0  0
   -3.1581    4.6138    3.3327 C   0  0  0  0  0  0  0  0  0  0  0  0
   -2.0409    4.9707    4.0379 C   0  0  0  0  0  0  0  0  0  0  0  0
   -0.7978    4.3304    3.7374 C   0  0  0  0  0  0  0  0  0  0  0  0
   -0.6891    3.4042    2.7984 N   0  0  0  0  0  0  0  0  0  0  0  0
   -1.8015    3.0382    2.0862 C   0  0  0  0  0  0  0  0  0  0  0  0
    0.4356    4.7066    4.4916 C   0  0  0  0  0  0  0  0  0  0  0  0
   -0.5713   -1.2829    1.0448 C   0  0  0  0  0  0  0  0  0  0  0  0
   -1.9313   -1.5866    1.1120 C   0  0  0  0  0  0  0  0  0  0  0  0
   -2.3808   -2.5912    1.9630 C   0  0  0  0  0  0  0  0  0  0  0  0
   -1.4703   -3.3082    2.7462 C   0  0  0  0  0  0  0  0  0  0  0  0
   -1.9574   -4.3854    3.6512 C   0  0  0  0  0  0  0  0  0  0  0  0
   -0.1066   -3.0123    2.6643 C   0  0  0  0  0  0  0  0  0  0  0  0
    0.3402   -2.0015    1.8178 C   0  0  0  0  0  0  0  0  0  0  0  0
    0.3606    1.9048    1.4302 H   0  0  0  0  0  0  0  0  0  0  0  0
   -2.6982    0.9715   -0.5389 H   0  0  0  0  0  0  0  0  0  0  0  0
   -6.8492    1.7716   -0.8561 H   0  0  0  0  0  0  0  0  0  0  0  0
   -6.2683    3.3947   -0.3317 H   0  0  0  0  0  0  0  0  0  0  0  0
   -6.6879    2.1392    0.9006 H   0  0  0  0  0  0  0  0  0  0  0  0
   -5.1531    3.6644    1.7596 H   0  0  0  0  0  0  0  0  0  0  0  0
   -4.1246    5.0771    3.5276 H   0  0  0  0  0  0  0  0  0  0  0  0
   -2.0729    5.7267    4.8174 H   0  0  0  0  0  0  0  0  0  0  0  0
    1.2900    4.0613    4.2289 H   0  0  0  0  0  0  0  0  0  0  0  0
    0.7333    5.7416    4.2682 H   0  0  0  0  0  0  0  0  0  0  0  0
    0.2848    4.6220    5.5765 H   0  0  0  0  0  0  0  0  0  0  0  0
   -2.6649   -1.0432    0.5036 H   0  0  0  0  0  0  0  0  0  0  0  0
   -3.4428   -2.8187    2.0197 H   0  0  0  0  0  0  0  0  0  0  0  0
   -2.2185   -5.2905    3.0800 H   0  0  0  0  0  0  0  0  0  0  0  0
   -2.8603   -4.0827    4.2023 H   0  0  0  0  0  0  0  0  0  0  0  0
   -1.2124   -4.6843    4.4017 H   0  0  0  0  0  0  0  0  0  0  0  0
    0.6073   -3.5699    3.2655 H   0  0  0  0  0  0  0  0  0  0  0  0
    1.4146   -1.7838    1.7709 H   0  0  0  0  0  0  0  0  0  0  0  0
  1  2  2  0  0  0  0
  1  4  1  0  0  0  0
  1 18  1  0  0  0  0
  3  1  2  0  0  0  0
  4  5  1  0  0  0  0
  4 25  1  0  0  0  0
  5 16  1  0  0  0  0
  6  7  1  0  0  0  0
  6  5  2  0  0  0  0
  7 10  2  0  0  0  0
  8  9  1  0  0  0  0
  8  7  1  0  0  0  0
  9 29  1  0  0  0  0
 10 30  1  0  0  0  0
 11 10  1  1  0  0  0
 11 12  1  0  0  0  0
 12 31  1  0  0  0  0
 12 13  2  0  0  0  0
 13 32  1  0  0  0  0
 14 13  1  0  0  0  0
 14 17  1  0  0  0  0
 15 14  2  0  0  0  0
 16 11  1  0  0  0  0
 16 15  2  0  0  0  0
 17 35  1  0  0  0  0
 18 19  2  0  0  0  0
 18 24  1  0  0  0  0
 19 20  1  0  0  0  0
 20 37  1  0  0  0  0
 20 21  2  0  0  0  0
 21 22  1  0  0  0  0
 22 39  1  0  0  0  0
 22 40  1  0  0  0  0
 23 21  1  0  0  0  0
 23 41  1  0  0  0  0
 24 23  2  0  0  0  0
 26  6  1  0  0  0  0
 27  9  1  0  0  0  0
 28  9  1  0  0  0  0
 33 17  1  0  0  0  0
 34 17  1  0  0  0  0
 36 19  1  0  0  0  0
 38 22  1  0  0  0  0
 42 24  1  0  0  0  0
M  RAD  1  11   2
M  END
$$$$
