rmsd118.gzmat
 OpenBabel08211713403D

 42 44  0  0  1  0  0  0  0  0999 V2000
    0.0000    0.0000    0.0000 S   0  0  0  0  0  0  0  0  0  0  0  0
    1.4429    0.0000    0.0000 O   0  0  0  0  0  0  0  0  0  0  0  0
   -0.7672    0.0000   -1.2155 O   0  0  0  0  0  0  0  0  0  0  0  0
   -0.3949    1.4454    0.9074 N   0  0  0  0  0  0  0  0  0  0  0  0
   -1.6214    2.0801    0.9795 C   0  0  0  0  0  0  0  0  0  0  0  0
   -2.7449    1.6745    0.2851 C   0  0  0  0  0  0  0  0  0  0  0  0
   -3.9812    2.3326    0.5034 C   0  0  0  0  0  0  0  0  0  0  0  0
   -4.9752    1.7722   -0.2324 O   0  0  0  0  0  0  0  0  0  0  0  0
   -6.2603    2.3732   -0.1518 C   0  0  0  0  0  0  0  0  0  0  0  0
   -4.1253    3.3986    1.3637 C   0  0  0  0  0  0  0  0  0  0  0  0
   -2.9793    3.8651    2.0478 C   0  0  2  0  0  0  0  0  0  0  0  0
   -3.0255    4.9842    2.9292 C   0  0  0  0  0  0  0  0  0  0  0  0
   -1.8855    5.4037    3.5595 C   0  0  0  0  0  0  0  0  0  0  0  0
   -0.6623    4.7025    3.3189 C   0  0  0  0  0  0  0  0  0  0  0  0
   -0.5945    3.6575    2.5098 N   0  0  0  0  0  0  0  0  0  0  0  0
   -1.7299    3.2283    1.8727 C   0  0  0  0  0  0  0  0  0  0  0  0
    0.5955    5.1505    3.9884 C   0  0  0  0  0  0  0  0  0  0  0  0
   -0.5732   -1.2893    1.0352 C   0  0  0  0  0  0  0  0  0  0  0  0
   -1.9226   -1.6433    1.0377 C   0  0  0  0  0  0  0  0  0  0  0  0
   -2.3723   -2.6732    1.8579 C   0  0  0  0  0  0  0  0  0  0  0  0
   -1.4722   -3.3674    2.6727 C   0  0  0  0  0  0  0  0  0  0  0  0
   -1.9601   -4.4727    3.5429 C   0  0  0  0  0  0  0  0  0  0  0  0
   -0.1203   -3.0119    2.6658 C   0  0  0  0  0  0  0  0  0  0  0  0
    0.3258   -1.9747    1.8512 C   0  0  0  0  0  0  0  0  0  0  0  0
    0.3800    1.9377    1.3760 H   0  0  0  0  0  0  0  0  0  0  0  0
   -2.7220    0.8920   -0.4765 H   0  0  0  0  0  0  0  0  0  0  0  0
   -6.8495    1.7565   -0.8433 H   0  0  0  0  0  0  0  0  0  0  0  0
   -6.2280    3.4118   -0.4973 H   0  0  0  0  0  0  0  0  0  0  0  0
   -6.6609    2.3019    0.8642 H   0  0  0  0  0  0  0  0  0  0  0  0
   -5.0734    3.8911    1.5274 H   0  0  0  0  0  0  0  0  0  0  0  0
   -3.9776    5.4907    3.0823 H   0  0  0  0  0  0  0  0  0  0  0  0
   -1.8842    6.2546    4.2349 H   0  0  0  0  0  0  0  0  0  0  0  0
    1.4450    4.4893    3.7506 H   0  0  0  0  0  0  0  0  0  0  0  0
    0.8762    6.1642    3.6668 H   0  0  0  0  0  0  0  0  0  0  0  0
    0.4861    5.1585    5.0817 H   0  0  0  0  0  0  0  0  0  0  0  0
   -2.6460   -1.1249    0.3967 H   0  0  0  0  0  0  0  0  0  0  0  0
   -3.4269   -2.9387    1.8648 H   0  0  0  0  0  0  0  0  0  0  0  0
   -2.6491   -5.1434    3.0080 H   0  0  0  0  0  0  0  0  0  0  0  0
   -2.5090   -4.0775    4.4124 H   0  0  0  0  0  0  0  0  0  0  0  0
   -1.1474   -5.0992    3.9361 H   0  0  0  0  0  0  0  0  0  0  0  0
    0.5855   -3.5467    3.2968 H   0  0  0  0  0  0  0  0  0  0  0  0
    1.3913   -1.7132    1.8595 H   0  0  0  0  0  0  0  0  0  0  0  0
  1  2  2  0  0  0  0
  1  4  1  0  0  0  0
  1 18  1  0  0  0  0
  3  1  2  0  0  0  0
  4  5  1  0  0  0  0
  4 25  1  0  0  0  0
  5 16  1  0  0  0  0
  6  7  1  0  0  0  0
  6  5  2  0  0  0  0
  7 10  2  0  0  0  0
  8  9  1  0  0  0  0
  8  7  1  0  0  0  0
  9 29  1  0  0  0  0
 10 30  1  0  0  0  0
 11 10  1  6  0  0  0
 11 12  1  0  0  0  0
 12 31  1  0  0  0  0
 12 13  2  0  0  0  0
 13 32  1  0  0  0  0
 14 13  1  0  0  0  0
 14 17  1  0  0  0  0
 15 14  2  0  0  0  0
 16 11  1  0  0  0  0
 16 15  2  0  0  0  0
 17 35  1  0  0  0  0
 18 19  2  0  0  0  0
 18 24  1  0  0  0  0
 19 20  1  0  0  0  0
 20 37  1  0  0  0  0
 20 21  2  0  0  0  0
 21 22  1  0  0  0  0
 22 40  1  0  0  0  0
 22 39  1  0  0  0  0
 23 21  1  0  0  0  0
 23 41  1  0  0  0  0
 24 42  1  0  0  0  0
 24 23  2  0  0  0  0
 26  6  1  0  0  0  0
 27  9  1  0  0  0  0
 28  9  1  0  0  0  0
 33 17  1  0  0  0  0
 34 17  1  0  0  0  0
 36 19  1  0  0  0  0
 38 22  1  0  0  0  0
M  RAD  1  11   2
M  END
$$$$
