42

S         -0.10940        0.19130       -0.59730
O          1.32810        0.12700       -0.84370
O         -1.10190       -0.20710       -1.59200
N         -0.42320        1.83550       -0.20520
C         -1.72640        2.12550        0.25510
C         -2.80250        2.15570       -0.60260
C         -4.11850        2.36300       -0.10380
O         -5.08470        2.37440       -1.04990
C         -6.42280        2.57060       -0.65430
C         -4.34110        2.53230        1.25480
C         -3.24400        2.49450        2.15650
C         -3.38050        2.59470        3.56660
C         -2.26920        2.48190        4.37060
C         -0.98520        2.28940        3.78190
N         -0.83390        2.22020        2.47310
C         -1.91920        2.30170        1.66710
C          0.23490        2.13680        4.64830
C         -0.47220       -0.62950        0.94700
C         -1.80240       -0.90360        1.27540
C         -2.10730       -1.29910        2.57630
C         -1.10330       -1.43320        3.54910
C         -1.45800       -1.77930        4.97130
C          0.22920       -1.19960        3.17410
C          0.55090       -0.78510        1.88310
H          0.25830        2.09690        0.51430
H         -2.65960        1.99120       -1.66940
H         -7.02780        2.54590       -1.56980
H         -6.56120        3.54680       -0.15570
H         -6.76720        1.77230        0.02740
H         -5.34270        2.68100        1.65680
H         -4.37240        2.74690        4.00070
H         -2.35840        2.54200        5.45780
H          1.13730        2.13020        4.02410
H          0.30940        2.94970        5.38840
H          0.19380        1.18650        5.20710
H         -2.58180       -0.78860        0.52170
H         -3.14790       -1.49630        2.84620
H         -2.27370       -2.51670        5.01850
H         -1.80330       -0.87880        5.50930
H         -0.59420       -2.18290        5.51960
H          1.02540       -1.32440        3.91230
H          1.58020       -0.56650        1.59480
