42
rmsd103.gzmat
S          0.00000        0.00000        0.00000
O          1.44270        0.00000        0.00000
O         -0.76750        0.00000       -1.21460
N         -0.39650        1.44450        0.90860
C         -1.64160        2.02830        1.05000
C         -2.75340        1.66440        0.31440
C         -4.00760        2.26250        0.59540
O         -4.98490        1.75830       -0.20030
C         -6.28810        2.30630       -0.05460
C         -4.18250        3.22460        1.56560
C         -3.05100        3.64660        2.30070
C         -3.13220        4.65220        3.30750
C         -2.00520        5.03220        3.98460
C         -0.75960        4.40840        3.66180
N         -0.65990        3.46640        2.73760
C         -1.78290        3.07370        2.05720
C          0.48610        4.82000        4.37580
C         -0.56930       -1.28590        1.04240
C         -1.93280       -1.55590        1.15040
C         -2.38060       -2.56640        1.99690
C         -1.46470       -3.32400        2.73110
C         -1.93120       -4.40270        3.64510
C         -0.09570       -3.06290        2.60670
C          0.34890       -2.04580        1.76830
H          0.36900        1.91630        1.41090
H         -2.70560        0.96590       -0.52550
H         -6.85150        1.77460       -0.83280
H         -6.28650        3.38360       -0.25150
H         -6.69420        2.08230        0.93670
H         -5.14450        3.66910        1.77780
H         -4.10090        5.10310        3.51920
H         -2.03110        5.79430        4.75810
H          1.35440        4.21490        4.06730
H          0.73460        5.87050        4.16550
H          0.38070        4.70650        5.46360
H         -2.67220       -0.98360        0.57680
H         -3.44670       -2.76190        2.08540
H         -1.46940       -5.37090        3.39790
H         -3.01930       -4.55130        3.61560
H         -1.66880       -4.18010        4.69130
H          0.62130       -3.65610        3.16900
H          1.42650       -1.85530        1.68810
