42
rmsd174.gzmat
S          0.00000        0.00000        0.00000
O          1.43760        0.00000        0.00000
O         -0.77130        0.00000       -1.21910
N         -0.56090        1.44410        0.81500
C         -0.03310        2.01510        1.95790
C          1.15170        1.61510        2.54520
C          1.56750        2.21190        3.76210
O          2.73230        1.67080        4.20220
C          3.28900        2.20590        5.39480
C          0.85660        3.20800        4.39460
C         -0.33930        3.66230        3.79150
C         -1.13020        4.70280        4.36000
C         -2.27680        5.10940        3.73250
C         -2.66040        4.47590        2.50950
N         -1.94590        3.50470        1.96400
C         -0.79660        3.08890        2.58380
C         -3.89930        4.90990        1.79680
C         -0.56810       -1.28740        1.03950
C         -1.81300       -1.87090        0.80200
C         -2.26330       -2.90780        1.61330
C         -1.47100       -3.36800        2.67040
C         -1.94720       -4.49510        3.51890
C         -0.22780       -2.77600        2.90970
C          0.22290       -1.74150        2.09410
H         -1.36570        1.94070        0.40660
H          1.82290        0.88520        2.08740
H          4.22210        1.63500        5.49190
H          2.63130        2.01620        6.24860
H          3.50360        3.27380        5.28430
H          1.18010        3.65490        5.32400
H         -0.80120        5.15960        5.29260
H         -2.90130        5.90040        4.13810
H         -4.17100        4.21220        0.98680
H         -4.75960        4.97210        2.47670
H         -3.75920        5.89820        1.33370
H         -2.44690       -1.52900       -0.02500
H         -3.23230       -3.36270        1.42440
H         -1.80690       -5.45920        3.00350
H         -3.01790       -4.41260        3.75700
H         -1.41300       -4.56530        4.47660
H          0.39180       -3.12350        3.73290
H          1.20630       -1.29860        2.29550
