
     RDKit          3D

 42 44  0  0  0  0  0  0  0  0999 V2000
    0.5171    0.1689   -0.1295 S   0  0  0  0  0  0  0  0  0  0  0  0
    1.8814   -0.2375    0.1974 O   0  0  0  0  0  0  0  0  0  0  0  0
   -0.0141    0.1367   -1.4890 O   0  0  0  0  0  0  0  0  0  0  0  0
    0.3435    1.8013    0.3803 N   0  0  0  0  0  0  0  0  0  0  0  0
    0.6230    2.0594    1.7404 C   0  0  0  0  0  0  0  0  0  0  0  0
    1.9135    2.0789    2.2186 C   0  0  0  0  0  0  0  0  0  0  0  0
    2.1668    2.2538    3.6074 C   0  0  0  0  0  0  0  0  0  0  0  0
    3.4761    2.2577    3.9456 O   0  0  0  0  0  0  0  0  0  0  0  0
    3.8293    2.4233    5.2995 C   0  0  0  0  0  0  0  0  0  0  0  0
    1.1189    2.4015    4.5041 C   0  0  0  0  0  0  0  0  0  0  0  0
   -0.2202    2.3740    4.0304 C   0  0  0  0  0  0  0  0  0  0  0  0
   -1.3566    2.4530    4.8785 C   0  0  0  0  0  0  0  0  0  0  0  0
   -2.6193    2.3517    4.3406 C   0  0  0  0  0  0  0  0  0  0  0  0
   -2.7792    2.1929    2.9329 C   0  0  0  0  0  0  0  0  0  0  0  0
   -1.7372    2.1437    2.1252 N   0  0  0  0  0  0  0  0  0  0  0  0
   -0.4861    2.2140    2.6392 C   0  0  0  0  0  0  0  0  0  0  0  0
   -4.1517    2.0546    2.3331 C   0  0  0  0  0  0  0  0  0  0  0  0
   -0.6182   -0.6780    0.9586 C   0  0  0  0  0  0  0  0  0  0  0  0
   -1.9479   -0.8248    0.5619 C   0  0  0  0  0  0  0  0  0  0  0  0
   -2.8875   -1.2624    1.4935 C   0  0  0  0  0  0  0  0  0  0  0  0
   -2.5209   -1.5276    2.8223 C   0  0  0  0  0  0  0  0  0  0  0  0
   -3.5550   -1.9003    3.8518 C   0  0  0  0  0  0  0  0  0  0  0  0
   -1.1696   -1.4010    3.1834 C   0  0  0  0  0  0  0  0  0  0  0  0
   -0.2128   -0.9829    2.2607 C   0  0  0  0  0  0  0  0  0  0  0  0
   -0.6245    2.0678    0.1746 H   0  0  0  0  0  0  0  0  0  0  0  0
    2.7528    1.9305    1.5410 H   0  0  0  0  0  0  0  0  0  0  0  0
    4.9258    2.3986    5.3434 H   0  0  0  0  0  0  0  0  0  0  0  0
    3.4246    1.6100    5.9284 H   0  0  0  0  0  0  0  0  0  0  0  0
    3.4733    3.3903    5.6982 H   0  0  0  0  0  0  0  0  0  0  0  0
    1.2926    2.5250    5.5725 H   0  0  0  0  0  0  0  0  0  0  0  0
   -1.2154    2.5796    5.9554 H   0  0  0  0  0  0  0  0  0  0  0  0
   -3.5038    2.3957    4.9803 H   0  0  0  0  0  0  0  0  0  0  0  0
   -4.0828    2.0637    1.2380 H   0  0  0  0  0  0  0  0  0  0  0  0
   -4.6135    1.1019    2.6433 H   0  0  0  0  0  0  0  0  0  0  0  0
   -4.8203    2.8658    2.6631 H   0  0  0  0  0  0  0  0  0  0  0  0
   -2.2322   -0.5818   -0.4630 H   0  0  0  0  0  0  0  0  0  0  0  0
   -3.9306   -1.3805    1.1895 H   0  0  0  0  0  0  0  0  0  0  0  0
   -3.1801   -2.6699    4.5437 H   0  0  0  0  0  0  0  0  0  0  0  0
   -4.4777   -2.2746    3.3850 H   0  0  0  0  0  0  0  0  0  0  0  0
   -3.8228   -1.0194    4.4615 H   0  0  0  0  0  0  0  0  0  0  0  0
   -0.8637   -1.6223    4.2091 H   0  0  0  0  0  0  0  0  0  0  0  0
    0.8350   -0.8740    2.5420 H   0  0  0  0  0  0  0  0  0  0  0  0
  1  2  2  0
  1  3  2  0
  1  4  1  0
  1 18  1  0
  4  5  1  0
  4 25  1  0
  5  6  2  0
  5 16  1  0
  6  7  1  0
  6 26  1  0
  7  8  1  0
  7 10  2  0
  8  9  1  0
  9 27  1  0
  9 28  1  0
  9 29  1  0
 10 11  1  0
 10 30  1  0
 11 12  1  0
 11 16  2  0
 12 13  2  0
 12 31  1  0
 13 14  1  0
 13 32  1  0
 14 15  2  0
 14 17  1  0
 15 16  1  0
 17 33  1  0
 17 34  1  0
 17 35  1  0
 18 19  2  0
 18 24  1  0
 19 20  1  0
 19 36  1  0
 20 21  2  0
 20 37  1  0
 21 22  1  0
 21 23  1  0
 22 38  1  0
 22 39  1  0
 22 40  1  0
 23 24  2  0
 23 41  1  0
 24 42  1  0
M  END

