rmsd166.gzmat
 OpenBabel08211713403D

 42 44  0  0  1  0  0  0  0  0999 V2000
    0.0000    0.0000    0.0000 S   0  0  0  0  0  0  0  0  0  0  0  0
    1.4371    0.0000    0.0000 O   0  0  0  0  0  0  0  0  0  0  0  0
   -0.7710    0.0000   -1.2192 O   0  0  0  0  0  0  0  0  0  0  0  0
   -0.5625    1.4426    0.8192 N   0  0  0  0  0  0  0  0  0  0  0  0
   -0.0948    1.9418    2.0210 C   0  0  0  0  0  0  0  0  0  0  0  0
    1.1072    1.5692    2.5913 C   0  0  0  0  0  0  0  0  0  0  0  0
    1.4746    2.0936    3.8563 C   0  0  0  0  0  0  0  0  0  0  0  0
    2.6674    1.5944    4.2696 O   0  0  0  0  0  0  0  0  0  0  0  0
    3.1616    2.0459    5.5232 C   0  0  0  0  0  0  0  0  0  0  0  0
    0.6973    2.9920    4.5537 C   0  0  0  0  0  0  0  0  0  0  0  0
   -0.5203    3.4161    3.9731 C   0  0  2  0  0  0  0  0  0  0  0  0
   -1.3797    4.3577    4.6105 C   0  0  0  0  0  0  0  0  0  0  0  0
   -2.5501    4.7311    4.0069 C   0  0  0  0  0  0  0  0  0  0  0  0
   -2.8898    4.1611    2.7405 C   0  0  0  0  0  0  0  0  0  0  0  0
   -2.1086    3.2858    2.1277 N   0  0  0  0  0  0  0  0  0  0  0  0
   -0.9326    2.9076    2.7209 C   0  0  0  0  0  0  0  0  0  0  0  0
   -4.1602    4.5536    2.0598 C   0  0  0  0  0  0  0  0  0  0  0  0
   -0.5756   -1.2753    1.0501 C   0  0  0  0  0  0  0  0  0  0  0  0
   -1.8273   -1.8469    0.8209 C   0  0  0  0  0  0  0  0  0  0  0  0
   -2.3062   -2.8403    1.6698 C   0  0  0  0  0  0  0  0  0  0  0  0
   -1.5346   -3.2687    2.7548 C   0  0  0  0  0  0  0  0  0  0  0  0
   -2.0574   -4.3096    3.6821 C   0  0  0  0  0  0  0  0  0  0  0  0
   -0.2756   -2.7015    2.9742 C   0  0  0  0  0  0  0  0  0  0  0  0
    0.2031   -1.7107    2.1220 C   0  0  0  0  0  0  0  0  0  0  0  0
   -1.3892    1.9204    0.4346 H   0  0  0  0  0  0  0  0  0  0  0  0
    1.8246    0.9185    2.0851 H   0  0  0  0  0  0  0  0  0  0  0  0
    4.1216    1.5177    5.5979 H   0  0  0  0  0  0  0  0  0  0  0  0
    2.4927    1.7460    6.3360 H   0  0  0  0  0  0  0  0  0  0  0  0
    3.3208    3.1291    5.5150 H   0  0  0  0  0  0  0  0  0  0  0  0
    0.9850    3.3837    5.5189 H   0  0  0  0  0  0  0  0  0  0  0  0
   -1.0838    4.7664    5.5756 H   0  0  0  0  0  0  0  0  0  0  0  0
   -3.2260    5.4487    4.4638 H   0  0  0  0  0  0  0  0  0  0  0  0
   -4.3888    3.8914    1.2081 H   0  0  0  0  0  0  0  0  0  0  0  0
   -5.0173    4.5142    2.7454 H   0  0  0  0  0  0  0  0  0  0  0  0
   -4.0913    5.5764    1.6601 H   0  0  0  0  0  0  0  0  0  0  0  0
   -2.4465   -1.5276   -0.0262 H   0  0  0  0  0  0  0  0  0  0  0  0
   -3.2835   -3.2818    1.4906 H   0  0  0  0  0  0  0  0  0  0  0  0
   -1.2579   -4.9219    4.1226 H   0  0  0  0  0  0  0  0  0  0  0  0
   -2.7551   -5.0025    3.1912 H   0  0  0  0  0  0  0  0  0  0  0  0
   -2.6035   -3.8449    4.5196 H   0  0  0  0  0  0  0  0  0  0  0  0
    0.3303   -3.0320    3.8146 H   0  0  0  0  0  0  0  0  0  0  0  0
    1.1960   -1.2839    2.3115 H   0  0  0  0  0  0  0  0  0  0  0  0
  1  4  1  0  0  0  0
  1 18  1  0  0  0  0
  2  1  2  0  0  0  0
  3  1  2  0  0  0  0
  4  5  1  0  0  0  0
  5  6  2  0  0  0  0
  5 16  1  0  0  0  0
  6  7  1  0  0  0  0
  7  8  1  0  0  0  0
  7 10  2  0  0  0  0
  8  9  1  0  0  0  0
  9 27  1  0  0  0  0
  9 28  1  0  0  0  0
 10 30  1  0  0  0  0
 11 16  1  1  0  0  0
 11 10  1  0  0  0  0
 11 12  1  0  0  0  0
 12 31  1  0  0  0  0
 13 32  1  0  0  0  0
 13 12  2  0  0  0  0
 14 13  1  0  0  0  0
 15 16  2  0  0  0  0
 15 14  2  0  0  0  0
 17 14  1  0  0  0  0
 17 34  1  0  0  0  0
 18 24  1  0  0  0  0
 19 18  2  0  0  0  0
 19 20  1  0  0  0  0
 20 21  2  0  0  0  0
 21 23  1  0  0  0  0
 21 22  1  0  0  0  0
 22 38  1  0  0  0  0
 22 40  1  0  0  0  0
 23 41  1  0  0  0  0
 24 42  1  0  0  0  0
 24 23  2  0  0  0  0
 25  4  1  0  0  0  0
 26  6  1  0  0  0  0
 29  9  1  0  0  0  0
 33 17  1  0  0  0  0
 35 17  1  0  0  0  0
 36 19  1  0  0  0  0
 37 20  1  0  0  0  0
 39 22  1  0  0  0  0
M  RAD  1  11   2
M  END
$$$$
