42
rmsd98.gzmat
S          0.00000        0.00000        0.00000
O          1.44270        0.00000        0.00000
O         -0.76680        0.00000       -1.21530
N         -0.39910        1.44170        0.91140
C         -1.64920        2.01370        1.05970
C         -2.75380        1.66030        0.30840
C         -4.00920        2.25830        0.58250
O         -4.98060        1.76490       -0.22790
C         -6.28010        2.32510       -0.09760
C         -4.19170        3.21320        1.55840
C         -3.06890        3.61830        2.31640
C         -3.15810        4.61380        3.33270
C         -2.04090        4.97070        4.03790
C         -0.79780        4.33040        3.73740
N         -0.68910        3.40420        2.79840
C         -1.80150        3.03820        2.08620
C          0.43560        4.70660        4.49160
C         -0.57130       -1.28290        1.04480
C         -1.93130       -1.58660        1.11200
C         -2.38080       -2.59120        1.96300
C         -1.47030       -3.30820        2.74620
C         -1.95740       -4.38540        3.65120
C         -0.10660       -3.01230        2.66430
C          0.34020       -2.00150        1.81780
H          0.36060        1.90480        1.43020
H         -2.69820        0.97150       -0.53890
H         -6.84920        1.77160       -0.85610
H         -6.26830        3.39470       -0.33170
H         -6.68790        2.13920        0.90060
H         -5.15310        3.66440        1.75960
H         -4.12460        5.07710        3.52760
H         -2.07290        5.72670        4.81740
H          1.29000        4.06130        4.22890
H          0.73330        5.74160        4.26820
H          0.28480        4.62200        5.57650
H         -2.66490       -1.04320        0.50360
H         -3.44280       -2.81870        2.01970
H         -2.21850       -5.29050        3.08000
H         -2.86030       -4.08270        4.20230
H         -1.21240       -4.68430        4.40170
H          0.60730       -3.56990        3.26550
H          1.41460       -1.78380        1.77090
