rmsd119.gzmat
 OpenBabel08211713403D

 42 44  0  0  1  0  0  0  0  0999 V2000
    0.0000    0.0000    0.0000 S   0  0  0  0  0  0  0  0  0  0  0  0
    1.4428    0.0000    0.0000 O   0  0  0  0  0  0  0  0  0  0  0  0
   -0.7699    0.0000   -1.2136 O   0  0  0  0  0  0  0  0  0  0  0  0
   -0.3887    1.4484    0.9051 N   0  0  0  0  0  0  0  0  0  0  0  0
   -1.5904    2.1344    0.9159 C   0  0  0  0  0  0  0  0  0  0  0  0
   -2.7329    1.7074    0.2674 C   0  0  0  0  0  0  0  0  0  0  0  0
   -3.9428    2.4290    0.4284 C   0  0  0  0  0  0  0  0  0  0  0  0
   -4.9630    1.8385   -0.2455 O   0  0  0  0  0  0  0  0  0  0  0  0
   -6.2290    2.4819   -0.2009 C   0  0  0  0  0  0  0  0  0  0  0  0
   -4.0414    3.5758    1.1850 C   0  0  0  0  0  0  0  0  0  0  0  0
   -2.8750    4.0584    1.8225 C   0  0  2  0  0  0  0  0  0  0  0  0
   -2.8745    5.2520    2.6015 C   0  0  0  0  0  0  0  0  0  0  0  0
   -1.7156    5.6848    3.1866 C   0  0  0  0  0  0  0  0  0  0  0  0
   -0.5198    4.9222    3.0027 C   0  0  0  0  0  0  0  0  0  0  0  0
   -0.4960    3.8070    2.2906 N   0  0  0  0  0  0  0  0  0  0  0  0
   -1.6513    3.3624    1.7013 C   0  0  0  0  0  0  0  0  0  0  0  0
    0.7567    5.3767    3.6314 C   0  0  0  0  0  0  0  0  0  0  0  0
   -0.5677   -1.2957    1.0299 C   0  0  0  0  0  0  0  0  0  0  0  0
   -1.9025   -1.6976    0.9872 C   0  0  0  0  0  0  0  0  0  0  0  0
   -2.3412   -2.7471    1.7891 C   0  0  0  0  0  0  0  0  0  0  0  0
   -1.4461   -3.4053    2.6380 C   0  0  0  0  0  0  0  0  0  0  0  0
   -1.9121   -4.5454    3.4746 C   0  0  0  0  0  0  0  0  0  0  0  0
   -0.1091   -2.9988    2.6795 C   0  0  0  0  0  0  0  0  0  0  0  0
    0.3272   -1.9476    1.8780 C   0  0  0  0  0  0  0  0  0  0  0  0
    0.3990    1.9487    1.3456 H   0  0  0  0  0  0  0  0  0  0  0  0
   -2.7462    0.8539   -0.4123 H   0  0  0  0  0  0  0  0  0  0  0  0
   -6.8527    1.8113   -0.8063 H   0  0  0  0  0  0  0  0  0  0  0  0
   -6.1763    3.4749   -0.6588 H   0  0  0  0  0  0  0  0  0  0  0  0
   -6.6058    2.5345    0.8252 H   0  0  0  0  0  0  0  0  0  0  0  0
   -4.9690    4.1178    1.3024 H   0  0  0  0  0  0  0  0  0  0  0  0
   -3.8072    5.8039    2.7131 H   0  0  0  0  0  0  0  0  0  0  0  0
   -1.6796    6.5914    3.7842 H   0  0  0  0  0  0  0  0  0  0  0  0
    1.6235    4.8070    3.2581 H   0  0  0  0  0  0  0  0  0  0  0  0
    0.9525    6.4384    3.4281 H   0  0  0  0  0  0  0  0  0  0  0  0
    0.7281    5.2395    4.7223 H   0  0  0  0  0  0  0  0  0  0  0  0
   -2.6227   -1.2028    0.3240 H   0  0  0  0  0  0  0  0  0  0  0  0
   -3.3830   -3.0569    1.7535 H   0  0  0  0  0  0  0  0  0  0  0  0
   -1.8584   -5.4908    2.9100 H   0  0  0  0  0  0  0  0  0  0  0  0
   -2.9548   -4.4268    3.8021 H   0  0  0  0  0  0  0  0  0  0  0  0
   -1.3075   -4.6811    4.3821 H   0  0  0  0  0  0  0  0  0  0  0  0
    0.5933   -3.5064    3.3358 H   0  0  0  0  0  0  0  0  0  0  0  0
    1.3824   -1.6503    1.9195 H   0  0  0  0  0  0  0  0  0  0  0  0
  1  4  1  0  0  0  0
  1 18  1  0  0  0  0
  2  1  2  0  0  0  0
  3  1  2  0  0  0  0
  4  5  1  0  0  0  0
  4 25  1  0  0  0  0
  5 16  1  0  0  0  0
  6  7  1  0  0  0  0
  6  5  2  0  0  0  0
  7 10  2  0  0  0  0
  8  9  1  0  0  0  0
  8  7  1  0  0  0  0
  9 29  1  0  0  0  0
 10 30  1  0  0  0  0
 11 10  1  6  0  0  0
 11 12  1  0  0  0  0
 12 31  1  0  0  0  0
 12 13  2  0  0  0  0
 13 32  1  0  0  0  0
 14 13  1  0  0  0  0
 14 17  1  0  0  0  0
 15 14  2  0  0  0  0
 16 11  1  0  0  0  0
 16 15  2  0  0  0  0
 17 35  1  0  0  0  0
 18 24  1  0  0  0  0
 19 18  2  0  0  0  0
 19 20  1  0  0  0  0
 20 21  2  0  0  0  0
 21 23  1  0  0  0  0
 21 22  1  0  0  0  0
 22 39  1  0  0  0  0
 22 40  1  0  0  0  0
 23 41  1  0  0  0  0
 24 42  1  0  0  0  0
 24 23  2  0  0  0  0
 26  6  1  0  0  0  0
 27  9  1  0  0  0  0
 28  9  1  0  0  0  0
 33 17  1  0  0  0  0
 34 17  1  0  0  0  0
 36 19  1  0  0  0  0
 37 20  1  0  0  0  0
 38 22  1  0  0  0  0
M  RAD  1  11   2
M  END
$$$$
