49
rmsd107.gzmat
N          0.00000        0.00000        0.00000
C          1.40560        0.00000        0.00000
O          2.05300        0.00000        1.02060
N          2.07140        0.00310       -1.25640
C          1.33440       -0.02670       -2.40700
C         -0.08790       -0.02670       -2.37470
C         -0.83390       -0.00420       -1.13820
O         -2.03820        0.00040       -1.02670
N         -0.51450       -0.03980       -3.69770
C          0.61650       -0.06630       -4.47510
N          1.76870       -0.05080       -3.71610
N          0.55800       -0.08450       -5.89470
C          0.99970       -1.38180       -6.44300
C          2.51760       -1.59730       -6.31220
N          3.26060       -0.45520       -6.98590
H          3.06570       -0.46770       -8.00760
H          4.28560       -0.57900       -6.85180
C          2.82990        0.88010       -6.40290
C          1.30100        1.03480       -6.50430
C         -1.90640       -0.17060       -4.12890
C         -2.23140       -1.62630       -4.33400
C         -2.53770       -2.42540       -3.23240
C         -2.80530       -3.78020       -3.41480
C         -2.77380       -4.33090       -4.69490
C         -2.48510       -3.52560       -5.79630
C         -2.21390       -2.17100       -5.61790
C          3.53510       -0.03380       -1.29330
C         -0.63300        0.04110        1.33180
H          0.65960       -1.43770       -7.50340
H          0.45320       -2.20690       -5.91130
H          2.83060       -2.56450       -6.76210
H          2.80600       -1.62640       -5.22490
H          3.14500        0.92530       -5.32210
H          3.35540        1.70450       -6.93170
H          0.99070        1.99090       -6.00740
H          0.96270        1.12380       -7.56360
H         -2.05880        0.42410       -5.06260
H         -2.57420        0.28100       -3.34140
H         -2.57820       -1.98920       -2.23000
H         -3.04550       -4.40680       -2.55480
H         -2.98700       -5.39090       -4.83680
H         -2.48420       -3.95390       -6.79730
H         -2.00780       -1.53800       -6.47790
H          3.95200        0.27050       -0.30890
H          3.91880        0.65860       -2.06210
H          3.89280       -1.05430       -1.52030
H         -0.15150       -0.68780        2.01100
H         -1.71020       -0.20490        1.25660
H         -0.53230        1.04930        1.77460
