rmsd125.gzmat
 OpenBabel08211713363D

 49 52  0  0  1  0  0  0  0  0999 V2000
    0.0000    0.0000    0.0000 N   0  0  0  0  0  0  0  0  0  0  0  0
    1.4056    0.0000    0.0000 C   0  0  0  0  0  0  0  0  0  0  0  0
    2.0530    0.0000    1.0205 O   0  0  0  0  0  0  0  0  0  0  0  0
    2.0722   -0.0044   -1.2563 N   0  0  0  0  0  0  0  0  0  0  0  0
    1.3359   -0.0072   -2.4072 C   0  0  0  0  0  0  0  0  0  0  0  0
   -0.0858    0.0254   -2.3745 C   0  0  2  0  0  0  0  0  0  0  0  0
   -0.8335    0.0201   -1.1386 C   0  0  0  0  0  0  0  0  0  0  0  0
   -2.0379    0.0122   -1.0312 O   0  0  0  0  0  0  0  0  0  0  0  0
   -0.5125    0.0523   -3.6974 N   0  0  0  0  0  0  0  0  0  0  0  0
    0.6173   -0.0006   -4.4765 C   0  0  0  0  0  0  0  0  0  0  0  0
    1.7687   -0.0338   -3.7175 N   0  0  0  0  0  0  0  0  0  0  0  0
    0.5577   -0.0015   -5.8957 N   0  0  0  0  0  0  0  0  0  0  0  0
    0.7889   -1.3511   -6.4475 C   0  0  0  0  0  0  0  0  0  0  0  0
    2.2521   -1.8039   -6.3063 C   0  0  0  0  0  0  0  0  0  0  0  0
    3.1662   -0.7978   -6.9868 N   0  0  0  0  0  0  0  0  0  0  0  0
    2.9695   -0.7866   -8.0080 H   0  0  0  0  0  0  0  0  0  0  0  0
    4.1590   -1.0809   -6.8534 H   0  0  0  0  0  0  0  0  0  0  0  0
    2.9522    0.5924   -6.4124 C   0  0  0  0  0  0  0  0  0  0  0  0
    1.4659    0.9863   -6.5073 C   0  0  0  0  0  0  0  0  0  0  0  0
   -1.9073   -0.0116   -4.1307 C   0  0  0  0  0  0  0  0  0  0  0  0
   -2.2494   -1.4184   -4.5408 C   0  0  0  0  0  0  0  0  0  0  0  0
   -2.3249   -2.4210   -3.5727 C   0  0  0  0  0  0  0  0  0  0  0  0
   -2.6191   -3.7276   -3.9542 C   0  0  0  0  0  0  0  0  0  0  0  0
   -2.8482   -4.0284   -5.2962 C   0  0  0  0  0  0  0  0  0  0  0  0
   -2.7897   -3.0214   -6.2585 C   0  0  0  0  0  0  0  0  0  0  0  0
   -2.4903   -1.7137   -5.8826 C   0  0  0  0  0  0  0  0  0  0  0  0
    3.5365   -0.0378   -1.2863 C   0  0  0  0  0  0  0  0  0  0  0  0
   -0.6309    0.0112    1.3334 C   0  0  0  0  0  0  0  0  0  0  0  0
    0.4522   -1.3486   -7.5104 H   0  0  0  0  0  0  0  0  0  0  0  0
    0.1101   -2.0803   -5.9272 H   0  0  0  0  0  0  0  0  0  0  0  0
    2.4105   -2.8118   -6.7492 H   0  0  0  0  0  0  0  0  0  0  0  0
    2.5284   -1.8696   -5.2187 H   0  0  0  0  0  0  0  0  0  0  0  0
    3.2759    0.5961   -5.3328 H   0  0  0  0  0  0  0  0  0  0  0  0
    3.5976    1.3209   -6.9490 H   0  0  0  0  0  0  0  0  0  0  0  0
    1.3132    1.9784   -6.0073 H   0  0  0  0  0  0  0  0  0  0  0  0
    1.1415    1.1293   -7.5650 H   0  0  0  0  0  0  0  0  0  0  0  0
   -2.0625    0.7164   -4.9650 H   0  0  0  0  0  0  0  0  0  0  0  0
   -2.5711    0.3248   -3.2823 H   0  0  0  0  0  0  0  0  0  0  0  0
   -2.1670   -2.1774   -2.5189 H   0  0  0  0  0  0  0  0  0  0  0  0
   -2.6850   -4.5129   -3.1999 H   0  0  0  0  0  0  0  0  0  0  0  0
   -3.0890   -5.0500   -5.5923 H   0  0  0  0  0  0  0  0  0  0  0  0
   -2.9949   -3.2534   -7.3026 H   0  0  0  0  0  0  0  0  0  0  0  0
   -2.4625   -0.9252   -6.6327 H   0  0  0  0  0  0  0  0  0  0  0  0
    3.9480    0.3862   -0.3447 H   0  0  0  0  0  0  0  0  0  0  0  0
    3.9211    0.5571   -2.1327 H   0  0  0  0  0  0  0  0  0  0  0  0
    3.8988   -1.0775   -1.3844 H   0  0  0  0  0  0  0  0  0  0  0  0
   -0.1882   -0.7737    1.9756 H   0  0  0  0  0  0  0  0  0  0  0  0
   -1.7197   -0.1747    1.2494 H   0  0  0  0  0  0  0  0  0  0  0  0
   -0.4776    0.9903    1.8242 H   0  0  0  0  0  0  0  0  0  0  0  0
  1  2  1  0  0  0  0
  1 28  1  0  0  0  0
  2  3  2  0  0  0  0
  4  2  1  0  0  0  0
  5  4  1  0  0  0  0
  6  5  1  6  0  0  0
  6  7  1  0  0  0  0
  7  8  2  0  0  0  0
  7  1  1  0  0  0  0
  9  6  1  0  0  0  0
 10 11  2  0  0  0  0
 10  9  1  0  0  0  0
 11  5  2  0  0  0  0
 12 10  1  0  0  0  0
 13 14  1  0  0  0  0
 13 30  1  0  0  0  0
 13 12  1  0  0  0  0
 14 32  1  0  0  0  0
 15 17  1  0  0  0  0
 15 18  1  0  0  0  0
 15 14  1  0  0  0  0
 16 15  1  0  0  0  0
 18 33  1  0  0  0  0
 19 18  1  0  0  0  0
 19 35  1  0  0  0  0
 19 12  1  0  0  0  0
 20  9  1  0  0  0  0
 20 38  1  0  0  0  0
 21 20  1  0  0  0  0
 21 22  2  0  0  0  0
 22 39  1  0  0  0  0
 23 22  1  0  0  0  0
 23 40  1  0  0  0  0
 24 23  2  0  0  0  0
 25 26  2  0  0  0  0
 25 24  1  0  0  0  0
 26 21  1  0  0  0  0
 27  4  1  0  0  0  0
 27 44  1  0  0  0  0
 28 49  1  0  0  0  0
 28 47  1  0  0  0  0
 29 13  1  0  0  0  0
 31 14  1  0  0  0  0
 34 18  1  0  0  0  0
 36 19  1  0  0  0  0
 37 20  1  0  0  0  0
 41 24  1  0  0  0  0
 42 25  1  0  0  0  0
 43 26  1  0  0  0  0
 45 27  1  0  0  0  0
 46 27  1  0  0  0  0
 48 28  1  0  0  0  0
M  RAD  1   6   2
M  END
$$$$
