49
rmsd119.gzmat
N          0.00000        0.00000        0.00000
C          1.40600        0.00000        0.00000
O          2.05230        0.00000        1.02120
N          2.07220        0.00240       -1.25620
C          1.33580       -0.00930       -2.40740
C         -0.08660        0.01140       -2.37530
C         -0.83370        0.00160       -1.13830
O         -2.03810       -0.02030       -1.03080
N         -0.51210        0.02960       -3.69830
C          0.61900       -0.01140       -4.47590
N          1.77050       -0.03090       -3.71680
N          0.55590       -0.02120       -5.89480
C          0.88740       -1.35100       -6.44360
C          2.38520       -1.68410       -6.33260
N          3.20140       -0.60510       -7.02610
H          2.97830       -0.60060       -8.04240
H          4.21610       -0.81070       -6.91980
C          2.89100        0.75820       -6.43160
C          1.37820        1.03660       -6.51070
C         -1.90530       -0.02970       -4.13990
C         -2.25330       -1.43870       -4.53770
C         -2.51180       -2.38770       -3.54800
C         -2.81100       -3.69890       -3.91020
C         -2.85550       -4.05900       -5.25640
C         -2.61400       -3.10430       -6.24350
C         -2.31490       -1.79160       -5.88580
C          3.53570       -0.05040       -1.29030
C         -0.62820        0.01050        1.33490
H          0.52740       -1.38400       -7.49820
H          0.28350       -2.12970       -5.90250
H          2.61520       -2.67480       -6.78210
H          2.68730       -1.72980       -5.25020
H          3.22240        0.77250       -5.35460
H          3.47520        1.53970       -6.96370
H          1.15290        2.01200       -6.00520
H          1.03320        1.15760       -7.56490
H         -2.04920        0.68750       -4.98510
H         -2.56990        0.32250       -3.30010
H         -2.48990       -2.09870       -2.49320
H         -3.02130       -4.44130       -3.13890
H         -3.09240       -5.08520       -5.53920
H         -2.67630       -3.38200       -7.29430
H         -2.14710       -1.04150       -6.65590
H          3.95410        0.31880       -0.32890
H          3.92600        0.58180       -2.10660
H          3.88350       -1.08800       -1.44400
H         -0.24200       -0.82530        1.94850
H         -1.72760       -0.09280        1.24830
H         -0.40320        0.95880        1.85810
