rmsd119.gzmat
 OpenBabel08211713363D

 49 52  0  0  1  0  0  0  0  0999 V2000
    0.0000    0.0000    0.0000 N   0  0  0  0  0  0  0  0  0  0  0  0
    1.4060    0.0000    0.0000 C   0  0  0  0  0  0  0  0  0  0  0  0
    2.0523    0.0000    1.0212 O   0  0  0  0  0  0  0  0  0  0  0  0
    2.0722    0.0024   -1.2562 N   0  0  0  0  0  0  0  0  0  0  0  0
    1.3358   -0.0093   -2.4074 C   0  0  0  0  0  0  0  0  0  0  0  0
   -0.0866    0.0114   -2.3753 C   0  0  2  0  0  0  0  0  0  0  0  0
   -0.8337    0.0016   -1.1383 C   0  0  0  0  0  0  0  0  0  0  0  0
   -2.0381   -0.0203   -1.0308 O   0  0  0  0  0  0  0  0  0  0  0  0
   -0.5121    0.0296   -3.6983 N   0  0  0  0  0  0  0  0  0  0  0  0
    0.6190   -0.0114   -4.4759 C   0  0  0  0  0  0  0  0  0  0  0  0
    1.7705   -0.0309   -3.7168 N   0  0  0  0  0  0  0  0  0  0  0  0
    0.5559   -0.0212   -5.8948 N   0  0  0  0  0  0  0  0  0  0  0  0
    0.8874   -1.3510   -6.4436 C   0  0  0  0  0  0  0  0  0  0  0  0
    2.3852   -1.6841   -6.3326 C   0  0  0  0  0  0  0  0  0  0  0  0
    3.2014   -0.6051   -7.0261 N   0  0  0  0  0  0  0  0  0  0  0  0
    2.9783   -0.6006   -8.0424 H   0  0  0  0  0  0  0  0  0  0  0  0
    4.2161   -0.8107   -6.9198 H   0  0  0  0  0  0  0  0  0  0  0  0
    2.8910    0.7582   -6.4316 C   0  0  0  0  0  0  0  0  0  0  0  0
    1.3782    1.0366   -6.5107 C   0  0  0  0  0  0  0  0  0  0  0  0
   -1.9053   -0.0297   -4.1399 C   0  0  0  0  0  0  0  0  0  0  0  0
   -2.2533   -1.4387   -4.5377 C   0  0  0  0  0  0  0  0  0  0  0  0
   -2.5118   -2.3877   -3.5480 C   0  0  0  0  0  0  0  0  0  0  0  0
   -2.8110   -3.6989   -3.9102 C   0  0  0  0  0  0  0  0  0  0  0  0
   -2.8555   -4.0590   -5.2564 C   0  0  0  0  0  0  0  0  0  0  0  0
   -2.6140   -3.1043   -6.2435 C   0  0  0  0  0  0  0  0  0  0  0  0
   -2.3149   -1.7916   -5.8858 C   0  0  0  0  0  0  0  0  0  0  0  0
    3.5357   -0.0504   -1.2903 C   0  0  0  0  0  0  0  0  0  0  0  0
   -0.6282    0.0105    1.3349 C   0  0  0  0  0  0  0  0  0  0  0  0
    0.5274   -1.3840   -7.4982 H   0  0  0  0  0  0  0  0  0  0  0  0
    0.2835   -2.1297   -5.9025 H   0  0  0  0  0  0  0  0  0  0  0  0
    2.6152   -2.6748   -6.7821 H   0  0  0  0  0  0  0  0  0  0  0  0
    2.6873   -1.7298   -5.2502 H   0  0  0  0  0  0  0  0  0  0  0  0
    3.2224    0.7725   -5.3546 H   0  0  0  0  0  0  0  0  0  0  0  0
    3.4752    1.5397   -6.9637 H   0  0  0  0  0  0  0  0  0  0  0  0
    1.1529    2.0120   -6.0052 H   0  0  0  0  0  0  0  0  0  0  0  0
    1.0332    1.1576   -7.5649 H   0  0  0  0  0  0  0  0  0  0  0  0
   -2.0492    0.6875   -4.9851 H   0  0  0  0  0  0  0  0  0  0  0  0
   -2.5699    0.3225   -3.3001 H   0  0  0  0  0  0  0  0  0  0  0  0
   -2.4899   -2.0987   -2.4932 H   0  0  0  0  0  0  0  0  0  0  0  0
   -3.0213   -4.4413   -3.1389 H   0  0  0  0  0  0  0  0  0  0  0  0
   -3.0924   -5.0852   -5.5392 H   0  0  0  0  0  0  0  0  0  0  0  0
   -2.6763   -3.3820   -7.2943 H   0  0  0  0  0  0  0  0  0  0  0  0
   -2.1471   -1.0415   -6.6559 H   0  0  0  0  0  0  0  0  0  0  0  0
    3.9541    0.3188   -0.3289 H   0  0  0  0  0  0  0  0  0  0  0  0
    3.9260    0.5818   -2.1066 H   0  0  0  0  0  0  0  0  0  0  0  0
    3.8835   -1.0880   -1.4440 H   0  0  0  0  0  0  0  0  0  0  0  0
   -0.2420   -0.8253    1.9485 H   0  0  0  0  0  0  0  0  0  0  0  0
   -1.7276   -0.0928    1.2483 H   0  0  0  0  0  0  0  0  0  0  0  0
   -0.4032    0.9588    1.8581 H   0  0  0  0  0  0  0  0  0  0  0  0
  1  2  1  0  0  0  0
  1 28  1  0  0  0  0
  2  3  2  0  0  0  0
  4  2  1  0  0  0  0
  5  4  1  0  0  0  0
  6  5  1  6  0  0  0
  6  7  1  0  0  0  0
  7  8  2  0  0  0  0
  7  1  1  0  0  0  0
  9  6  1  0  0  0  0
 10 11  2  0  0  0  0
 10  9  1  0  0  0  0
 11  5  2  0  0  0  0
 12 10  1  0  0  0  0
 13 14  1  0  0  0  0
 13 30  1  0  0  0  0
 13 12  1  0  0  0  0
 14 32  1  0  0  0  0
 15 17  1  0  0  0  0
 15 18  1  0  0  0  0
 15 14  1  0  0  0  0
 16 15  1  0  0  0  0
 18 33  1  0  0  0  0
 19 18  1  0  0  0  0
 19 35  1  0  0  0  0
 19 12  1  0  0  0  0
 20  9  1  0  0  0  0
 20 38  1  0  0  0  0
 21 20  1  0  0  0  0
 21 22  2  0  0  0  0
 22 39  1  0  0  0  0
 23 22  1  0  0  0  0
 23 40  1  0  0  0  0
 24 23  2  0  0  0  0
 25 26  2  0  0  0  0
 25 24  1  0  0  0  0
 26 21  1  0  0  0  0
 27  4  1  0  0  0  0
 27 44  1  0  0  0  0
 28 49  1  0  0  0  0
 28 47  1  0  0  0  0
 29 13  1  0  0  0  0
 31 14  1  0  0  0  0
 34 18  1  0  0  0  0
 36 19  1  0  0  0  0
 37 20  1  0  0  0  0
 41 24  1  0  0  0  0
 42 25  1  0  0  0  0
 43 26  1  0  0  0  0
 45 27  1  0  0  0  0
 46 27  1  0  0  0  0
 48 28  1  0  0  0  0
M  RAD  1   6   2
M  END
$$$$
