rmsd127.gzmat
 OpenBabel08211713363D

 49 52  0  0  1  0  0  0  0  0999 V2000
    0.0000    0.0000    0.0000 N   0  0  0  0  0  0  0  0  0  0  0  0
    1.4056    0.0000    0.0000 C   0  0  0  0  0  0  0  0  0  0  0  0
    2.0538    0.0000    1.0198 O   0  0  0  0  0  0  0  0  0  0  0  0
    2.0716    0.0134   -1.2563 N   0  0  0  0  0  0  0  0  0  0  0  0
    1.3353   -0.0097   -2.4076 C   0  0  0  0  0  0  0  0  0  0  0  0
   -0.0872   -0.0307   -2.3746 C   0  0  1  0  0  0  0  0  0  0  0  0
   -0.8337   -0.0117   -1.1383 C   0  0  0  0  0  0  0  0  0  0  0  0
   -2.0381    0.0004   -1.0288 O   0  0  0  0  0  0  0  0  0  0  0  0
   -0.5143   -0.0491   -3.6967 N   0  0  0  0  0  0  0  0  0  0  0  0
    0.6153   -0.0100   -4.4754 C   0  0  0  0  0  0  0  0  0  0  0  0
    1.7683    0.0045   -3.7174 N   0  0  0  0  0  0  0  0  0  0  0  0
    0.5527    0.0126   -5.8946 N   0  0  0  0  0  0  0  0  0  0  0  0
    1.3091   -1.0901   -6.5159 C   0  0  0  0  0  0  0  0  0  0  0  0
    2.8361   -0.9097   -6.4246 C   0  0  0  0  0  0  0  0  0  0  0  0
    3.2398    0.4353   -7.0046 N   0  0  0  0  0  0  0  0  0  0  0  0
    3.0329    0.4514   -8.0239 H   0  0  0  0  0  0  0  0  0  0  0  0
    4.2643    0.5746   -6.8817 H   0  0  0  0  0  0  0  0  0  0  0  0
    2.4853    1.5611   -6.3157 C   0  0  0  0  0  0  0  0  0  0  0  0
    0.9698    1.3221   -6.4346 C   0  0  0  0  0  0  0  0  0  0  0  0
   -1.9106   -0.0194   -4.1308 C   0  0  0  0  0  0  0  0  0  0  0  0
   -2.3106    1.3873   -4.4839 C   0  0  0  0  0  0  0  0  0  0  0  0
   -2.2949    1.8039   -5.8155 C   0  0  0  0  0  0  0  0  0  0  0  0
   -2.6665    3.1071   -6.1365 C   0  0  0  0  0  0  0  0  0  0  0  0
   -3.0495    3.9912   -5.1286 C   0  0  0  0  0  0  0  0  0  0  0  0
   -3.0683    3.5704   -3.7996 C   0  0  0  0  0  0  0  0  0  0  0  0
   -2.7016    2.2665   -3.4743 C   0  0  0  0  0  0  0  0  0  0  0  0
    3.5347   -0.0537   -1.2878 C   0  0  0  0  0  0  0  0  0  0  0  0
   -0.6369    0.0546    1.3294 C   0  0  0  0  0  0  0  0  0  0  0  0
    0.9638   -1.1792   -7.5730 H   0  0  0  0  0  0  0  0  0  0  0  0
    1.0195   -2.0539   -6.0216 H   0  0  0  0  0  0  0  0  0  0  0  0
    3.3712   -1.7232   -6.9610 H   0  0  0  0  0  0  0  0  0  0  0  0
    3.1580   -0.9540   -5.3457 H   0  0  0  0  0  0  0  0  0  0  0  0
    2.7836    1.5882   -5.2310 H   0  0  0  0  0  0  0  0  0  0  0  0
    2.7788    2.5362   -6.7622 H   0  0  0  0  0  0  0  0  0  0  0  0
    0.4154    2.1337   -5.8902 H   0  0  0  0  0  0  0  0  0  0  0  0
    0.6172    1.3833   -7.4904 H   0  0  0  0  0  0  0  0  0  0  0  0
   -2.5571   -0.4205   -3.2985 H   0  0  0  0  0  0  0  0  0  0  0  0
   -2.0378   -0.7129   -4.9983 H   0  0  0  0  0  0  0  0  0  0  0  0
   -2.0101    1.1084   -6.6021 H   0  0  0  0  0  0  0  0  0  0  0  0
   -2.6741    3.4305   -7.1757 H   0  0  0  0  0  0  0  0  0  0  0  0
   -3.3483    5.0091   -5.3819 H   0  0  0  0  0  0  0  0  0  0  0  0
   -3.3814    4.2587   -3.0133 H   0  0  0  0  0  0  0  0  0  0  0  0
   -2.7308    1.9293   -2.4334 H   0  0  0  0  0  0  0  0  0  0  0  0
    3.9544    0.3150   -0.3269 H   0  0  0  0  0  0  0  0  0  0  0  0
    3.9323    0.5710   -2.1050 H   0  0  0  0  0  0  0  0  0  0  0  0
    3.8739   -1.0955   -1.4366 H   0  0  0  0  0  0  0  0  0  0  0  0
   -0.1233   -0.6262    2.0352 H   0  0  0  0  0  0  0  0  0  0  0  0
   -1.6999   -0.2494    1.2612 H   0  0  0  0  0  0  0  0  0  0  0  0
   -0.5878    1.0815    1.7351 H   0  0  0  0  0  0  0  0  0  0  0  0
  1  2  1  0  0  0  0
  1 28  1  0  0  0  0
  2  3  2  0  0  0  0
  4  2  1  0  0  0  0
  5  4  1  0  0  0  0
  6  5  1  6  0  0  0
  6  7  1  0  0  0  0
  7  8  2  0  0  0  0
  7  1  1  0  0  0  0
  9  6  1  0  0  0  0
 10 11  2  0  0  0  0
 10  9  1  0  0  0  0
 11  5  2  0  0  0  0
 12 10  1  0  0  0  0
 13 14  1  0  0  0  0
 13 30  1  0  0  0  0
 13 12  1  0  0  0  0
 14 32  1  0  0  0  0
 15 17  1  0  0  0  0
 15 14  1  0  0  0  0
 15 18  1  0  0  0  0
 16 15  1  0  0  0  0
 18 33  1  0  0  0  0
 19 18  1  0  0  0  0
 19 12  1  0  0  0  0
 19 35  1  0  0  0  0
 20  9  1  0  0  0  0
 20 37  1  0  0  0  0
 21 20  1  0  0  0  0
 21 26  2  0  0  0  0
 22 21  1  0  0  0  0
 23 22  2  0  0  0  0
 23 24  1  0  0  0  0
 24 25  2  0  0  0  0
 25 26  1  0  0  0  0
 25 42  1  0  0  0  0
 26 43  1  0  0  0  0
 27  4  1  0  0  0  0
 27 44  1  0  0  0  0
 28 49  1  0  0  0  0
 28 47  1  0  0  0  0
 29 13  1  0  0  0  0
 31 14  1  0  0  0  0
 34 18  1  0  0  0  0
 36 19  1  0  0  0  0
 38 20  1  0  0  0  0
 39 22  1  0  0  0  0
 40 23  1  0  0  0  0
 41 24  1  0  0  0  0
 45 27  1  0  0  0  0
 46 27  1  0  0  0  0
 48 28  1  0  0  0  0
M  RAD  1   6   2
M  END
$$$$
