49
rmsd117.gzmat
N          0.00000        0.00000        0.00000
C          1.40570        0.00000        0.00000
O          2.05180        0.00000        1.02130
N          2.07180       -0.00200       -1.25640
C          1.33480       -0.00650       -2.40740
C         -0.08740        0.01560       -2.37490
C         -0.83410        0.01130       -1.13830
O         -2.03850        0.00050       -1.02920
N         -0.51380        0.03450       -3.69790
C          0.61650       -0.00780       -4.47640
N          1.76850       -0.02670       -3.71760
N          0.55350       -0.01350       -5.89560
C          0.86700       -1.34650       -6.44800
C          2.35530       -1.70890       -6.30970
N          3.20710       -0.64730       -6.98720
H          3.01370       -0.64830       -8.00920
H          4.21510       -0.86900       -6.84980
C          2.90630        0.72720       -6.41350
C          1.39870        1.02840       -6.50840
C         -1.90650       -0.05630       -4.13560
C         -2.23580       -1.48670       -4.46840
C         -2.41990       -2.40830       -3.43680
C         -2.68850       -3.74090       -3.74040
C         -2.78580       -4.14630       -5.07070
C         -2.62100       -3.21910       -6.09940
C         -2.34530       -1.88690       -5.80010
C          3.53540       -0.04820       -1.29250
C         -0.62970        0.01680        1.33380
H          0.52740       -1.36470       -7.50980
H          0.23650       -2.11600       -5.92470
H          2.57540       -2.70410       -6.75430
H          2.63540       -1.76020       -5.22150
H          3.22910        0.75110       -5.33390
H          3.50510        1.49430       -6.95080
H          1.18460        2.00980       -6.01020
H          1.06520        1.15040       -7.56590
H         -2.05830        0.62110       -5.01180
H         -2.57450        0.32540       -3.31120
H         -2.36350       -2.08170       -2.39480
H         -2.83410       -4.46290       -2.93530
H         -3.00450       -5.18780       -5.30820
H         -2.72370       -3.53450       -7.13630
H         -2.23340       -1.15980       -6.60210
H          3.95430        0.26200       -0.31060
H          3.92450        0.63510       -2.06710
H          3.88590       -1.07310       -1.51070
H         -0.18770       -0.76640        1.97870
H         -1.71880       -0.16690        1.25100
H         -0.47300        0.99720        1.82030
