32
rmsd1.gzmat
O          0.00000        0.00000        0.00000
N          1.22050        0.00000        0.00000
O          1.89640        0.00000        1.01660
C          1.90760        0.00740       -1.28090
C          1.16110        0.11420       -2.45820
C          1.82720        0.14210       -3.67780
C          3.22280        0.06120       -3.72160
C          3.93500        0.14720       -5.03210
C          4.47810        1.58030       -5.25440
N          3.43760        2.61410       -5.21100
C          2.43120        2.60480       -6.19350
C          1.19010        3.19460       -5.87910
C          0.20530        3.28890       -6.85310
C          0.43090        2.79970       -8.13990
C          1.65780        2.21760       -8.44980
C          2.65720        2.11030       -7.48850
C          3.95490       -0.06350       -2.53600
C          3.30190       -0.08880       -1.30960
H          0.06800        0.17850       -2.41650
H          1.25720        0.23450       -4.60400
H          3.26520       -0.12690       -5.87490
H          4.77170       -0.57840       -5.08070
H          5.01180        1.63370       -6.23020
H          5.23250        1.83060       -4.47290
H          3.10500        2.79340       -4.26510
H          1.00730        3.58590       -4.88290
H         -0.75240        3.74900       -6.60940
H         -0.34410        2.87690       -8.89640
H          1.84030        1.84410       -9.45730
H          3.61040        1.66410       -7.75120
H          5.04090       -0.13750       -2.57270
H          3.86770       -0.17960       -0.37660
