32
rmsd228.gzmat
O          0.00000        0.00000        0.00000
N          1.22100        0.00000        0.00000
O          1.89640        0.00000        1.01660
C          1.90640       -0.00380       -1.28200
C          1.15270        0.02720       -2.45920
C          1.81040        0.01060       -3.68300
C          3.20810       -0.03470       -3.73110
C          3.90830       -0.08900       -5.04960
C          3.87230       -1.52570       -5.62500
N          4.49160       -2.52750       -4.75130
C          5.86880       -2.44350       -4.48260
C          6.35670       -3.08700       -3.32660
C          7.72130       -3.10820       -3.07310
C          8.61520       -2.48840       -3.94660
C          8.13270       -1.85230       -5.08770
C          6.76940       -1.82180       -5.36330
C          3.94920       -0.05460       -2.54470
C          3.30340       -0.04080       -1.31390
H          0.05930        0.06470       -2.41280
H          1.23440        0.03370       -4.60720
H          4.96360        0.24630       -4.95880
H          3.44630        0.61040       -5.77560
H          4.37300       -1.54500       -6.62000
H          2.81730       -1.84020       -5.80180
H          3.91340       -2.75860       -3.94620
H          5.66940       -3.57750       -2.64380
H          8.09670       -3.61340       -2.18300
H          9.68100       -2.50530       -3.73930
H          8.82890       -1.37180       -5.77470
H          6.41510       -1.33250       -6.26400
H          5.03930       -0.08610       -2.58370
H          3.87750       -0.06060       -0.38090
