32
rmsd206.gzmat
O          0.00000        0.00000        0.00000
N          1.22080        0.00000        0.00000
O          1.89620        0.00000        1.01690
C          1.90660        0.01390       -1.28160
C          1.15490        0.06300       -2.45930
C          1.81590        0.10450       -3.68110
C          3.21400        0.09400       -3.72590
C          3.92240        0.20490       -5.03580
C          4.16650        1.69550       -5.37950
N          5.06110        2.37470       -4.43630
C          6.39790        1.94850       -4.34440
C          7.07450        1.38040       -5.43690
C          8.42370        1.06460       -5.32160
C          9.11060        1.29810       -4.13250
C          8.43930        1.86170       -3.04770
C          7.09170        2.18350       -3.14030
C          3.95250        0.02030       -2.53970
C          3.30410       -0.01580       -1.31140
H          0.06060        0.07300       -2.41460
H          1.24170        0.14890       -4.60570
H          3.34580       -0.27380       -5.85210
H          4.89350       -0.33500       -5.01560
H          3.19920        2.24980       -5.38520
H          4.58090        1.78270       -6.40930
H          4.61350        2.57450       -3.54390
H          6.55950        1.20290       -6.37500
H          8.94750        0.63020       -6.17300
H         10.16340        1.04520       -4.05150
H          8.97610        2.04940       -2.11750
H          6.58020        2.62790       -2.29170
H          5.04300       -0.00620       -2.57900
H          3.87570       -0.06400       -0.37810
