32
rmsd207.gzmat
O          0.00000        0.00000        0.00000
N          1.22060        0.00000        0.00000
O          1.89590        0.00000        1.01680
C          1.90770        0.00800       -1.28090
C          1.16030        0.10040       -2.45860
C          1.82510        0.13090       -3.67870
C          3.22180        0.06840       -3.72260
C          3.93240        0.15690       -5.03320
C          4.25270        1.63360       -5.37330
N          5.18300        2.26280       -4.42730
C          6.46880        1.70230       -4.29620
C          7.13360        1.12030       -5.38880
C          8.42690        0.63600       -5.22870
C          9.07020        0.71900       -3.99560
C          8.41730        1.31250       -2.91610
C          7.12430        1.80140       -3.05360
C          3.95480       -0.04650       -2.53630
C          3.30300       -0.07460       -1.30980
H          0.06690        0.14980       -2.41610
H          1.25480        0.20340       -4.60360
H          3.33140       -0.28780       -5.85110
H          4.87520       -0.43210       -5.01770
H          3.31640        2.23770       -5.38360
H          4.67630        1.69990       -6.40120
H          4.73630        2.50570       -3.54490
H          6.65240        1.06280       -6.35970
H          8.94050        0.18710       -6.07870
H         10.07580        0.32650       -3.87710
H          8.92360        1.39130       -1.95380
H          6.62780        2.26740       -2.20770
H          5.04430       -0.11290       -2.57310
H          3.87100       -0.16010       -0.37690
