32
rmsd174.gzmat
O          0.00000        0.00000        0.00000
N          1.22060        0.00000        0.00000
O          1.89660        0.00000        1.01590
C          1.90720        0.00250       -1.28160
C          1.16740       -0.16610       -2.45550
C          1.82830       -0.15250       -3.67810
C          3.21440        0.02850       -3.72710
C          3.91810        0.08580       -5.04370
C          3.83580        1.51150       -5.64320
N          4.33880        2.56060       -4.74850
C          5.68800        2.51950       -4.35110
C          6.69100        1.97390       -5.16910
C          8.01890        2.03070       -4.75920
C          8.36560        2.62060       -3.54580
C          7.37100        3.17190       -2.73790
C          6.03910        3.12330       -3.12620
C          3.94210        0.18590       -2.54250
C          3.29380        0.17470       -1.31360
H          0.08230       -0.30510       -2.40790
H          1.26330       -0.28180       -4.60010
H          3.48780       -0.64110       -5.76170
H          4.98430       -0.20940       -4.93940
H          2.77800        1.76030       -5.89180
H          4.39890        1.54860       -6.60340
H          3.68500        2.77930       -3.99870
H          6.44160        1.52560       -6.12470
H          8.79520        1.60840       -5.39710
H          9.40450        2.65520       -3.23220
H          7.64060        3.64240       -1.79210
H          5.27180        3.55990       -2.49350
H          5.02440        0.32480       -2.58270
H          3.85770        0.29970       -0.38260
