48
rmsd60.gzmat
C          0.00000        0.00000        0.00000
C          1.40050        0.00000        0.00000
C          2.09890        0.00000        1.19650
C          1.37610       -0.00500        2.40220
C         -0.01860       -0.01020        2.42020
C         -0.70100       -0.00570        1.20630
O          2.17940       -0.00460        3.49690
C          1.54510       -0.01090        4.76900
C         -0.73850       -0.00570       -1.26630
C         -0.65170       -1.11060       -2.11950
C         -1.41980       -1.15180       -3.27850
C         -2.26760       -0.08860       -3.58840
C         -2.30350        1.04580       -2.77570
C         -1.54320        1.08330       -1.60750
S         -3.38040       -0.22200       -4.92570
O         -3.86170        1.09130       -5.28660
O         -2.86910       -1.13710       -5.92140
N         -4.71450       -1.10310       -4.20600
C         -5.77750       -0.34960       -3.51570
H         -5.66930        0.78080       -3.70240
C         -7.21900       -0.73000       -4.01150
C         -7.38600       -0.15120       -5.42500
C         -7.52650       -2.23030       -4.03300
P         -5.48890       -0.56970       -1.64970
O         -6.58000       -0.35950       -0.69840
O         -4.78900       -1.98340       -1.36630
O         -4.27810        0.48380       -1.51530
H          1.93980        0.00600       -0.94780
H          3.18580        0.00310        1.21970
H         -0.57350       -0.01980        3.35210
H         -1.79190       -0.01730        1.20070
H          2.40380       -0.01070        5.45550
H          0.94800       -0.91830        4.90410
H          0.94260        0.89230        4.90910
H          0.00160       -1.94140       -1.86270
H         -1.34980       -2.02590       -3.93470
H         -2.93160        1.90870       -3.03310
H         -1.57640        1.95710       -0.96100
H         -5.07650       -1.86960       -4.78000
H         -7.97800       -0.23010       -3.34960
H         -6.73230       -0.64220       -6.15370
H         -7.15370        0.92140       -5.45560
H         -8.41520       -0.27010       -5.77990
H         -6.81500       -2.80160       -4.63670
H         -8.52440       -2.41240       -4.45050
H         -7.53140       -2.67260       -3.02710
H         -4.17360       -2.20590       -2.15820
H         -4.00080        0.58400       -0.54490
