rmsd91.gzmat
 OpenBabel08211713423D

 48 49  0  0  1  0  0  0  0  0999 V2000
    0.0000    0.0000    0.0000 C   0  0  0  0  0  0  0  0  0  0  0  0
    1.4017    0.0000    0.0000 C   0  0  0  0  0  0  0  0  0  0  0  0
    2.1021    0.0000    1.1948 C   0  0  0  0  0  0  0  0  0  0  0  0
    1.3814   -0.0088    2.4019 C   0  0  0  0  0  0  0  0  0  0  0  0
   -0.0134   -0.0156    2.4216 C   0  0  0  0  0  0  0  0  0  0  0  0
   -0.6975   -0.0078    1.2082 C   0  0  0  0  0  0  0  0  0  0  0  0
    2.1890   -0.0111    3.4933 O   0  0  0  0  0  0  0  0  0  0  0  0
    1.5623    0.0132    4.7685 C   0  0  0  0  0  0  0  0  0  0  0  0
   -0.7343    0.0042   -1.2683 C   0  0  0  0  0  0  0  0  0  0  0  0
   -0.5168   -1.0117   -2.2056 C   0  0  0  0  0  0  0  0  0  0  0  0
   -1.2372   -1.0246   -3.3952 C   0  0  0  0  0  0  0  0  0  0  0  0
   -2.1688   -0.0197   -3.6566 C   0  0  0  0  0  0  0  0  0  0  0  0
   -2.3660    1.0132   -2.7389 C   0  0  0  0  0  0  0  0  0  0  0  0
   -1.6540    1.0198   -1.5405 C   0  0  0  0  0  0  0  0  0  0  0  0
   -3.1323   -0.0809   -5.1103 S   0  0  0  0  0  0  0  0  0  0  0  0
   -3.6470    1.2371   -5.4015 O   0  0  0  0  0  0  0  0  0  0  0  0
   -2.4584   -0.8697   -6.1175 O   0  0  0  0  0  0  0  0  0  0  0  0
   -4.4950   -1.0837   -4.6553 N   0  0  0  0  0  0  0  0  0  0  0  0
   -5.6986   -0.4361   -4.0916 C   0  0  1  0  0  0  0  0  0  0  0  0
   -5.6209    0.7101   -4.1614 H   0  0  0  0  0  0  0  0  0  0  0  0
   -6.9735   -0.8262   -4.9259 C   0  0  0  0  0  0  0  0  0  0  0  0
   -7.4009   -2.2945   -4.8401 C   0  0  0  0  0  0  0  0  0  0  0  0
   -8.1610    0.0860   -4.5977 C   0  0  0  0  0  0  0  0  0  0  0  0
   -5.6772   -0.8145   -2.2302 P   0  0  0  0  0  0  0  0  0  0  0  0
   -6.8899   -0.7098   -1.4194 O   0  0  0  0  0  0  0  0  0  0  0  0
   -4.9721   -2.2301   -1.9679 O   0  0  0  0  0  0  0  0  0  0  0  0
   -4.5277    0.2499   -1.8471 O   0  0  0  0  0  0  0  0  0  0  0  0
    1.9420    0.0074   -0.9476 H   0  0  0  0  0  0  0  0  0  0  0  0
    3.1893    0.0071    1.2163 H   0  0  0  0  0  0  0  0  0  0  0  0
   -0.5678   -0.0290    3.3536 H   0  0  0  0  0  0  0  0  0  0  0  0
   -1.7882   -0.0166    1.2030 H   0  0  0  0  0  0  0  0  0  0  0  0
    2.4254    0.0265    5.4492 H   0  0  0  0  0  0  0  0  0  0  0  0
    0.9635   -0.8892    4.9273 H   0  0  0  0  0  0  0  0  0  0  0  0
    0.9630    0.9205    4.8926 H   0  0  0  0  0  0  0  0  0  0  0  0
    0.2074   -1.7953   -1.9941 H   0  0  0  0  0  0  0  0  0  0  0  0
   -1.0577   -1.8274   -4.1185 H   0  0  0  0  0  0  0  0  0  0  0  0
   -3.0746    1.8274   -2.9430 H   0  0  0  0  0  0  0  0  0  0  0  0
   -1.8071    1.8202   -0.8202 H   0  0  0  0  0  0  0  0  0  0  0  0
   -4.7116   -1.8335   -5.3171 H   0  0  0  0  0  0  0  0  0  0  0  0
   -6.6809   -0.6200   -5.9942 H   0  0  0  0  0  0  0  0  0  0  0  0
   -7.9024   -2.5283   -3.8897 H   0  0  0  0  0  0  0  0  0  0  0  0
   -6.5594   -2.9881   -4.9364 H   0  0  0  0  0  0  0  0  0  0  0  0
   -8.1175   -2.5359   -5.6337 H   0  0  0  0  0  0  0  0  0  0  0  0
   -8.5878   -0.1202   -3.6057 H   0  0  0  0  0  0  0  0  0  0  0  0
   -8.9709   -0.0557   -5.3224 H   0  0  0  0  0  0  0  0  0  0  0  0
   -7.8844    1.1466   -4.6164 H   0  0  0  0  0  0  0  0  0  0  0  0
   -4.2395   -2.3642   -2.6753 H   0  0  0  0  0  0  0  0  0  0  0  0
   -4.3774    0.2590   -0.8448 H   0  0  0  0  0  0  0  0  0  0  0  0
  1  6  1  0  0  0  0
  2  1  2  0  0  0  0
  2  3  1  0  0  0  0
  3 29  1  0  0  0  0
  3  4  2  0  0  0  0
  4  5  1  0  0  0  0
  4  7  1  0  0  0  0
  5 30  1  0  0  0  0
  6  5  2  0  0  0  0
  7  8  1  0  0  0  0
  8 34  1  0  0  0  0
  8 33  1  0  0  0  0
  8 32  1  0  0  0  0
  9  1  1  0  0  0  0
 10 35  1  0  0  0  0
 10  9  2  0  0  0  0
 11 10  1  0  0  0  0
 12 11  2  0  0  0  0
 12 13  1  0  0  0  0
 13 14  2  0  0  0  0
 14  9  1  0  0  0  0
 14 38  1  0  0  0  0
 15 18  1  0  0  0  0
 15 12  1  0  0  0  0
 16 15  2  0  0  0  0
 17 15  2  0  0  0  0
 18 19  1  0  0  0  0
 19 20  1  6  0  0  0
 19 24  1  0  0  0  0
 21 22  1  0  0  0  0
 21 23  1  0  0  0  0
 21 19  1  0  0  0  0
 22 41  1  0  0  0  0
 23 44  1  0  0  0  0
 24 26  1  0  0  0  0
 24 27  1  0  0  0  0
 24 25  2  0  0  0  0
 27 48  1  0  0  0  0
 28  2  1  0  0  0  0
 31  6  1  0  0  0  0
 36 11  1  0  0  0  0
 37 13  1  0  0  0  0
 39 18  1  0  0  0  0
 40 21  1  0  0  0  0
 42 22  1  0  0  0  0
 43 22  1  0  0  0  0
 45 23  1  0  0  0  0
 46 23  1  0  0  0  0
 47 26  1  0  0  0  0
M  END
$$$$
