
     RDKit          3D

 48 49  0  0  0  0  0  0  0  0999 V2000
    0.0724    0.0391    0.0262 C   0  0  0  0  0  0  0  0  0  0  0  0
    1.4395    0.3218    0.2265 C   0  0  0  0  0  0  0  0  0  0  0  0
    2.0038    0.2998    1.4937 C   0  0  0  0  0  0  0  0  0  0  0  0
    1.2145   -0.0020    2.6177 C   0  0  0  0  0  0  0  0  0  0  0  0
   -0.1488   -0.2828    2.4405 C   0  0  0  0  0  0  0  0  0  0  0  0
   -0.7001   -0.2620    1.1580 C   0  0  0  0  0  0  0  0  0  0  0  0
    1.8479    0.0022    3.8123 O   0  0  0  0  0  0  0  0  0  0  0  0
    1.1155   -0.2998    4.9793 C   0  0  0  0  0  0  0  0  0  0  0  0
   -0.5241    0.0590   -1.3279 C   0  0  0  0  0  0  0  0  0  0  0  0
   -0.0643    0.9662   -2.3084 C   0  0  0  0  0  0  0  0  0  0  0  0
   -0.6098    0.9842   -3.5903 C   0  0  0  0  0  0  0  0  0  0  0  0
   -1.6179    0.0702   -3.9135 C   0  0  0  0  0  0  0  0  0  0  0  0
   -2.1028   -0.8296   -2.9640 C   0  0  0  0  0  0  0  0  0  0  0  0
   -1.5569   -0.8303   -1.6816 C   0  0  0  0  0  0  0  0  0  0  0  0
   -2.2322    0.0030   -5.5954 S   0  0  0  0  0  0  0  0  0  0  0  0
   -3.2493   -1.0483   -5.6364 O   0  0  0  0  0  0  0  0  0  0  0  0
   -2.4785    1.3675   -6.0509 O   0  0  0  0  0  0  0  0  0  0  0  0
   -0.9375   -0.5351   -6.5037 N   0  0  0  0  0  0  0  0  0  0  0  0
   -0.3509   -1.8496   -6.2568 C   0  0  1  0  0  0  0  0  0  0  0  0
   -1.0103   -2.4028   -5.5711 H   0  0  0  0  0  0  0  0  0  0  0  0
   -0.2217   -2.6665   -7.5626 C   0  0  0  0  0  0  0  0  0  0  0  0
   -1.6195   -2.9990   -8.0904 C   0  0  0  0  0  0  0  0  0  0  0  0
    0.6196   -1.9368   -8.6132 C   0  0  0  0  0  0  0  0  0  0  0  0
    1.2351   -1.5584   -5.3555 P   0  0  0  0  0  0  0  0  0  0  0  0
    1.7964   -0.2007   -5.6151 O   0  0  0  0  0  0  0  0  0  0  0  0
    0.9860   -1.8767   -3.7815 O   0  0  0  0  0  0  0  0  0  0  0  0
    2.1257   -2.8409   -5.7867 O   0  0  0  0  0  0  0  0  0  0  0  0
    2.0793    0.5369   -0.6320 H   0  0  0  0  0  0  0  0  0  0  0  0
    3.0646    0.5058    1.6465 H   0  0  0  0  0  0  0  0  0  0  0  0
   -0.7911   -0.5087    3.2910 H   0  0  0  0  0  0  0  0  0  0  0  0
   -1.7682   -0.4589    1.0455 H   0  0  0  0  0  0  0  0  0  0  0  0
    1.8233   -0.2426    5.8164 H   0  0  0  0  0  0  0  0  0  0  0  0
    0.6859   -1.3167    4.9403 H   0  0  0  0  0  0  0  0  0  0  0  0
    0.2994    0.4251    5.1488 H   0  0  0  0  0  0  0  0  0  0  0  0
    0.7134    1.6876   -2.0528 H   0  0  0  0  0  0  0  0  0  0  0  0
   -0.2420    1.6895   -4.3364 H   0  0  0  0  0  0  0  0  0  0  0  0
   -2.8856   -1.5335   -3.2494 H   0  0  0  0  0  0  0  0  0  0  0  0
   -1.9124   -1.5594   -0.9517 H   0  0  0  0  0  0  0  0  0  0  0  0
   -0.2582    0.2090   -6.6729 H   0  0  0  0  0  0  0  0  0  0  0  0
    0.2904   -3.6039   -7.2924 H   0  0  0  0  0  0  0  0  0  0  0  0
   -2.1902   -2.0783   -8.2829 H   0  0  0  0  0  0  0  0  0  0  0  0
   -2.1937   -3.5942   -7.3636 H   0  0  0  0  0  0  0  0  0  0  0  0
   -1.5529   -3.5709   -9.0290 H   0  0  0  0  0  0  0  0  0  0  0  0
    0.1337   -0.9950   -8.9133 H   0  0  0  0  0  0  0  0  0  0  0  0
    0.7278   -2.5577   -9.5156 H   0  0  0  0  0  0  0  0  0  0  0  0
    1.6288   -1.7003   -8.2436 H   0  0  0  0  0  0  0  0  0  0  0  0
    0.8349   -1.0603   -3.2739 H   0  0  0  0  0  0  0  0  0  0  0  0
    2.9979   -2.8388   -5.3634 H   0  0  0  0  0  0  0  0  0  0  0  0
  1  2  2  0
  1  6  1  0
  1  9  1  0
  2  3  1  0
  2 28  1  0
  3  4  2  0
  3 29  1  0
  4  5  1  0
  4  7  1  0
  5  6  2  0
  5 30  1  0
  6 31  1  0
  7  8  1  0
  8 32  1  0
  8 33  1  0
  8 34  1  0
  9 10  2  0
  9 14  1  0
 10 11  1  0
 10 35  1  0
 11 12  2  0
 11 36  1  0
 12 13  1  0
 12 15  1  0
 13 14  2  0
 13 37  1  0
 14 38  1  0
 15 16  2  0
 15 17  2  0
 15 18  1  0
 18 19  1  0
 18 39  1  0
 19 20  1  1
 19 21  1  0
 19 24  1  0
 21 22  1  0
 21 23  1  0
 21 40  1  0
 22 41  1  0
 22 42  1  0
 22 43  1  0
 23 44  1  0
 23 45  1  0
 23 46  1  0
 24 25  2  0
 24 26  1  0
 24 27  1  0
 26 47  1  0
 27 48  1  0
M  END

