48

C          0.07240        0.03910        0.02620
C          1.43950        0.32180        0.22650
C          2.00380        0.29980        1.49370
C          1.21450       -0.00200        2.61770
C         -0.14880       -0.28280        2.44050
C         -0.70010       -0.26200        1.15800
O          1.84790        0.00220        3.81230
C          1.11550       -0.29980        4.97930
C         -0.52410        0.05900       -1.32790
C         -0.06430        0.96620       -2.30840
C         -0.60980        0.98420       -3.59030
C         -1.61790        0.07020       -3.91350
C         -2.10280       -0.82960       -2.96400
C         -1.55690       -0.83030       -1.68160
S         -2.23220        0.00300       -5.59540
O         -3.24930       -1.04830       -5.63640
O         -2.47850        1.36750       -6.05090
N         -0.93750       -0.53510       -6.50370
C         -0.35090       -1.84960       -6.25680
H         -1.01030       -2.40280       -5.57110
C         -0.22170       -2.66650       -7.56260
C         -1.61950       -2.99900       -8.09040
C          0.61960       -1.93680       -8.61320
P          1.23510       -1.55840       -5.35550
O          1.79640       -0.20070       -5.61510
O          0.98600       -1.87670       -3.78150
O          2.12570       -2.84090       -5.78670
H          2.07930        0.53690       -0.63200
H          3.06460        0.50580        1.64650
H         -0.79110       -0.50870        3.29100
H         -1.76820       -0.45890        1.04550
H          1.82330       -0.24260        5.81640
H          0.68590       -1.31670        4.94030
H          0.29940        0.42510        5.14880
H          0.71340        1.68760       -2.05280
H         -0.24200        1.68950       -4.33640
H         -2.88560       -1.53350       -3.24940
H         -1.91240       -1.55940       -0.95170
H         -0.25820        0.20900       -6.67290
H          0.29040       -3.60390       -7.29240
H         -2.19020       -2.07830       -8.28290
H         -2.19370       -3.59420       -7.36360
H         -1.55290       -3.57090       -9.02900
H          0.13370       -0.99500       -8.91330
H          0.72780       -2.55770       -9.51560
H          1.62880       -1.70030       -8.24360
H          0.83490       -1.06030       -3.27390
H          2.99790       -2.83880       -5.36340
