rmsd248.gzmat
 OpenBabel08211713423D

 48 48  0  0  0  0  0  0  0  0999 V2000
    0.0000    0.0000    0.0000 C   0  0  0  0  0  0  0  0  0  0  0  0
    1.3939    0.0000    0.0000 C   0  0  0  0  0  0  0  0  0  0  0  0
    2.1028    0.0000    1.2002 C   0  0  0  0  0  0  0  0  0  0  0  0
    1.3880   -0.0083    2.3974 C   0  0  0  0  0  0  0  0  0  0  0  0
   -0.0182   -0.0073    2.4178 C   0  0  0  0  0  0  0  0  0  0  0  0
   -0.7018   -0.0014    1.2142 C   0  0  0  0  0  0  0  0  0  0  0  0
    1.9257   -0.0183    3.6438 O   0  0  0  0  0  0  0  0  0  0  0  0
    3.3420   -0.0500    3.7483 C   0  0  0  0  0  0  0  0  0  0  0  0
   -0.7500   -0.0066   -1.2597 C   0  0  0  0  0  0  0  0  0  0  0  0
   -0.5909   -1.0616   -2.1645 C   0  0  0  0  0  0  0  0  0  0  0  0
   -1.3541   -1.1002   -3.3271 C   0  0  0  0  0  0  0  0  0  0  0  0
   -2.2705   -0.0826   -3.5925 C   0  0  0  0  0  0  0  0  0  0  0  0
   -2.3936    0.9992   -2.7191 C   0  0  0  0  0  0  0  0  0  0  0  0
   -1.6388    1.0323   -1.5478 C   0  0  0  0  0  0  0  0  0  0  0  0
   -3.3302   -0.1969   -4.9748 S   0  0  0  0  0  0  0  0  0  0  0  0
   -3.8653    1.1096   -5.2800 O   0  0  0  0  0  0  0  0  0  0  0  0
   -2.7303   -1.0232   -5.9991 O   0  0  0  0  0  0  0  0  0  0  0  0
   -4.6467   -1.1888   -4.3768 N   0  0  0  0  0  0  0  0  0  0  0  0
   -5.8020   -0.5312   -3.7368 C   0  0  0  0  0  0  0  0  0  0  0  0
   -5.7671    0.6084   -3.8921 H   0  0  0  0  0  0  0  0  0  0  0  0
   -7.1785   -1.0062   -4.3267 C   0  0  0  0  0  0  0  0  0  0  0  0
   -7.2914   -0.4377   -5.7496 C   0  0  0  0  0  0  0  0  0  0  0  0
   -7.3841   -2.5241   -4.3648 C   0  0  0  0  0  0  0  0  0  0  0  0
   -5.6077   -0.7790   -1.8639 P   0  0  0  0  0  0  0  0  0  0  0  0
   -6.7635   -0.6664   -0.9749 O   0  0  0  0  0  0  0  0  0  0  0  0
   -4.8287   -2.1484   -1.5715 O   0  0  0  0  0  0  0  0  0  0  0  0
   -4.4813    0.3499   -1.6360 O   0  0  0  0  0  0  0  0  0  0  0  0
    1.9363    0.0053   -0.9459 H   0  0  0  0  0  0  0  0  0  0  0  0
    3.1870    0.0059    1.1864 H   0  0  0  0  0  0  0  0  0  0  0  0
   -0.5424   -0.0136    3.3708 H   0  0  0  0  0  0  0  0  0  0  0  0
   -1.7928   -0.0094    1.2040 H   0  0  0  0  0  0  0  0  0  0  0  0
    3.4900   -0.0891    4.8369 H   0  0  0  0  0  0  0  0  0  0  0  0
    3.7840    0.8612    3.3348 H   0  0  0  0  0  0  0  0  0  0  0  0
    3.7523   -0.9468    3.2751 H   0  0  0  0  0  0  0  0  0  0  0  0
    0.1173   -1.8579   -1.9467 H   0  0  0  0  0  0  0  0  0  0  0  0
   -1.2228   -1.9349   -4.0240 H   0  0  0  0  0  0  0  0  0  0  0  0
   -3.0821    1.8273   -2.9356 H   0  0  0  0  0  0  0  0  0  0  0  0
   -1.7382    1.8676   -0.8582 H   0  0  0  0  0  0  0  0  0  0  0  0
   -4.9219   -1.9463   -5.0096 H   0  0  0  0  0  0  0  0  0  0  0  0
   -8.0099   -0.5590   -3.7161 H   0  0  0  0  0  0  0  0  0  0  0  0
   -6.5789   -0.9018   -6.4393 H   0  0  0  0  0  0  0  0  0  0  0  0
   -7.1059    0.6438   -5.7735 H   0  0  0  0  0  0  0  0  0  0  0  0
   -8.2935   -0.6022   -6.1598 H   0  0  0  0  0  0  0  0  0  0  0  0
   -6.5498   -3.0565   -4.8317 H   0  0  0  0  0  0  0  0  0  0  0  0
   -8.2882   -2.7777   -4.9317 H   0  0  0  0  0  0  0  0  0  0  0  0
   -7.5214   -2.9523   -3.3621 H   0  0  0  0  0  0  0  0  0  0  0  0
   -4.1675   -2.3152   -2.3401 H   0  0  0  0  0  0  0  0  0  0  0  0
   -4.2739    0.4456   -0.6480 H   0  0  0  0  0  0  0  0  0  0  0  0
  1  6  1  0  0  0  0
  2  1  2  0  0  0  0
  2  3  1  0  0  0  0
  3  4  2  0  0  0  0
  4  5  1  0  0  0  0
  4  7  1  0  0  0  0
  5 30  1  0  0  0  0
  6  5  2  0  0  0  0
  7  8  1  0  0  0  0
  8 32  1  0  0  0  0
  9  1  1  0  0  0  0
 10 35  1  0  0  0  0
 10  9  2  0  0  0  0
 11 10  1  0  0  0  0
 12 11  2  0  0  0  0
 12 13  1  0  0  0  0
 13 14  2  0  0  0  0
 14  9  1  0  0  0  0
 14 38  1  0  0  0  0
 15 18  1  0  0  0  0
 15 12  1  0  0  0  0
 16 15  2  0  0  0  0
 17 15  2  0  0  0  0
 18 19  1  0  0  0  0
 20 19  1  0  0  0  0
 21 19  1  0  0  0  0
 21 40  1  0  0  0  0
 22 21  1  0  0  0  0
 23 21  1  0  0  0  0
 23 46  1  0  0  0  0
 24 27  1  0  0  0  0
 24 26  1  0  0  0  0
 24 25  1  0  0  0  0
 27 48  1  0  0  0  0
 28  2  1  0  0  0  0
 29  3  1  0  0  0  0
 31  6  1  0  0  0  0
 33  8  1  0  0  0  0
 34  8  1  0  0  0  0
 36 11  1  0  0  0  0
 37 13  1  0  0  0  0
 39 18  1  0  0  0  0
 41 22  1  0  0  0  0
 42 22  1  0  0  0  0
 43 22  1  0  0  0  0
 44 23  1  0  0  0  0
 45 23  1  0  0  0  0
 47 26  1  0  0  0  0
M  RAD  2  19   2  25   2
M  END
$$$$
