48
rmsd76.gzmat
C          0.00000        0.00000        0.00000
C          1.40080        0.00000        0.00000
C          2.10000        0.00000        1.19600
C          1.37760       -0.00540        2.40200
C         -0.01690       -0.00920        2.42050
C         -0.69940       -0.00490        1.20650
O          2.18280       -0.00630        3.49530
C          1.55180       -0.03230        4.76850
C         -0.74190       -0.00150       -1.26460
C         -0.62670       -1.08540       -2.14130
C         -1.38090       -1.11480       -3.30970
C         -2.24340       -0.06000       -3.60810
C         -2.32170        1.04740       -2.76200
C         -1.57660        1.07190       -1.58400
S         -3.28980       -0.15750       -5.00160
O         -3.74830        1.16620       -5.35450
O         -2.72120       -1.04660       -5.99060
N         -4.66800       -1.05700       -4.39590
C         -5.80410       -0.31530       -3.81670
H         -5.70230        0.81480       -4.00980
C         -7.18650       -0.73600       -4.43410
C         -7.22030       -0.23060       -5.88500
C         -7.48150       -2.23970       -4.41110
P         -5.67380       -0.50490       -1.93190
O         -6.83350       -0.26300       -1.07410
O         -5.01650       -1.92080       -1.56950
O         -4.46350        0.53690       -1.71740
H          1.94080        0.00560       -0.94740
H          3.18730        0.00310        1.21970
H         -0.57250       -0.01590        3.35180
H         -1.79010       -0.01470        1.20020
H          2.41210       -0.03620        5.45240
H          0.96030       -0.94480        4.89230
H          0.94520        0.86510        4.92400
H          0.04040       -1.90880       -1.89650
H         -1.28530       -1.97190       -3.98520
H         -2.96650        1.90270       -3.00590
H         -1.64030        1.92630       -0.91380
H         -4.96580       -1.82640       -5.00320
H         -8.00870       -0.21250       -3.87390
H         -6.53580       -0.78800       -6.53260
H         -6.94330        0.82890       -5.95860
H         -8.22380       -0.33020       -6.31250
H         -6.66710       -2.84200       -4.82500
H         -8.38160       -2.46710       -4.99540
H         -7.67450       -2.61130       -3.39480
H         -4.33650       -2.15960       -2.30150
H         -4.27780        0.66120       -0.72890
