48
rmsd67.gzmat
C          0.00000        0.00000        0.00000
C          1.40180        0.00000        0.00000
C          2.10300        0.00000        1.19460
C          1.38330       -0.00540        2.40240
C         -0.01110       -0.00550        2.42260
C         -0.69560        0.00010        1.20930
O          2.19130       -0.01280        3.49380
C          1.56520       -0.00730        4.76980
C         -0.73410       -0.00580       -1.26890
C         -0.47890       -0.99770       -2.21930
C         -1.18110       -1.00570       -3.42420
C         -2.12730       -0.01280       -3.68350
C         -2.38700        0.97400       -2.73350
C         -1.69400        0.97760       -1.52640
S         -2.95230        0.01960       -5.22870
O         -2.74840       -1.25780       -5.87370
O         -4.26860        0.58420       -5.02860
N         -2.15700        1.20170       -6.22070
C         -0.84020        0.98440       -6.81060
H         -0.66880       -0.13950       -6.96930
C         -0.79650        1.66920       -8.23630
C          0.50110        1.37730       -8.99920
C         -1.97020        1.10410       -9.05350
P          0.51780        1.55690       -5.60750
O          1.89720        1.86680       -5.99360
O         -0.24660        2.78310       -4.90110
O          0.40870        0.36920       -4.53240
H          1.94020        0.00510       -0.94810
H          3.19010        0.00270        1.21670
H         -0.56490       -0.01090        3.35470
H         -1.78620       -0.00340        1.20540
H          2.42790       -0.02890        5.45020
H          0.94750       -0.89980        4.90860
H          0.98640        0.90970        4.91620
H          0.25610       -1.77200       -2.01190
H         -0.97830       -1.79720       -4.15640
H         -3.13440        1.75210       -2.91940
H         -1.88920        1.75020       -0.78680
H         -2.46520        2.16790       -6.14600
H         -0.93050        2.77440       -8.14390
H          0.75430        0.31120       -8.99300
H          1.36730        1.92290       -8.59890
H          0.40990        1.68250      -10.04800
H         -1.91470        0.01240       -9.13880
H         -1.98250        1.51820      -10.06570
H         -2.93840        1.33810       -8.59260
H          0.39590        3.32490       -4.33450
H          1.18430        0.38820       -3.87930
