
     RDKit          3D

 48 49  0  0  0  0  0  0  0  0999 V2000
   -0.0301    0.0416   -0.0052 C   0  0  0  0  0  0  0  0  0  0  0  0
    1.2137   -0.6167    0.0885 C   0  0  0  0  0  0  0  0  0  0  0  0
    1.8952   -0.7069    1.2938 C   0  0  0  0  0  0  0  0  0  0  0  0
    1.3522   -0.1423    2.4615 C   0  0  0  0  0  0  0  0  0  0  0  0
    0.1145    0.5151    2.3911 C   0  0  0  0  0  0  0  0  0  0  0  0
   -0.5560    0.6011    1.1694 C   0  0  0  0  0  0  0  0  0  0  0  0
    2.0843   -0.2806    3.5900 O   0  0  0  0  0  0  0  0  0  0  0  0
    1.6016    0.2729    4.7940 C   0  0  0  0  0  0  0  0  0  0  0  0
   -0.7555    0.1360   -1.2920 C   0  0  0  0  0  0  0  0  0  0  0  0
   -0.6821   -0.9052   -2.2417 C   0  0  0  0  0  0  0  0  0  0  0  0
   -1.3707   -0.8297   -3.4467 C   0  0  0  0  0  0  0  0  0  0  0  0
   -2.1588    0.2942   -3.7081 C   0  0  0  0  0  0  0  0  0  0  0  0
   -2.2444    1.3469   -2.8000 C   0  0  0  0  0  0  0  0  0  0  0  0
   -1.5380    1.2637   -1.6021 C   0  0  0  0  0  0  0  0  0  0  0  0
   -3.1123    0.3489   -5.2073 S   0  0  0  0  0  0  0  0  0  0  0  0
   -3.7775    1.6539   -5.2724 O   0  0  0  0  0  0  0  0  0  0  0  0
   -2.3228   -0.1720   -6.3236 O   0  0  0  0  0  0  0  0  0  0  0  0
   -4.2652   -0.8759   -4.9250 N   0  0  0  0  0  0  0  0  0  0  0  0
   -5.5319   -0.5269   -4.2649 C   0  0  1  0  0  0  0  0  0  0  0  0
   -5.4806    0.5306   -3.9606 H   0  0  0  0  0  0  0  0  0  0  0  0
   -6.7644   -0.7024   -5.1797 C   0  0  0  0  0  0  0  0  0  0  0  0
   -8.0233   -0.1521   -4.4999 C   0  0  0  0  0  0  0  0  0  0  0  0
   -6.5397   -0.0172   -6.5337 C   0  0  0  0  0  0  0  0  0  0  0  0
   -5.5920   -1.5213   -2.7036 P   0  0  0  0  0  0  0  0  0  0  0  0
   -6.8936   -1.8271   -2.0611 O   0  0  0  0  0  0  0  0  0  0  0  0
   -4.7588   -2.8602   -3.0852 O   0  0  0  0  0  0  0  0  0  0  0  0
   -4.5693   -0.6213   -1.8005 O   0  0  0  0  0  0  0  0  0  0  0  0
    1.6689   -1.0419   -0.8081 H   0  0  0  0  0  0  0  0  0  0  0  0
    2.8638   -1.2049    1.3622 H   0  0  0  0  0  0  0  0  0  0  0  0
   -0.3397    0.9544    3.2786 H   0  0  0  0  0  0  0  0  0  0  0  0
   -1.5284    1.0972    1.1421 H   0  0  0  0  0  0  0  0  0  0  0  0
    2.3508    0.0486    5.5642 H   0  0  0  0  0  0  0  0  0  0  0  0
    0.6361   -0.1740    5.0914 H   0  0  0  0  0  0  0  0  0  0  0  0
    1.4788    1.3682    4.7198 H   0  0  0  0  0  0  0  0  0  0  0  0
   -0.0926   -1.7963   -2.0194 H   0  0  0  0  0  0  0  0  0  0  0  0
   -1.3071   -1.6359   -4.1799 H   0  0  0  0  0  0  0  0  0  0  0  0
   -2.8590    2.2152   -3.0388 H   0  0  0  0  0  0  0  0  0  0  0  0
   -1.5810    2.0987   -0.9008 H   0  0  0  0  0  0  0  0  0  0  0  0
   -4.3713   -1.3854   -5.8026 H   0  0  0  0  0  0  0  0  0  0  0  0
   -6.9053   -1.7869   -5.3472 H   0  0  0  0  0  0  0  0  0  0  0  0
   -7.9237    0.9344   -4.3362 H   0  0  0  0  0  0  0  0  0  0  0  0
   -8.2028   -0.6377   -3.5321 H   0  0  0  0  0  0  0  0  0  0  0  0
   -8.9020   -0.3133   -5.1427 H   0  0  0  0  0  0  0  0  0  0  0  0
   -6.3039    1.0496   -6.3959 H   0  0  0  0  0  0  0  0  0  0  0  0
   -7.4480   -0.0966   -7.1497 H   0  0  0  0  0  0  0  0  0  0  0  0
   -5.7151   -0.4589   -7.1144 H   0  0  0  0  0  0  0  0  0  0  0  0
   -4.0158   -2.5976   -3.6585 H   0  0  0  0  0  0  0  0  0  0  0  0
   -4.5455   -0.9256   -0.8806 H   0  0  0  0  0  0  0  0  0  0  0  0
  1  2  2  0
  1  6  1  0
  1  9  1  0
  2  3  1  0
  2 28  1  0
  3  4  2  0
  3 29  1  0
  4  5  1  0
  4  7  1  0
  5  6  2  0
  5 30  1  0
  6 31  1  0
  7  8  1  0
  8 32  1  0
  8 33  1  0
  8 34  1  0
  9 10  2  0
  9 14  1  0
 10 11  1  0
 10 35  1  0
 11 12  2  0
 11 36  1  0
 12 13  1  0
 12 15  1  0
 13 14  2  0
 13 37  1  0
 14 38  1  0
 15 16  2  0
 15 17  2  0
 15 18  1  0
 18 19  1  0
 18 39  1  0
 19 20  1  1
 19 21  1  0
 19 24  1  0
 21 22  1  0
 21 23  1  0
 21 40  1  0
 22 41  1  0
 22 42  1  0
 22 43  1  0
 23 44  1  0
 23 45  1  0
 23 46  1  0
 24 25  2  0
 24 26  1  0
 24 27  1  0
 26 47  1  0
 27 48  1  0
M  END

