48

C         -0.16940       -0.15250       -0.35880
C          1.22260       -0.07490       -0.57570
C          2.10460        0.02750        0.49090
C          1.62320        0.05150        1.81230
C          0.24050       -0.01780        2.04300
C         -0.63790       -0.11330        0.96090
O          2.55750        0.14780        2.78670
C          2.14340        0.18580        4.13370
C         -1.08530       -0.24110       -1.51590
C         -0.76520       -1.06370       -2.61090
C         -1.53370       -1.04410       -3.77040
C         -2.62970       -0.18070       -3.84890
C         -3.02900        0.58010       -2.74580
C         -2.25940        0.53990       -1.58310
S         -3.31440        0.18990       -5.45660
O         -3.08780       -0.97150       -6.31570
O         -4.62050        0.81810       -5.28170
N         -2.30550        1.40900       -6.03050
C         -0.89970        1.11300       -6.27690
H         -0.77190        0.02350       -6.18970
C         -0.44470        1.48880       -7.70820
C          0.96880        0.96230       -7.97840
C         -1.43860        0.93640       -8.73310
P          0.20000        1.78110       -4.93120
O          1.19780        0.83630       -4.35810
O          0.80260        3.12180       -5.62210
O         -0.80590        2.45470       -3.84070
H          1.60200       -0.05000       -1.60070
H          3.18160        0.10240        0.33130
H         -0.16140       -0.00610        3.05560
H         -1.71070       -0.18470        1.15550
H          3.05530        0.26670        4.73960
H          1.60150       -0.73280        4.42160
H          1.49730        1.05820        4.33890
H          0.11730       -1.70210       -2.56270
H         -1.27210       -1.66590       -4.62690
H         -3.89920        1.23310       -2.82910
H         -2.53460        1.16740       -0.73280
H         -2.51370        2.29880       -5.58110
H         -0.43140        2.58920       -7.77900
H          0.99230       -0.13840       -7.91190
H          1.71030        1.35980       -7.27140
H          1.29160        1.24220       -8.99270
H         -1.51710       -0.15970       -8.65330
H         -1.10910        1.18730       -9.75340
H         -2.44480        1.34730       -8.57830
H          1.55310        3.46880       -5.11600
H         -0.98330        1.87680       -3.07830
