48

C         -0.05130       -0.03010        0.08060
C          1.12340       -0.80460        0.17770
C          1.86240       -0.85370        1.35100
C          1.44880       -0.12860        2.48250
C          0.28170        0.64670        2.40840
C         -0.44780        0.68900        1.21860
O          2.22870       -0.23820        3.58190
C          1.87560        0.47230        4.74800
C         -0.83890        0.01910       -1.17150
C         -0.92780       -1.10930       -2.01420
C         -1.67780       -1.07600       -3.18380
C         -2.36600        0.09440       -3.51530
C         -2.28940        1.23180       -2.71480
C         -1.52150        1.18880       -1.55320
S         -3.40370        0.10650       -4.95880
O         -3.97350        1.45050       -5.09590
O         -2.73110       -0.56090       -6.07330
N         -4.61950       -0.99790       -4.50240
C         -5.77350       -0.50460       -3.73720
H         -5.63900        0.57350       -3.56020
C         -7.11670       -0.70660       -4.46720
C         -7.16130        0.13410       -5.74650
C         -7.42690       -2.18340       -4.73690
P         -5.75670       -1.30670       -2.07400
O         -7.05050       -1.49170       -1.37250
O         -4.95980       -2.69500       -2.33750
O         -4.68920       -0.33280       -1.31100
H          1.47960       -1.35750       -0.69380
H          2.77840       -1.44290        1.42060
H         -0.07270        1.21230        3.26940
H         -1.36530        1.28050        1.19020
H          2.64240        0.24210        5.49890
H          0.88920        0.15950        5.13440
H          1.85960        1.56290        4.57280
H         -0.41880       -2.03280       -1.73350
H         -1.73870       -1.95020       -3.83490
H         -2.83030        2.13240       -3.00650
H         -1.43830        2.08610       -0.93790
H         -4.85830       -1.53620       -5.33650
H         -7.88140       -0.33050       -3.76810
H         -6.41210       -0.20390       -6.48130
H         -6.95420        1.19470       -5.54110
H         -8.14970        0.05580       -6.22450
H         -6.67430       -2.65050       -5.39610
H         -8.39780       -2.28010       -5.24580
H         -7.47490       -2.76230       -3.80350
H         -4.31510       -2.53520       -3.05240
H         -4.65340       -0.52150       -0.36090
