48
rmsd29.gzmat
C          0.00000        0.00000        0.00000
C          1.40260        0.00000        0.00000
C          2.10100        0.00000        1.19510
C          1.37680        0.01250        2.40040
C         -0.01780        0.00990        2.41950
C         -0.70110       -0.00170        1.20450
O          2.18380        0.02240        3.49250
C          1.55860        0.10020        4.76600
C         -0.70830       -0.00160       -1.28260
C         -0.48690        1.03400       -2.19560
C         -1.07880        0.98690       -3.45380
C         -1.88280       -0.09860       -3.80190
C         -2.15430       -1.10290       -2.87200
C         -1.57120       -1.05140       -1.60720
S         -2.42750       -0.27380       -5.45300
O         -3.39010       -1.34900       -5.50730
O         -2.69880        1.03120       -6.01240
N         -1.02550       -0.79880       -6.33300
C         -0.45650       -2.13710       -6.23000
H         -1.26190       -2.88190       -5.89890
C          0.07010       -2.60740       -7.64100
C          0.46100       -4.09010       -7.64360
C         -1.06700       -2.40580       -8.65640
P          0.84260       -2.07040       -4.83450
O          1.65260       -0.87960       -4.55350
O         -0.12040       -2.49860       -3.62120
O          1.70960       -3.39130       -5.11580
H          1.94040       -0.00270       -0.95140
H          3.18790       -0.00500        1.21920
H         -0.57330        0.01760        3.35030
H         -1.79140       -0.00270        1.19750
H          2.42250        0.13380        5.44480
H          0.95510       -0.79210        4.95850
H          0.96560        1.01550        4.85740
H          0.16360        1.86410       -1.92750
H         -0.88910        1.80000       -4.16230
H         -2.80530       -1.94800       -3.12810
H         -1.76800       -1.83720       -0.88180
H         -0.48310       -0.10360       -6.83710
H          0.94490       -1.99440       -7.96730
H         -0.30900       -4.71960       -7.18330
H          1.40230       -4.28650       -7.11040
H          0.61220       -4.45020       -8.66750
H         -1.98670       -2.91170       -8.33770
H         -0.79260       -2.80130       -9.63890
H         -1.31640       -1.34670       -8.79160
H          0.29700       -2.28720       -2.72090
H          2.54360       -3.39670       -4.53620
