48
rmsd102.gzmat
C          0.00000        0.00000        0.00000
C          1.39520        0.00000        0.00000
C          2.10530        0.00000        1.19880
C          1.39210       -0.00860        2.39750
C         -0.01360       -0.01920        2.41840
C         -0.69890       -0.01090        1.21510
O          1.93480       -0.01180        3.64210
C          3.35200        0.04590        3.73550
C         -0.73900        0.00710       -1.26610
C         -0.51290       -0.99790       -2.21340
C         -1.23190       -1.00520       -3.40420
C         -2.17360       -0.00760       -3.65640
C         -2.38420        1.01150       -2.72630
C         -1.67160        1.01450       -1.52810
S         -3.13440       -0.06450       -5.11280
O         -3.67840        1.24620       -5.38220
O         -2.43990       -0.81730       -6.13410
N         -4.46980       -1.11480       -4.67830
C         -5.69170       -0.50830       -4.10690
H         -5.66280        0.63620       -4.16920
C         -6.98560       -0.96900       -4.87380
C         -8.23200       -0.21510       -4.39270
C         -6.79260       -0.66800       -6.37020
P         -5.62120       -0.94180       -2.25480
O         -6.82090       -0.90300       -1.41910
O         -4.88720       -2.35320       -2.06140
O         -4.49110        0.13430       -1.85360
H          1.93770        0.00760       -0.94600
H          3.18980        0.00510        1.18290
H         -0.53810       -0.03310        3.37100
H         -1.78970       -0.02070        1.20970
H          3.51180        0.04090        4.82290
H          3.73480        0.97280        3.29730
H          3.81080       -0.83640        3.27880
H          0.21630       -1.77880       -2.00950
H         -1.04440       -1.79940       -4.13510
H         -3.10480        1.81750       -2.92150
H         -1.83310        1.80660       -0.80020
H         -4.66750       -1.84790       -5.36530
H         -7.15590       -2.06690       -4.75360
H         -8.08570        0.87100       -4.40810
H         -8.52840       -0.49030       -3.36990
H         -9.09530       -0.43990       -5.02900
H         -6.45540        0.36420       -6.53540
H         -7.73420       -0.78870       -6.91840
H         -6.06850       -1.33470       -6.84700
H         -4.15230       -2.44250       -2.77300
H         -4.32240        0.11010       -0.85390
