48

C          0.08070       -0.01190       -0.09640
C          1.44730        0.27110        0.10620
C          2.01210        0.23670        1.37300
C          1.22360       -0.07820        2.49390
C         -0.13930       -0.35980        2.31420
C         -0.69100       -0.32650        1.03210
O          1.85730       -0.08540        3.68830
C          1.12600       -0.40170        4.85220
C         -0.51550        0.02070       -1.45060
C         -0.06140        0.94230       -2.41960
C         -0.60020        0.96730       -3.70410
C         -1.59970        0.04900       -4.03930
C         -2.08420       -0.86220       -3.09890
C         -1.54220       -0.87260       -1.81510
S         -2.18020       -0.03300       -5.73410
O         -3.24240       -1.03920       -5.76840
O         -2.35550        1.32530       -6.23810
N         -0.87990       -0.65780       -6.58710
C         -0.33110       -1.95040       -6.18190
H         -0.99060       -2.37800       -5.41010
C         -0.26060       -2.97900       -7.33830
C         -0.10220       -4.39580       -6.77580
C         -1.51480       -2.87880       -8.21120
P          1.27440       -1.55610       -5.33380
O          1.70010       -0.14400       -5.56840
O          1.11650       -1.95690       -3.76960
O          2.30150       -2.69270       -5.85780
H          2.08620        0.49620       -0.75050
H          3.07260        0.44280        1.52760
H         -0.78080       -0.59590        3.16250
H         -1.75870       -0.52460        0.91760
H          1.83410       -0.35210        5.68960
H          0.69860       -1.41900        4.80230
H          0.30850        0.31960        5.02980
H          0.71120        1.66570       -2.15440
H         -0.23240        1.67700       -4.44500
H         -2.86440       -1.56550       -3.39280
H         -1.89500       -1.61060       -1.09290
H         -0.17520        0.06450       -6.75420
H          0.62150       -2.74340       -7.95830
H         -0.99710       -4.67750       -6.19510
H          0.77780       -4.49050       -6.12590
H          0.00440       -5.12370       -7.59450
H         -2.42560       -3.00660       -7.60470
H         -1.49730       -3.66160       -8.98550
H         -1.58820       -1.89990       -8.70240
H          0.86090       -1.19180       -3.22530
H          3.22000       -2.45330       -5.65900
