48
rmsd91.gzmat
C          0.00000        0.00000        0.00000
C          1.40170        0.00000        0.00000
C          2.10210        0.00000        1.19480
C          1.38140       -0.00880        2.40190
C         -0.01340       -0.01560        2.42160
C         -0.69750       -0.00780        1.20820
O          2.18900       -0.01110        3.49330
C          1.56230        0.01320        4.76850
C         -0.73430        0.00420       -1.26830
C         -0.51680       -1.01170       -2.20560
C         -1.23720       -1.02460       -3.39520
C         -2.16880       -0.01970       -3.65660
C         -2.36600        1.01320       -2.73890
C         -1.65400        1.01980       -1.54050
S         -3.13230       -0.08090       -5.11030
O         -3.64700        1.23710       -5.40150
O         -2.45840       -0.86970       -6.11750
N         -4.49500       -1.08370       -4.65530
C         -5.69860       -0.43610       -4.09160
H         -5.62090        0.71010       -4.16140
C         -6.97350       -0.82620       -4.92590
C         -7.40090       -2.29450       -4.84010
C         -8.16100        0.08600       -4.59770
P         -5.67720       -0.81450       -2.23020
O         -6.88990       -0.70980       -1.41940
O         -4.97210       -2.23010       -1.96790
O         -4.52770        0.24990       -1.84710
H          1.94200        0.00740       -0.94760
H          3.18930        0.00710        1.21630
H         -0.56780       -0.02900        3.35360
H         -1.78820       -0.01660        1.20300
H          2.42540        0.02650        5.44920
H          0.96350       -0.88920        4.92730
H          0.96300        0.92050        4.89260
H          0.20740       -1.79530       -1.99410
H         -1.05770       -1.82740       -4.11850
H         -3.07460        1.82740       -2.94300
H         -1.80710        1.82020       -0.82020
H         -4.71160       -1.83350       -5.31710
H         -6.68090       -0.62000       -5.99420
H         -7.90240       -2.52830       -3.88970
H         -6.55940       -2.98810       -4.93640
H         -8.11750       -2.53590       -5.63370
H         -8.58780       -0.12020       -3.60570
H         -8.97090       -0.05570       -5.32240
H         -7.88440        1.14660       -4.61640
H         -4.23950       -2.36420       -2.67530
H         -4.37740        0.25900       -0.84480
