rmsd102.gzmat
 OpenBabel08211713423D

 48 49  0  0  1  0  0  0  0  0999 V2000
    0.0000    0.0000    0.0000 C   0  0  0  0  0  0  0  0  0  0  0  0
    1.3952    0.0000    0.0000 C   0  0  0  0  0  0  0  0  0  0  0  0
    2.1053    0.0000    1.1988 C   0  0  0  0  0  0  0  0  0  0  0  0
    1.3921   -0.0086    2.3975 C   0  0  0  0  0  0  0  0  0  0  0  0
   -0.0136   -0.0192    2.4184 C   0  0  0  0  0  0  0  0  0  0  0  0
   -0.6989   -0.0109    1.2151 C   0  0  0  0  0  0  0  0  0  0  0  0
    1.9348   -0.0118    3.6421 O   0  0  0  0  0  0  0  0  0  0  0  0
    3.3520    0.0459    3.7355 C   0  0  0  0  0  0  0  0  0  0  0  0
   -0.7390    0.0071   -1.2661 C   0  0  0  0  0  0  0  0  0  0  0  0
   -0.5129   -0.9979   -2.2134 C   0  0  0  0  0  0  0  0  0  0  0  0
   -1.2319   -1.0052   -3.4042 C   0  0  0  0  0  0  0  0  0  0  0  0
   -2.1736   -0.0076   -3.6564 C   0  0  0  0  0  0  0  0  0  0  0  0
   -2.3842    1.0115   -2.7263 C   0  0  0  0  0  0  0  0  0  0  0  0
   -1.6716    1.0145   -1.5281 C   0  0  0  0  0  0  0  0  0  0  0  0
   -3.1344   -0.0645   -5.1128 S   0  0  0  0  0  0  0  0  0  0  0  0
   -3.6784    1.2462   -5.3822 O   0  0  0  0  0  0  0  0  0  0  0  0
   -2.4399   -0.8173   -6.1341 O   0  0  0  0  0  0  0  0  0  0  0  0
   -4.4698   -1.1148   -4.6783 N   0  0  0  0  0  0  0  0  0  0  0  0
   -5.6917   -0.5083   -4.1069 C   0  0  1  0  0  0  0  0  0  0  0  0
   -5.6628    0.6362   -4.1692 H   0  0  0  0  0  0  0  0  0  0  0  0
   -6.9856   -0.9690   -4.8738 C   0  0  0  0  0  0  0  0  0  0  0  0
   -8.2320   -0.2151   -4.3927 C   0  0  0  0  0  0  0  0  0  0  0  0
   -6.7926   -0.6680   -6.3702 C   0  0  0  0  0  0  0  0  0  0  0  0
   -5.6212   -0.9418   -2.2548 P   0  0  0  0  0  0  0  0  0  0  0  0
   -6.8209   -0.9030   -1.4191 O   0  0  0  0  0  0  0  0  0  0  0  0
   -4.8872   -2.3532   -2.0614 O   0  0  0  0  0  0  0  0  0  0  0  0
   -4.4911    0.1343   -1.8536 O   0  0  0  0  0  0  0  0  0  0  0  0
    1.9377    0.0076   -0.9460 H   0  0  0  0  0  0  0  0  0  0  0  0
    3.1898    0.0051    1.1829 H   0  0  0  0  0  0  0  0  0  0  0  0
   -0.5381   -0.0331    3.3710 H   0  0  0  0  0  0  0  0  0  0  0  0
   -1.7897   -0.0207    1.2097 H   0  0  0  0  0  0  0  0  0  0  0  0
    3.5118    0.0409    4.8229 H   0  0  0  0  0  0  0  0  0  0  0  0
    3.7348    0.9728    3.2973 H   0  0  0  0  0  0  0  0  0  0  0  0
    3.8108   -0.8364    3.2788 H   0  0  0  0  0  0  0  0  0  0  0  0
    0.2163   -1.7788   -2.0095 H   0  0  0  0  0  0  0  0  0  0  0  0
   -1.0444   -1.7994   -4.1351 H   0  0  0  0  0  0  0  0  0  0  0  0
   -3.1048    1.8175   -2.9215 H   0  0  0  0  0  0  0  0  0  0  0  0
   -1.8331    1.8066   -0.8002 H   0  0  0  0  0  0  0  0  0  0  0  0
   -4.6675   -1.8479   -5.3653 H   0  0  0  0  0  0  0  0  0  0  0  0
   -7.1559   -2.0669   -4.7536 H   0  0  0  0  0  0  0  0  0  0  0  0
   -8.0857    0.8710   -4.4081 H   0  0  0  0  0  0  0  0  0  0  0  0
   -8.5284   -0.4903   -3.3699 H   0  0  0  0  0  0  0  0  0  0  0  0
   -9.0953   -0.4399   -5.0290 H   0  0  0  0  0  0  0  0  0  0  0  0
   -6.4554    0.3642   -6.5354 H   0  0  0  0  0  0  0  0  0  0  0  0
   -7.7342   -0.7887   -6.9184 H   0  0  0  0  0  0  0  0  0  0  0  0
   -6.0685   -1.3347   -6.8470 H   0  0  0  0  0  0  0  0  0  0  0  0
   -4.1523   -2.4425   -2.7730 H   0  0  0  0  0  0  0  0  0  0  0  0
   -4.3224    0.1101   -0.8539 H   0  0  0  0  0  0  0  0  0  0  0  0
  1  6  1  0  0  0  0
  2  1  2  0  0  0  0
  2  3  1  0  0  0  0
  3  4  2  0  0  0  0
  4  5  1  0  0  0  0
  4  7  1  0  0  0  0
  5 30  1  0  0  0  0
  6  5  2  0  0  0  0
  7  8  1  0  0  0  0
  8 32  1  0  0  0  0
  9  1  1  0  0  0  0
 10 35  1  0  0  0  0
 10  9  2  0  0  0  0
 11 10  1  0  0  0  0
 12 11  2  0  0  0  0
 12 13  1  0  0  0  0
 13 14  2  0  0  0  0
 14  9  1  0  0  0  0
 14 38  1  0  0  0  0
 15 18  1  0  0  0  0
 15 12  1  0  0  0  0
 16 15  2  0  0  0  0
 17 15  2  0  0  0  0
 18 19  1  0  0  0  0
 19 20  1  6  0  0  0
 19 24  1  0  0  0  0
 21 40  1  0  0  0  0
 21 22  1  0  0  0  0
 21 19  1  0  0  0  0
 22 42  1  0  0  0  0
 23 21  1  0  0  0  0
 24 26  1  0  0  0  0
 24 27  1  0  0  0  0
 24 25  2  0  0  0  0
 27 48  1  0  0  0  0
 28  2  1  0  0  0  0
 29  3  1  0  0  0  0
 31  6  1  0  0  0  0
 33  8  1  0  0  0  0
 34  8  1  0  0  0  0
 36 11  1  0  0  0  0
 37 13  1  0  0  0  0
 39 18  1  0  0  0  0
 41 22  1  0  0  0  0
 43 22  1  0  0  0  0
 44 23  1  0  0  0  0
 45 23  1  0  0  0  0
 46 23  1  0  0  0  0
 47 26  1  0  0  0  0
M  END
$$$$
