48

C         -0.03010        0.04160       -0.00520
C          1.21370       -0.61670        0.08850
C          1.89520       -0.70690        1.29380
C          1.35220       -0.14230        2.46150
C          0.11450        0.51510        2.39110
C         -0.55600        0.60110        1.16940
O          2.08430       -0.28060        3.59000
C          1.60160        0.27290        4.79400
C         -0.75550        0.13600       -1.29200
C         -0.68210       -0.90520       -2.24170
C         -1.37070       -0.82970       -3.44670
C         -2.15880        0.29420       -3.70810
C         -2.24440        1.34690       -2.80000
C         -1.53800        1.26370       -1.60210
S         -3.11230        0.34890       -5.20730
O         -3.77750        1.65390       -5.27240
O         -2.32280       -0.17200       -6.32360
N         -4.26520       -0.87590       -4.92500
C         -5.53190       -0.52690       -4.26490
H         -5.48060        0.53060       -3.96060
C         -6.76440       -0.70240       -5.17970
C         -8.02330       -0.15210       -4.49990
C         -6.53970       -0.01720       -6.53370
P         -5.59200       -1.52130       -2.70360
O         -6.89360       -1.82710       -2.06110
O         -4.75880       -2.86020       -3.08520
O         -4.56930       -0.62130       -1.80050
H          1.66890       -1.04190       -0.80810
H          2.86380       -1.20490        1.36220
H         -0.33970        0.95440        3.27860
H         -1.52840        1.09720        1.14210
H          2.35080        0.04860        5.56420
H          0.63610       -0.17400        5.09140
H          1.47880        1.36820        4.71980
H         -0.09260       -1.79630       -2.01940
H         -1.30710       -1.63590       -4.17990
H         -2.85900        2.21520       -3.03880
H         -1.58100        2.09870       -0.90080
H         -4.37130       -1.38540       -5.80260
H         -6.90530       -1.78690       -5.34720
H         -7.92370        0.93440       -4.33620
H         -8.20280       -0.63770       -3.53210
H         -8.90200       -0.31330       -5.14270
H         -6.30390        1.04960       -6.39590
H         -7.44800       -0.09660       -7.14970
H         -5.71510       -0.45890       -7.11440
H         -4.01580       -2.59760       -3.65850
H         -4.54550       -0.92560       -0.88060
