rmsd249.gzmat
 OpenBabel08211713423D

 48 49  0  0  1  0  0  0  0  0999 V2000
    0.0000    0.0000    0.0000 C   0  0  0  0  0  0  0  0  0  0  0  0
    1.3939    0.0000    0.0000 C   0  0  0  0  0  0  0  0  0  0  0  0
    2.1012    0.0000    1.2008 C   0  0  0  0  0  0  0  0  0  0  0  0
    1.3846   -0.0083    2.3973 C   0  0  0  0  0  0  0  0  0  0  0  0
   -0.0213   -0.0118    2.4169 C   0  0  0  0  0  0  0  0  0  0  0  0
   -0.7041   -0.0052    1.2125 C   0  0  0  0  0  0  0  0  0  0  0  0
    1.9234   -0.0152    3.6434 O   0  0  0  0  0  0  0  0  0  0  0  0
    3.3407   -0.0049    3.7421 C   0  0  0  0  0  0  0  0  0  0  0  0
   -0.7425    0.0086   -1.2640 C   0  0  0  0  0  0  0  0  0  0  0  0
   -0.6404   -1.0721   -2.1458 C   0  0  0  0  0  0  0  0  0  0  0  0
   -1.3857   -1.0802   -3.3205 C   0  0  0  0  0  0  0  0  0  0  0  0
   -2.2247   -0.0068   -3.6195 C   0  0  0  0  0  0  0  0  0  0  0  0
   -2.2954    1.0933   -2.7635 C   0  0  0  0  0  0  0  0  0  0  0  0
   -1.5603    1.0960   -1.5793 C   0  0  0  0  0  0  0  0  0  0  0  0
   -3.2532   -0.0697   -5.0276 S   0  0  0  0  0  0  0  0  0  0  0  0
   -3.6776    1.2675   -5.3726 O   0  0  0  0  0  0  0  0  0  0  0  0
   -2.6917   -0.9614   -6.0179 O   0  0  0  0  0  0  0  0  0  0  0  0
   -4.6580   -0.9428   -4.4468 N   0  0  0  0  0  0  0  0  0  0  0  0
   -5.7730   -0.1785   -3.8566 C   0  0  1  0  0  0  0  0  0  0  0  0
   -5.6291    0.9526   -4.0156 H   0  0  0  0  0  0  0  0  0  0  0  0
   -7.1612   -0.5270   -4.5036 C   0  0  0  0  0  0  0  0  0  0  0  0
   -7.1488    0.0203   -5.9396 C   0  0  0  0  0  0  0  0  0  0  0  0
   -7.5167   -2.0169   -4.5278 C   0  0  0  0  0  0  0  0  0  0  0  0
   -5.6697   -0.4284   -1.9772 P   0  0  0  0  0  0  0  0  0  0  0  0
   -6.8384   -0.1952   -1.1293 O   0  0  0  0  0  0  0  0  0  0  0  0
   -5.0391   -1.8643   -1.6486 O   0  0  0  0  0  0  0  0  0  0  0  0
   -4.4453    0.5861   -1.7177 O   0  0  0  0  0  0  0  0  0  0  0  0
    1.9361    0.0069   -0.9459 H   0  0  0  0  0  0  0  0  0  0  0  0
    3.1853    0.0072    1.1890 H   0  0  0  0  0  0  0  0  0  0  0  0
   -0.5451   -0.0199    3.3701 H   0  0  0  0  0  0  0  0  0  0  0  0
   -1.7951   -0.0115    1.2020 H   0  0  0  0  0  0  0  0  0  0  0  0
    3.4959   -0.0251    4.8301 H   0  0  0  0  0  0  0  0  0  0  0  0
    3.7545    0.9130    3.3139 H   0  0  0  0  0  0  0  0  0  0  0  0
    3.7736   -0.8968    3.2790 H   0  0  0  0  0  0  0  0  0  0  0  0
    0.0103   -1.9087   -1.9021 H   0  0  0  0  0  0  0  0  0  0  0  0
   -1.3016   -1.9346   -4.0010 H   0  0  0  0  0  0  0  0  0  0  0  0
   -2.9252    1.9603   -3.0038 H   0  0  0  0  0  0  0  0  0  0  0  0
   -1.6185    1.9443   -0.9010 H   0  0  0  0  0  0  0  0  0  0  0  0
   -4.9756   -1.6908   -5.0706 H   0  0  0  0  0  0  0  0  0  0  0  0
   -7.9696    0.0141   -3.9405 H   0  0  0  0  0  0  0  0  0  0  0  0
   -6.4634   -0.5345   -6.5886 H   0  0  0  0  0  0  0  0  0  0  0  0
   -6.8425    1.0741   -5.9724 H   0  0  0  0  0  0  0  0  0  0  0  0
   -8.1435   -0.0410   -6.3930 H   0  0  0  0  0  0  0  0  0  0  0  0
   -6.7273   -2.6377   -4.9619 H   0  0  0  0  0  0  0  0  0  0  0  0
   -8.4247   -2.1871   -5.1191 H   0  0  0  0  0  0  0  0  0  0  0  0
   -7.7261   -2.4131   -3.5242 H   0  0  0  0  0  0  0  0  0  0  0  0
   -4.3597   -2.0972   -2.3833 H   0  0  0  0  0  0  0  0  0  0  0  0
   -4.2583    0.6664   -0.7243 H   0  0  0  0  0  0  0  0  0  0  0  0
  1  6  1  0  0  0  0
  2  1  2  0  0  0  0
  2  3  1  0  0  0  0
  3  4  2  0  0  0  0
  4  5  1  0  0  0  0
  4  7  1  0  0  0  0
  5 30  1  0  0  0  0
  6  5  2  0  0  0  0
  7  8  1  0  0  0  0
  8 32  1  0  0  0  0
  9  1  1  0  0  0  0
 10 35  1  0  0  0  0
 10  9  2  0  0  0  0
 11 10  1  0  0  0  0
 12 11  2  0  0  0  0
 12 13  1  0  0  0  0
 13 14  2  0  0  0  0
 14  9  1  0  0  0  0
 14 38  1  0  0  0  0
 15 18  1  0  0  0  0
 15 12  1  0  0  0  0
 16 15  2  0  0  0  0
 17 15  2  0  0  0  0
 18 19  1  0  0  0  0
 19 20  1  6  0  0  0
 19 24  1  0  0  0  0
 21 40  1  0  0  0  0
 21 19  1  0  0  0  0
 22 21  1  0  0  0  0
 23 21  1  0  0  0  0
 23 46  1  0  0  0  0
 24 27  1  0  0  0  0
 24 26  1  0  0  0  0
 24 25  2  0  0  0  0
 27 48  1  0  0  0  0
 28  2  1  0  0  0  0
 29  3  1  0  0  0  0
 31  6  1  0  0  0  0
 33  8  1  0  0  0  0
 34  8  1  0  0  0  0
 36 11  1  0  0  0  0
 37 13  1  0  0  0  0
 39 18  1  0  0  0  0
 41 22  1  0  0  0  0
 42 22  1  0  0  0  0
 43 22  1  0  0  0  0
 44 23  1  0  0  0  0
 45 23  1  0  0  0  0
 47 26  1  0  0  0  0
M  END
$$$$
