48
rmsd41.gzmat
C          0.00000        0.00000        0.00000
C          1.40250        0.00000        0.00000
C          2.10120        0.00000        1.19520
C          1.37790        0.00820        2.40100
C         -0.01660        0.00650        2.42000
C         -0.70020       -0.00250        1.20500
O          2.18440        0.01290        3.49370
C          1.55800        0.08230        4.76710
C         -0.71130        0.00450       -1.28150
C         -0.50020        1.05120       -2.18420
C         -1.10610        1.02040       -3.43620
C         -1.91220       -0.06090       -3.79220
C         -2.16540       -1.08140       -2.87500
C         -1.57050       -1.04530       -1.61470
S         -2.48800       -0.19700       -5.43800
O         -3.42210       -1.29520       -5.51420
O         -2.80800        1.11880       -5.94470
N         -1.09090       -0.64330       -6.36740
C         -0.46200       -1.95130       -6.31120
H         -1.25050       -2.74270       -6.03710
C          0.12750       -2.36300       -7.71520
C         -1.06620       -2.69780       -8.62270
C          0.99120       -1.29070       -8.38770
P          0.81170       -1.99450       -4.89280
O          1.69220       -0.88410       -4.51470
O         -0.17770       -2.45350       -3.71320
O          1.59060       -3.34390       -5.28740
H          1.94000       -0.00300       -0.95160
H          3.18840       -0.00060        1.21880
H         -0.57040        0.01330        3.35210
H         -1.79060       -0.00150        1.19780
H          2.42090        0.08370        5.44820
H          0.93230       -0.79740        4.94460
H          0.98550        1.00910        4.87200
H          0.15200        1.87860       -1.91190
H         -0.92660        1.84500       -4.13380
H         -2.81290       -1.92730       -3.13580
H         -1.75850       -1.84130       -0.89840
H         -0.58140        0.09010       -6.85120
H          0.74390       -3.29510       -7.60260
H         -1.73640       -1.83600       -8.73950
H         -1.66630       -3.52130       -8.21990
H         -0.73230       -2.99440       -9.62150
H          0.42290       -0.38060       -8.60840
H          1.38600       -1.66090       -9.34140
H          1.86130       -1.00220       -7.78540
H          0.24870       -2.33020       -2.80040
H          2.42110       -3.45930       -4.71890
