rmsd179.gzmat
 OpenBabel08211713423D

 56 60  0  0  1  0  0  0  0  0999 V2000
    0.0000    0.0000    0.0000 C   0  0  0  0  0  0  0  0  0  0  0  0
    1.4495    0.0000    0.0000 N   0  0  0  0  0  0  0  0  0  0  0  0
    2.2488    0.0000    1.1369 C   0  0  0  0  0  0  0  0  0  0  0  0
    3.5485    0.0702    0.7874 N   0  0  0  0  0  0  0  0  0  0  0  0
    3.5958    0.1221   -0.5892 C   0  0  0  0  0  0  0  0  0  0  0  0
    2.2918    0.0715   -1.1082 C   0  0  2  0  0  0  0  0  0  0  0  0
    1.8144    0.1160   -2.5275 C   0  0  2  0  0  0  0  0  0  0  0  0
    1.0460    1.4188   -2.7481 C   0  0  0  0  0  0  0  0  0  0  0  0
   -0.1158    1.4625   -3.5190 C   0  0  0  0  0  0  0  0  0  0  0  0
   -0.7125    2.6869   -3.8194 C   0  0  0  0  0  0  0  0  0  0  0  0
   -0.1326    3.8445   -3.3219 C   0  0  0  0  0  0  0  0  0  0  0  0
   -0.8254    5.3522   -3.7454 Cl  0  0  0  0  0  0  0  0  0  0  0  0
    0.9925    3.8302   -2.5077 C   0  0  0  0  0  0  0  0  0  0  0  0
    1.5835    2.6023   -2.2272 C   0  0  0  0  0  0  0  0  0  0  0  0
    0.9176   -1.0513   -2.7691 N   0  0  0  0  0  0  0  0  0  0  0  0
    2.9826    0.0568   -3.5069 C   0  0  0  0  0  0  0  0  0  0  0  0
    3.0929    0.9787   -4.5279 C   0  0  0  0  0  0  0  0  0  0  0  0
    4.1355    0.9166   -5.4657 C   0  0  0  0  0  0  0  0  0  0  0  0
    5.0886   -0.1249   -5.3776 C   0  0  0  0  0  0  0  0  0  0  0  0
    4.9645   -1.0743   -4.3298 C   0  0  0  0  0  0  0  0  0  0  0  0
    3.9327   -0.9787   -3.4207 C   0  0  0  0  0  0  0  0  0  0  0  0
    6.1072   -0.1910   -6.3148 N   0  0  0  0  0  0  0  0  0  0  0  0
    7.1034   -1.2652   -6.2362 C   0  0  0  0  0  0  0  0  0  0  0  0
    6.2294    0.7497   -7.3719 C   0  0  0  0  0  0  0  0  0  0  0  0
    7.1429    0.6086   -8.1573 O   0  0  0  0  0  0  0  0  0  0  0  0
    5.2388    1.8171   -7.4254 C   0  0  0  0  0  0  0  0  0  0  0  0
    4.2430    1.8998   -6.5176 C   0  0  0  0  0  0  0  0  0  0  0  0
    3.2364    2.9743   -6.5452 C   0  0  0  0  0  0  0  0  0  0  0  0
    3.3332    4.0227   -5.6260 C   0  0  0  0  0  0  0  0  0  0  0  0
    2.3179    4.9680   -5.6066 C   0  0  0  0  0  0  0  0  0  0  0  0
    2.4047    6.2238   -4.4506 Cl  0  0  0  0  0  0  0  0  0  0  0  0
    1.2301    4.9234   -6.4694 C   0  0  0  0  0  0  0  0  0  0  0  0
    1.1592    3.8777   -7.3886 C   0  0  0  0  0  0  0  0  0  0  0  0
    2.1574    2.9047   -7.4284 C   0  0  0  0  0  0  0  0  0  0  0  0
   -0.3906    0.9593    0.3884 H   0  0  0  0  0  0  0  0  0  0  0  0
   -0.3937   -0.8243    0.6203 H   0  0  0  0  0  0  0  0  0  0  0  0
   -0.4044   -0.1325   -1.0283 H   0  0  0  0  0  0  0  0  0  0  0  0
    1.8700   -0.0532    2.1409 H   0  0  0  0  0  0  0  0  0  0  0  0
    4.5320    0.2014   -1.1091 H   0  0  0  0  0  0  0  0  0  0  0  0
   -0.5662    0.5439   -3.8975 H   0  0  0  0  0  0  0  0  0  0  0  0
   -1.6079    2.7228   -4.4377 H   0  0  0  0  0  0  0  0  0  0  0  0
    1.4136    4.7512   -2.1020 H   0  0  0  0  0  0  0  0  0  0  0  0
    2.4834    2.5669   -1.6073 H   0  0  0  0  0  0  0  0  0  0  0  0
    1.2537   -1.8775   -2.2979 H   0  0  0  0  0  0  0  0  0  0  0  0
    0.8329   -1.2533   -3.7550 H   0  0  0  0  0  0  0  0  0  0  0  0
    2.3595    1.7875   -4.6312 H   0  0  0  0  0  0  0  0  0  0  0  0
    5.6860   -1.8826   -4.2384 H   0  0  0  0  0  0  0  0  0  0  0  0
    3.8499   -1.7141   -2.6166 H   0  0  0  0  0  0  0  0  0  0  0  0
    7.8694   -1.1442   -7.0324 H   0  0  0  0  0  0  0  0  0  0  0  0
    6.6317   -2.2522   -6.3817 H   0  0  0  0  0  0  0  0  0  0  0  0
    7.6316   -1.2454   -5.2671 H   0  0  0  0  0  0  0  0  0  0  0  0
    5.3677    2.5326   -8.2383 H   0  0  0  0  0  0  0  0  0  0  0  0
    4.1793    4.0786   -4.9389 H   0  0  0  0  0  0  0  0  0  0  0  0
    0.4478    5.6821   -6.4326 H   0  0  0  0  0  0  0  0  0  0  0  0
    0.3152    3.8185   -8.0752 H   0  0  0  0  0  0  0  0  0  0  0  0
    2.0924    2.0838   -8.1427 H   0  0  0  0  0  0  0  0  0  0  0  0
  1  2  1  0  0  0  0
  1 35  1  0  0  0  0
  1 36  1  0  0  0  0
  2  3  1  0  0  0  0
  3 38  1  0  0  0  0
  4  3  2  0  0  0  0
  5  4  2  0  0  0  0
  6  7  1  1  0  0  0
  6  5  1  0  0  0  0
  6  2  1  0  0  0  0
  7 15  1  6  0  0  0
  8  7  1  0  0  0  0
  8 14  2  0  0  0  0
  9  8  1  0  0  0  0
 10  9  2  0  0  0  0
 10 11  1  0  0  0  0
 11 13  2  0  0  0  0
 12 11  1  0  0  0  0
 13 14  1  0  0  0  0
 13 42  1  0  0  0  0
 14 43  1  0  0  0  0
 15 44  1  0  0  0  0
 16 21  1  0  0  0  0
 16  7  1  0  0  0  0
 17 16  2  0  0  0  0
 18 19  2  0  0  0  0
 18 17  1  0  0  0  0
 19 20  1  0  0  0  0
 20 47  1  0  0  0  0
 20 21  2  0  0  0  0
 21 48  1  0  0  0  0
 22 23  1  0  0  0  0
 22 19  1  0  0  0  0
 23 51  1  0  0  0  0
 24 22  1  0  0  0  0
 25 24  2  0  0  0  0
 26 24  1  0  0  0  0
 26 27  2  0  0  0  0
 27 18  1  0  0  0  0
 28 27  1  0  0  0  0
 28 29  2  0  0  0  0
 29 30  1  0  0  0  0
 29 53  1  0  0  0  0
 30 31  1  0  0  0  0
 32 54  1  0  0  0  0
 32 30  2  0  0  0  0
 33 32  1  0  0  0  0
 34 33  2  0  0  0  0
 34 28  1  0  0  0  0
 37  1  1  0  0  0  0
 39  5  1  0  0  0  0
 40  9  1  0  0  0  0
 41 10  1  0  0  0  0
 45 15  1  0  0  0  0
 46 17  1  0  0  0  0
 49 23  1  0  0  0  0
 50 23  1  0  0  0  0
 52 26  1  0  0  0  0
 55 33  1  0  0  0  0
 56 34  1  0  0  0  0
M  RAD  1   6   2
M  END
$$$$
