rmsd203.gzmat
 OpenBabel08211713423D

 56 60  0  0  1  0  0  0  0  0999 V2000
    0.0000    0.0000    0.0000 C   0  0  0  0  0  0  0  0  0  0  0  0
    1.4492    0.0000    0.0000 N   0  0  0  0  0  0  0  0  0  0  0  0
    2.2638    0.0000    1.1253 C   0  0  0  0  0  0  0  0  0  0  0  0
    3.5603   -0.0049    0.7557 N   0  0  0  0  0  0  0  0  0  0  0  0
    3.5899   -0.0099   -0.6225 C   0  0  0  0  0  0  0  0  0  0  0  0
    2.2772   -0.0125   -1.1210 C   0  0  2  0  0  0  0  0  0  0  0  0
    1.7805    0.0223   -2.5329 C   0  0  2  0  0  0  0  0  0  0  0  0
    1.1135    1.3736   -2.7888 C   0  0  0  0  0  0  0  0  0  0  0  0
   -0.0923    1.4798   -3.4810 C   0  0  0  0  0  0  0  0  0  0  0  0
   -0.5986    2.7344   -3.8220 C   0  0  0  0  0  0  0  0  0  0  0  0
    0.1284    3.8580   -3.4599 C   0  0  0  0  0  0  0  0  0  0  0  0
   -0.4305    5.3989   -3.9565 Cl  0  0  0  0  0  0  0  0  0  0  0  0
    1.3048    3.7877   -2.7240 C   0  0  0  0  0  0  0  0  0  0  0  0
    1.7903    2.5305   -2.3812 C   0  0  0  0  0  0  0  0  0  0  0  0
    0.7855   -1.0710   -2.7274 N   0  0  0  0  0  0  0  0  0  0  0  0
    2.9327   -0.1656   -3.5159 C   0  0  0  0  0  0  0  0  0  0  0  0
    3.1673    0.7514   -4.5196 C   0  0  0  0  0  0  0  0  0  0  0  0
    4.1696    0.5542   -5.4825 C   0  0  0  0  0  0  0  0  0  0  0  0
    4.9729   -0.6089   -5.4141 C   0  0  0  0  0  0  0  0  0  0  0  0
    4.7430   -1.5377   -4.3651 C   0  0  0  0  0  0  0  0  0  0  0  0
    3.7427   -1.3155   -3.4433 C   0  0  0  0  0  0  0  0  0  0  0  0
    5.9564   -0.8101   -6.3691 N   0  0  0  0  0  0  0  0  0  0  0  0
    6.7978   -2.0107   -6.3114 C   0  0  0  0  0  0  0  0  0  0  0  0
    6.1885    0.1098   -7.4256 C   0  0  0  0  0  0  0  0  0  0  0  0
    7.0639   -0.1487   -8.2244 O   0  0  0  0  0  0  0  0  0  0  0  0
    5.3515    1.3013   -7.4595 C   0  0  0  0  0  0  0  0  0  0  0  0
    4.3905    1.5178   -6.5352 C   0  0  0  0  0  0  0  0  0  0  0  0
    3.5548    2.7301   -6.5530 C   0  0  0  0  0  0  0  0  0  0  0  0
    2.1852    2.6244   -6.8142 C   0  0  0  0  0  0  0  0  0  0  0  0
    1.4094    3.7692   -6.7081 C   0  0  0  0  0  0  0  0  0  0  0  0
   -0.2784    3.6254   -6.9431 Cl  0  0  0  0  0  0  0  0  0  0  0  0
    1.9408    5.0144   -6.3967 C   0  0  0  0  0  0  0  0  0  0  0  0
    3.3135    5.1067   -6.1724 C   0  0  0  0  0  0  0  0  0  0  0  0
    4.1186    3.9700   -6.2442 C   0  0  0  0  0  0  0  0  0  0  0  0
   -0.3961    0.5550    0.8675 H   0  0  0  0  0  0  0  0  0  0  0  0
   -0.3938   -1.0342    0.0231 H   0  0  0  0  0  0  0  0  0  0  0  0
   -0.3960    0.4730   -0.9254 H   0  0  0  0  0  0  0  0  0  0  0  0
    1.8987    0.0071    2.1356 H   0  0  0  0  0  0  0  0  0  0  0  0
    4.5196   -0.0046   -1.1596 H   0  0  0  0  0  0  0  0  0  0  0  0
   -0.6489    0.5862   -3.7697 H   0  0  0  0  0  0  0  0  0  0  0  0
   -1.5365    2.8170   -4.3713 H   0  0  0  0  0  0  0  0  0  0  0  0
    1.8444    4.6875   -2.4300 H   0  0  0  0  0  0  0  0  0  0  0  0
    2.7177    2.4460   -1.8092 H   0  0  0  0  0  0  0  0  0  0  0  0
    1.0427   -1.9000   -2.2147 H   0  0  0  0  0  0  0  0  0  0  0  0
    0.6908   -1.3107   -3.7050 H   0  0  0  0  0  0  0  0  0  0  0  0
    2.5659    1.6655   -4.5881 H   0  0  0  0  0  0  0  0  0  0  0  0
    5.3575   -2.4310   -4.2828 H   0  0  0  0  0  0  0  0  0  0  0  0
    3.5773   -2.0352   -2.6383 H   0  0  0  0  0  0  0  0  0  0  0  0
    7.5305   -2.0121   -7.1474 H   0  0  0  0  0  0  0  0  0  0  0  0
    6.1885   -2.9254   -6.4087 H   0  0  0  0  0  0  0  0  0  0  0  0
    7.3744   -2.0438   -5.3709 H   0  0  0  0  0  0  0  0  0  0  0  0
    5.5573    1.9909   -8.2788 H   0  0  0  0  0  0  0  0  0  0  0  0
    1.7455    1.6612   -7.0766 H   0  0  0  0  0  0  0  0  0  0  0  0
    1.3067    5.8986   -6.3242 H   0  0  0  0  0  0  0  0  0  0  0  0
    3.7575    6.0722   -5.9312 H   0  0  0  0  0  0  0  0  0  0  0  0
    5.1890    4.0462   -6.0501 H   0  0  0  0  0  0  0  0  0  0  0  0
  1  2  1  0  0  0  0
  1 36  1  0  0  0  0
  1 35  1  0  0  0  0
  2  3  1  0  0  0  0
  3 38  1  0  0  0  0
  4  3  2  0  0  0  0
  5  4  2  0  0  0  0
  6  7  1  6  0  0  0
  6  5  1  0  0  0  0
  6  2  1  0  0  0  0
  7 15  1  6  0  0  0
  8  7  1  0  0  0  0
  8 14  2  0  0  0  0
  9  8  1  0  0  0  0
 10  9  2  0  0  0  0
 10 11  1  0  0  0  0
 11 13  2  0  0  0  0
 12 11  1  0  0  0  0
 13 42  1  0  0  0  0
 13 14  1  0  0  0  0
 14 43  1  0  0  0  0
 15 44  1  0  0  0  0
 16 21  1  0  0  0  0
 16  7  1  0  0  0  0
 17 16  2  0  0  0  0
 18 19  2  0  0  0  0
 18 17  1  0  0  0  0
 19 20  1  0  0  0  0
 20 47  1  0  0  0  0
 20 21  2  0  0  0  0
 21 48  1  0  0  0  0
 22 23  1  0  0  0  0
 22 19  1  0  0  0  0
 23 51  1  0  0  0  0
 24 22  1  0  0  0  0
 25 24  2  0  0  0  0
 26 24  1  0  0  0  0
 26 27  2  0  0  0  0
 27 18  1  0  0  0  0
 28 27  1  0  0  0  0
 28 34  2  0  0  0  0
 29 30  2  0  0  0  0
 29 28  1  0  0  0  0
 30 32  1  0  0  0  0
 31 30  1  0  0  0  0
 32 54  1  0  0  0  0
 32 33  2  0  0  0  0
 33 55  1  0  0  0  0
 34 33  1  0  0  0  0
 34 56  1  0  0  0  0
 37  1  1  0  0  0  0
 39  5  1  0  0  0  0
 40  9  1  0  0  0  0
 41 10  1  0  0  0  0
 45 15  1  0  0  0  0
 46 17  1  0  0  0  0
 49 23  1  0  0  0  0
 50 23  1  0  0  0  0
 52 26  1  0  0  0  0
 53 29  1  0  0  0  0
M  RAD  1   6   2
M  END
$$$$
