56
rmsd52.gzmat
C          0.00000        0.00000        0.00000
N          1.44950        0.00000        0.00000
C          2.26350        0.00000        1.12500
N          3.56060       -0.02760        0.75660
C          3.59030       -0.03060       -0.62100
C          2.27810       -0.00550       -1.12180
C          1.80630       -0.01050       -2.54660
C          3.01350        0.29390       -3.43800
C          3.54440        1.58770       -3.43550
C          4.63320        1.90710       -4.24220
C          5.17880        0.90620       -5.03630
Cl         6.51150        1.29030       -6.03910
C          4.69090       -0.39270       -5.04180
C          3.59880       -0.69470       -4.22870
N          0.74510        1.02300       -2.69790
C          1.19400       -1.35350       -2.92100
C          1.38600       -2.45530       -2.11190
C          0.81310       -3.70060       -2.41980
C          0.08330       -3.85080       -3.62230
C         -0.09700       -2.71860       -4.45620
C          0.44050       -1.49870       -4.10230
N         -0.43130       -5.09570       -3.95360
C         -1.17600       -5.26860       -5.20570
C         -0.25810       -6.23440       -3.12500
O         -0.71080       -7.29310       -3.50730
C          0.44410       -6.03170       -1.86460
C          0.94680       -4.82580       -1.52440
C          1.61110       -4.58120       -0.23460
C          0.95010       -3.79690        0.71610
C          1.63840       -3.45540        1.86930
Cl         0.85660       -2.42440        2.99230
C          2.93250       -3.88530        2.13210
C          3.55850       -4.70060        1.19000
C          2.90370       -5.04650        0.00770
H         -0.39710       -0.52130        0.88790
H         -0.39360       -0.50100       -0.91130
H         -0.39200        1.03510       -0.01250
H          1.90020        0.03190        2.13640
H          4.51930       -0.04720       -1.15880
H          3.12220        2.35380       -2.78520
H          5.04510        2.91640       -4.23970
H          5.14540       -1.16670       -5.65990
H          3.21450       -1.71770       -4.21550
H          0.53920        1.21250       -3.66600
H          0.99280        1.88650       -2.24020
H          2.00220       -2.37300       -1.20800
H         -0.66360       -2.80510       -5.37940
H          0.28750       -0.63700       -4.75390
H         -1.51680       -6.32120       -5.31250
H         -0.54000       -5.04000       -6.07830
H         -2.07500       -4.62910       -5.22230
H          0.51700       -6.91190       -1.22580
H         -0.06930       -3.45600        0.53490
H          3.45570       -3.58520        3.04050
H          4.57230       -5.05720        1.37250
H          3.40690       -5.66610       -0.73510
