rmsd202.gzmat
 OpenBabel08211713423D

 56 60  0  0  1  0  0  0  0  0999 V2000
    0.0000    0.0000    0.0000 C   0  0  0  0  0  0  0  0  0  0  0  0
    1.4492    0.0000    0.0000 N   0  0  0  0  0  0  0  0  0  0  0  0
    2.2624    0.0000    1.1267 C   0  0  0  0  0  0  0  0  0  0  0  0
    3.5595   -0.0042    0.7591 N   0  0  0  0  0  0  0  0  0  0  0  0
    3.5910   -0.0093   -0.6189 C   0  0  0  0  0  0  0  0  0  0  0  0
    2.2788   -0.0133   -1.1194 C   0  0  2  0  0  0  0  0  0  0  0  0
    1.7898    0.0232   -2.5342 C   0  0  2  0  0  0  0  0  0  0  0  0
    1.1619    1.3901   -2.8045 C   0  0  0  0  0  0  0  0  0  0  0  0
   -0.0365    1.5281   -3.5037 C   0  0  0  0  0  0  0  0  0  0  0  0
   -0.4981    2.7950   -3.8631 C   0  0  0  0  0  0  0  0  0  0  0  0
    0.2631    3.8984   -3.5097 C   0  0  0  0  0  0  0  0  0  0  0  0
   -0.2398    5.4508   -4.0301 Cl  0  0  0  0  0  0  0  0  0  0  0  0
    1.4308    3.7980   -2.7628 C   0  0  0  0  0  0  0  0  0  0  0  0
    1.8735    2.5295   -2.4047 C   0  0  0  0  0  0  0  0  0  0  0  0
    0.7698   -1.0471   -2.7247 N   0  0  0  0  0  0  0  0  0  0  0  0
    2.9440   -0.2011   -3.5080 C   0  0  0  0  0  0  0  0  0  0  0  0
    3.2058    0.6973   -4.5218 C   0  0  0  0  0  0  0  0  0  0  0  0
    4.2115    0.4663   -5.4738 C   0  0  0  0  0  0  0  0  0  0  0  0
    4.9853   -0.7155   -5.3863 C   0  0  0  0  0  0  0  0  0  0  0  0
    4.7295   -1.6233   -4.3249 C   0  0  0  0  0  0  0  0  0  0  0  0
    3.7292   -1.3661   -3.4125 C   0  0  0  0  0  0  0  0  0  0  0  0
    5.9662   -0.9562   -6.3350 N   0  0  0  0  0  0  0  0  0  0  0  0
    6.7668   -2.1836   -6.2641 C   0  0  0  0  0  0  0  0  0  0  0  0
    6.2323   -0.0531   -7.3976 C   0  0  0  0  0  0  0  0  0  0  0  0
    7.1067   -0.3431   -8.1867 O   0  0  0  0  0  0  0  0  0  0  0  0
    5.4276    1.1597   -7.4496 C   0  0  0  0  0  0  0  0  0  0  0  0
    4.4657    1.4120   -6.5352 C   0  0  0  0  0  0  0  0  0  0  0  0
    3.6640    2.6467   -6.5740 C   0  0  0  0  0  0  0  0  0  0  0  0
    2.2946    2.5766   -6.8482 C   0  0  0  0  0  0  0  0  0  0  0  0
    1.5509    3.7445   -6.7655 C   0  0  0  0  0  0  0  0  0  0  0  0
   -0.1389    3.6459   -7.0101 Cl  0  0  0  0  0  0  0  0  0  0  0  0
    2.1152    4.9784   -6.4678 C   0  0  0  0  0  0  0  0  0  0  0  0
    3.4868    5.0339   -6.2265 C   0  0  0  0  0  0  0  0  0  0  0  0
    4.2593    3.8738   -6.2734 C   0  0  0  0  0  0  0  0  0  0  0  0
   -0.3963    0.6102    0.8295 H   0  0  0  0  0  0  0  0  0  0  0  0
   -0.3928   -1.0307    0.0895 H   0  0  0  0  0  0  0  0  0  0  0  0
   -0.3966    0.4137   -0.9533 H   0  0  0  0  0  0  0  0  0  0  0  0
    1.8963    0.0063    2.1364 H   0  0  0  0  0  0  0  0  0  0  0  0
    4.5213   -0.0027   -1.1552 H   0  0  0  0  0  0  0  0  0  0  0  0
   -0.6226    0.6507   -3.7830 H   0  0  0  0  0  0  0  0  0  0  0  0
   -1.4291    2.9015   -4.4198 H   0  0  0  0  0  0  0  0  0  0  0  0
    1.9963    4.6824   -2.4707 H   0  0  0  0  0  0  0  0  0  0  0  0
    2.7939    2.4202   -1.8253 H   0  0  0  0  0  0  0  0  0  0  0  0
    1.0229   -1.8894   -2.2316 H   0  0  0  0  0  0  0  0  0  0  0  0
    0.6470   -1.2678   -3.7035 H   0  0  0  0  0  0  0  0  0  0  0  0
    2.6244    1.6228   -4.6071 H   0  0  0  0  0  0  0  0  0  0  0  0
    5.3250   -2.5277   -4.2245 H   0  0  0  0  0  0  0  0  0  0  0  0
    3.5456   -2.0696   -2.5971 H   0  0  0  0  0  0  0  0  0  0  0  0
    7.4940   -2.2227   -7.1041 H   0  0  0  0  0  0  0  0  0  0  0  0
    6.1255   -3.0781   -6.3446 H   0  0  0  0  0  0  0  0  0  0  0  0
    7.3462   -2.2232   -5.3256 H   0  0  0  0  0  0  0  0  0  0  0  0
    5.6578    1.8345   -8.2749 H   0  0  0  0  0  0  0  0  0  0  0  0
    1.8310    1.6228   -7.1038 H   0  0  0  0  0  0  0  0  0  0  0  0
    1.5075    5.8826   -6.4204 H   0  0  0  0  0  0  0  0  0  0  0  0
    3.9552    5.9895   -5.9918 H   0  0  0  0  0  0  0  0  0  0  0  0
    5.3290    3.9221   -6.0668 H   0  0  0  0  0  0  0  0  0  0  0  0
  1  2  1  0  0  0  0
  1 36  1  0  0  0  0
  1 35  1  0  0  0  0
  2  3  1  0  0  0  0
  3 38  1  0  0  0  0
  4  3  2  0  0  0  0
  5  4  2  0  0  0  0
  6  7  1  6  0  0  0
  6  5  1  0  0  0  0
  6  2  1  0  0  0  0
  7 15  1  6  0  0  0
  8  7  1  0  0  0  0
  8 14  1  0  0  0  0
  9  8  2  0  0  0  0
 10 11  2  0  0  0  0
 10  9  1  0  0  0  0
 11 13  1  0  0  0  0
 12 11  1  0  0  0  0
 13 42  1  0  0  0  0
 13 14  2  0  0  0  0
 14 43  1  0  0  0  0
 15 44  1  0  0  0  0
 16 21  1  0  0  0  0
 16  7  1  0  0  0  0
 17 16  2  0  0  0  0
 18 19  2  0  0  0  0
 18 17  1  0  0  0  0
 19 20  1  0  0  0  0
 20 47  1  0  0  0  0
 20 21  2  0  0  0  0
 21 48  1  0  0  0  0
 22 23  1  0  0  0  0
 22 19  1  0  0  0  0
 23 51  1  0  0  0  0
 24 22  1  0  0  0  0
 25 24  2  0  0  0  0
 26 24  1  0  0  0  0
 26 27  2  0  0  0  0
 27 18  1  0  0  0  0
 28 27  1  0  0  0  0
 28 34  2  0  0  0  0
 29 30  2  0  0  0  0
 29 28  1  0  0  0  0
 30 32  1  0  0  0  0
 31 30  1  0  0  0  0
 32 54  1  0  0  0  0
 32 33  2  0  0  0  0
 33 55  1  0  0  0  0
 34 33  1  0  0  0  0
 34 56  1  0  0  0  0
 37  1  1  0  0  0  0
 39  5  1  0  0  0  0
 40  9  1  0  0  0  0
 41 10  1  0  0  0  0
 45 15  1  0  0  0  0
 46 17  1  0  0  0  0
 49 23  1  0  0  0  0
 50 23  1  0  0  0  0
 52 26  1  0  0  0  0
 53 29  1  0  0  0  0
M  RAD  1   6   2
M  END
$$$$
