rmsd42.gzmat
 OpenBabel08211713423D

 56 60  0  0  1  0  0  0  0  0999 V2000
    0.0000    0.0000    0.0000 C   0  0  0  0  0  0  0  0  0  0  0  0
    1.4493    0.0000    0.0000 N   0  0  0  0  0  0  0  0  0  0  0  0
    2.2581    0.0000    1.1301 C   0  0  0  0  0  0  0  0  0  0  0  0
    3.5564    0.0102    0.7679 N   0  0  0  0  0  0  0  0  0  0  0  0
    3.5929    0.0148   -0.6098 C   0  0  0  0  0  0  0  0  0  0  0  0
    2.2831   -0.0002   -1.1162 C   0  0  2  0  0  0  0  0  0  0  0  0
    1.7990    0.0341   -2.5334 C   0  0  2  0  0  0  0  0  0  0  0  0
    1.1813    1.4046   -2.8096 C   0  0  0  0  0  0  0  0  0  0  0  0
    0.0070    1.5453   -3.5491 C   0  0  0  0  0  0  0  0  0  0  0  0
   -0.4436    2.8133   -3.9161 C   0  0  0  0  0  0  0  0  0  0  0  0
    0.2920    3.9179   -3.5131 C   0  0  0  0  0  0  0  0  0  0  0  0
   -0.2211    5.4706   -4.0211 Cl  0  0  0  0  0  0  0  0  0  0  0  0
    1.4313    3.8140   -2.7254 C   0  0  0  0  0  0  0  0  0  0  0  0
    1.8752    2.5420   -2.3780 C   0  0  0  0  0  0  0  0  0  0  0  0
    0.7770   -1.0349   -2.7222 N   0  0  0  0  0  0  0  0  0  0  0  0
    2.9499   -0.1966   -3.5085 C   0  0  0  0  0  0  0  0  0  0  0  0
    3.1471    0.6486   -4.5815 C   0  0  0  0  0  0  0  0  0  0  0  0
    4.1855    0.4370   -5.5023 C   0  0  0  0  0  0  0  0  0  0  0  0
    5.0339   -0.6843   -5.3465 C   0  0  0  0  0  0  0  0  0  0  0  0
    4.8177   -1.5557   -4.2472 C   0  0  0  0  0  0  0  0  0  0  0  0
    3.7977   -1.3097   -3.3534 C   0  0  0  0  0  0  0  0  0  0  0  0
    6.0440   -0.9026   -6.2695 N   0  0  0  0  0  0  0  0  0  0  0  0
    6.9436   -2.0508   -6.1103 C   0  0  0  0  0  0  0  0  0  0  0  0
    6.2607   -0.0410   -7.3774 C   0  0  0  0  0  0  0  0  0  0  0  0
    7.1579   -0.3169   -8.1458 O   0  0  0  0  0  0  0  0  0  0  0  0
    5.3827    1.1157   -7.4960 C   0  0  0  0  0  0  0  0  0  0  0  0
    4.3987    1.3481   -6.6012 C   0  0  0  0  0  0  0  0  0  0  0  0
    3.5182    2.5249   -6.6916 C   0  0  0  0  0  0  0  0  0  0  0  0
    3.7329    3.6044   -5.8307 C   0  0  0  0  0  0  0  0  0  0  0  0
    2.8353    4.6618   -5.8740 C   0  0  0  0  0  0  0  0  0  0  0  0
    3.0676    5.9640   -4.7914 Cl  0  0  0  0  0  0  0  0  0  0  0  0
    1.7530    4.6965   -6.7440 C   0  0  0  0  0  0  0  0  0  0  0  0
    1.5654    3.6172   -7.6064 C   0  0  0  0  0  0  0  0  0  0  0  0
    2.4428    2.5334   -7.5817 C   0  0  0  0  0  0  0  0  0  0  0  0
   -0.3948    0.6562    0.7949 H   0  0  0  0  0  0  0  0  0  0  0  0
   -0.3929   -1.0238    0.1472 H   0  0  0  0  0  0  0  0  0  0  0  0
   -0.3978    0.3616   -0.9740 H   0  0  0  0  0  0  0  0  0  0  0  0
    1.8873   -0.0059    2.1386 H   0  0  0  0  0  0  0  0  0  0  0  0
    4.5260    0.0366   -1.1408 H   0  0  0  0  0  0  0  0  0  0  0  0
   -0.5677    0.6683   -3.8507 H   0  0  0  0  0  0  0  0  0  0  0  0
   -1.3489    2.9218   -4.5115 H   0  0  0  0  0  0  0  0  0  0  0  0
    1.9752    4.6986   -2.3904 H   0  0  0  0  0  0  0  0  0  0  0  0
    2.7819    2.4324   -1.7765 H   0  0  0  0  0  0  0  0  0  0  0  0
    1.0444   -1.8848   -2.2484 H   0  0  0  0  0  0  0  0  0  0  0  0
    0.6405   -1.2424   -3.7022 H   0  0  0  0  0  0  0  0  0  0  0  0
    2.4907    1.5128   -4.7389 H   0  0  0  0  0  0  0  0  0  0  0  0
    5.4593   -2.4216   -4.1028 H   0  0  0  0  0  0  0  0  0  0  0  0
    3.6462   -1.9836   -2.5062 H   0  0  0  0  0  0  0  0  0  0  0  0
    7.6811   -2.0864   -6.9413 H   0  0  0  0  0  0  0  0  0  0  0  0
    6.3816   -2.9999   -6.1311 H   0  0  0  0  0  0  0  0  0  0  0  0
    7.5139   -1.9751   -5.1682 H   0  0  0  0  0  0  0  0  0  0  0  0
    5.5870    1.7712   -8.3433 H   0  0  0  0  0  0  0  0  0  0  0  0
    4.5783    3.6014   -5.1405 H   0  0  0  0  0  0  0  0  0  0  0  0
    1.0644    5.5418   -6.7575 H   0  0  0  0  0  0  0  0  0  0  0  0
    0.7251    3.6202   -8.2998 H   0  0  0  0  0  0  0  0  0  0  0  0
    2.2865    1.6885   -8.2523 H   0  0  0  0  0  0  0  0  0  0  0  0
  1 36  1  0  0  0  0
  1 35  1  0  0  0  0
  2  1  1  0  0  0  0
  2  3  1  0  0  0  0
  3 38  1  0  0  0  0
  4  3  2  0  0  0  0
  5  4  2  0  0  0  0
  6  7  1  6  0  0  0
  6  5  1  0  0  0  0
  6  2  1  0  0  0  0
  7 15  1  6  0  0  0
  8  7  1  0  0  0  0
  8 14  2  0  0  0  0
  9  8  1  0  0  0  0
 10  9  2  0  0  0  0
 10 11  1  0  0  0  0
 11 13  2  0  0  0  0
 12 11  1  0  0  0  0
 13 42  1  0  0  0  0
 13 14  1  0  0  0  0
 14 43  1  0  0  0  0
 15 44  1  0  0  0  0
 16 21  1  0  0  0  0
 16  7  1  0  0  0  0
 17 16  2  0  0  0  0
 18 19  2  0  0  0  0
 18 17  1  0  0  0  0
 19 20  1  0  0  0  0
 20 47  1  0  0  0  0
 20 21  2  0  0  0  0
 21 48  1  0  0  0  0
 22 23  1  0  0  0  0
 22 19  1  0  0  0  0
 23 51  1  0  0  0  0
 24 22  1  0  0  0  0
 25 24  2  0  0  0  0
 26 24  1  0  0  0  0
 26 27  2  0  0  0  0
 27 18  1  0  0  0  0
 28 27  1  0  0  0  0
 28 29  2  0  0  0  0
 29 53  1  0  0  0  0
 30 29  1  0  0  0  0
 30 31  1  0  0  0  0
 32 30  2  0  0  0  0
 33 34  2  0  0  0  0
 33 32  1  0  0  0  0
 34 28  1  0  0  0  0
 37  1  1  0  0  0  0
 39  5  1  0  0  0  0
 40  9  1  0  0  0  0
 41 10  1  0  0  0  0
 45 15  1  0  0  0  0
 46 17  1  0  0  0  0
 49 23  1  0  0  0  0
 50 23  1  0  0  0  0
 52 26  1  0  0  0  0
 54 32  1  0  0  0  0
 55 33  1  0  0  0  0
 56 34  1  0  0  0  0
M  RAD  1   6   2
M  END
$$$$
