56
rmsd14.gzmat
C          0.00000        0.00000        0.00000
N          1.44930        0.00000        0.00000
C          2.26700        0.00000        1.12290
N          3.56240       -0.00040        0.74950
C          3.58770       -0.00400       -0.62850
C          2.27380       -0.01020       -1.12310
C          1.77550        0.01330       -2.53510
C          1.09920        1.35630       -2.80770
C         -0.08340        1.44830       -3.54110
C         -0.59010        2.69650       -3.90430
C          0.10840        3.82950       -3.51650
Cl        -0.45220        5.36280       -4.03360
C          1.25740        3.77340       -2.73730
C          1.74750        2.52220       -2.37890
N          0.78990       -1.08970       -2.71800
C          2.93600       -0.17100       -3.51060
C          3.19030        0.75370       -4.50250
C          4.21930        0.56860       -5.43980
C          5.02800       -0.59000       -5.35780
C          4.77060       -1.53100       -4.32670
C          3.74540       -1.32030       -3.43030
N          6.04460       -0.77540       -6.28100
C          6.89840       -1.96600       -6.19970
C          6.30300        0.15450       -7.32230
O          7.20700       -0.08930       -8.09360
C          5.45710        1.33910       -7.37400
C          4.46700        1.54200       -6.47780
C          3.62690        2.75090       -6.51010
C          2.26960        2.64470       -6.82800
C          1.48730        3.78710       -6.74200
Cl        -0.18920        3.64300       -7.04760
C          2.00150        5.02910       -6.39210
C          3.36200        5.12050       -6.10260
C          4.17290        3.98720       -6.15820
H         -0.39650        0.49470        0.90240
H         -0.39410       -1.03360       -0.04980
H         -0.39480        0.53420       -0.89150
H          1.90590        0.00340        2.13470
H          4.51560        0.00640       -1.16870
H         -0.62220        0.54870       -3.84360
H         -1.50670        2.76680       -4.49010
H          1.77370        4.67930       -2.42090
H          2.65620        2.44980       -1.77590
H          1.06840       -1.92050       -2.21890
H          0.67550       -1.32150       -3.69530
H          2.58700        1.66570       -4.57860
H          5.38480       -2.42390       -4.23730
H          3.56170       -2.04860       -2.63710
H          7.66760       -1.94810       -7.00200
H          6.30560       -2.88660       -6.33490
H          7.43220       -2.00410       -5.23430
H          5.68310        2.03680       -8.18120
H          1.84310        1.68380       -7.11860
H          1.36320        5.91160       -6.33980
H          3.79160        6.08240       -5.82380
H          5.23380        4.06350       -5.91760
