
     RDKit          3D

 56 60  0  0  0  0  0  0  0  0999 V2000
    0.1379   -0.0613    0.1084 C   0  0  0  0  0  0  0  0  0  0  0  0
    1.5867   -0.0214    0.0008 N   0  0  0  0  0  0  0  0  0  0  0  0
    2.4476   -0.0397    1.0669 C   0  0  0  0  0  0  0  0  0  0  0  0
    3.7046    0.0630    0.6979 N   0  0  0  0  0  0  0  0  0  0  0  0
    3.6752    0.1544   -0.6703 C   0  0  0  0  0  0  0  0  0  0  0  0
    2.3749    0.1030   -1.1405 C   0  0  0  0  0  0  0  0  0  0  0  0
    1.8193    0.1046   -2.5481 C   0  0  2  0  0  0  0  0  0  0  0  0
    2.9833    0.3797   -3.5297 C   0  0  0  0  0  0  0  0  0  0  0  0
    3.1415    1.6208   -4.1519 C   0  0  0  0  0  0  0  0  0  0  0  0
    4.2053    1.8672   -5.0250 C   0  0  0  0  0  0  0  0  0  0  0  0
    5.1292    0.8540   -5.2778 C   0  0  0  0  0  0  0  0  0  0  0  0
    6.4623    1.1465   -6.3683 Cl  0  0  0  0  0  0  0  0  0  0  0  0
    4.9940   -0.3977   -4.6688 C   0  0  0  0  0  0  0  0  0  0  0  0
    3.9237   -0.6252   -3.8065 C   0  0  0  0  0  0  0  0  0  0  0  0
    0.7439    1.1055   -2.5910 N   0  0  0  0  0  0  0  0  0  0  0  0
    1.2093   -1.2611   -2.9226 C   0  0  0  0  0  0  0  0  0  0  0  0
    1.2952   -2.3637   -2.0854 C   0  0  0  0  0  0  0  0  0  0  0  0
    0.7550   -3.6177   -2.4314 C   0  0  0  0  0  0  0  0  0  0  0  0
    0.1483   -3.7850   -3.7053 C   0  0  0  0  0  0  0  0  0  0  0  0
    0.0684   -2.6638   -4.5610 C   0  0  0  0  0  0  0  0  0  0  0  0
    0.5857   -1.4363   -4.1715 C   0  0  0  0  0  0  0  0  0  0  0  0
   -0.3322   -5.0263   -4.0924 N   0  0  0  0  0  0  0  0  0  0  0  0
   -0.9577   -5.1933   -5.3971 C   0  0  0  0  0  0  0  0  0  0  0  0
   -0.2247   -6.1785   -3.2845 C   0  0  0  0  0  0  0  0  0  0  0  0
   -0.6275   -7.2655   -3.6713 O   0  0  0  0  0  0  0  0  0  0  0  0
    0.3677   -5.9674   -1.9676 C   0  0  0  0  0  0  0  0  0  0  0  0
    0.8199   -4.7598   -1.5362 C   0  0  0  0  0  0  0  0  0  0  0  0
    1.3634   -4.6013   -0.1600 C   0  0  0  0  0  0  0  0  0  0  0  0
    0.7594   -3.6999    0.7322 C   0  0  0  0  0  0  0  0  0  0  0  0
    1.2729   -3.5529    2.0190 C   0  0  0  0  0  0  0  0  0  0  0  0
    0.5025   -2.4339    3.1266 Cl  0  0  0  0  0  0  0  0  0  0  0  0
    2.3850   -4.2823    2.4460 C   0  0  0  0  0  0  0  0  0  0  0  0
    2.9759   -5.1835    1.5592 C   0  0  0  0  0  0  0  0  0  0  0  0
    2.4707   -5.3478    0.2671 C   0  0  0  0  0  0  0  0  0  0  0  0
   -0.1206   -0.4057    1.1183 H   0  0  0  0  0  0  0  0  0  0  0  0
   -0.2842   -0.7559   -0.6282 H   0  0  0  0  0  0  0  0  0  0  0  0
   -0.3017    0.9272   -0.0802 H   0  0  0  0  0  0  0  0  0  0  0  0
    2.0811   -0.1492    2.0876 H   0  0  0  0  0  0  0  0  0  0  0  0
    4.5841    0.2497   -1.2600 H   0  0  0  0  0  0  0  0  0  0  0  0
    2.4259    2.4220   -3.9625 H   0  0  0  0  0  0  0  0  0  0  0  0
    4.3189    2.8393   -5.5067 H   0  0  0  0  0  0  0  0  0  0  0  0
    5.7215   -1.1834   -4.8770 H   0  0  0  0  0  0  0  0  0  0  0  0
    3.8171   -1.6052   -3.3388 H   0  0  0  0  0  0  0  0  0  0  0  0
    0.3378    1.1765   -3.5224 H   0  0  0  0  0  0  0  0  0  0  0  0
    1.1058    2.0241   -2.3390 H   0  0  0  0  0  0  0  0  0  0  0  0
    1.8080   -2.2700   -1.1311 H   0  0  0  0  0  0  0  0  0  0  0  0
   -0.3884   -2.7553   -5.5443 H   0  0  0  0  0  0  0  0  0  0  0  0
    0.5301   -0.6026   -4.8759 H   0  0  0  0  0  0  0  0  0  0  0  0
   -1.2621   -6.2420   -5.4769 H   0  0  0  0  0  0  0  0  0  0  0  0
   -0.2494   -4.9553   -6.2060 H   0  0  0  0  0  0  0  0  0  0  0  0
   -1.8404   -4.5424   -5.4928 H   0  0  0  0  0  0  0  0  0  0  0  0
    0.3915   -6.8496   -1.3271 H   0  0  0  0  0  0  0  0  0  0  0  0
   -0.1125   -3.1230    0.4254 H   0  0  0  0  0  0  0  0  0  0  0  0
    2.7755   -4.1411    3.4543 H   0  0  0  0  0  0  0  0  0  0  0  0
    3.8469   -5.7592    1.8800 H   0  0  0  0  0  0  0  0  0  0  0  0
    2.9453   -6.0451   -0.4258 H   0  0  0  0  0  0  0  0  0  0  0  0
  1  2  1  0
  1 35  1  0
  1 36  1  0
  1 37  1  0
  2  3  1  0
  2  6  1  0
  3  4  2  0
  3 38  1  0
  4  5  1  0
  5  6  2  0
  5 39  1  0
  6  7  1  0
  7  8  1  0
  7 15  1  1
  7 16  1  0
  8  9  2  0
  8 14  1  0
  9 10  1  0
  9 40  1  0
 10 11  2  0
 10 41  1  0
 11 12  1  0
 11 13  1  0
 13 14  2  0
 13 42  1  0
 14 43  1  0
 15 44  1  0
 15 45  1  0
 16 17  2  0
 16 21  1  0
 17 18  1  0
 17 46  1  0
 18 19  2  0
 18 27  1  0
 19 20  1  0
 19 22  1  0
 20 21  2  0
 20 47  1  0
 21 48  1  0
 22 23  1  0
 22 24  1  0
 23 49  1  0
 23 50  1  0
 23 51  1  0
 24 25  2  0
 24 26  1  0
 26 27  2  0
 26 52  1  0
 27 28  1  0
 28 29  2  0
 28 34  1  0
 29 30  1  0
 29 53  1  0
 30 31  1  0
 30 32  2  0
 32 33  1  0
 32 54  1  0
 33 34  2  0
 33 55  1  0
 34 56  1  0
M  END

