56
rmsd94.gzmat
C          0.00000        0.00000        0.00000
N          1.44940        0.00000        0.00000
C          2.26620        0.00000        1.12260
N          3.56230       -0.01410        0.75070
C          3.58890       -0.01010       -0.62690
C          2.27550        0.00330       -1.12420
C          1.79770        0.00130       -2.54660
C          3.00990        0.28430       -3.43930
C          3.33240        1.58990       -3.80990
C          4.43920        1.83990       -4.62020
C          5.20890        0.76280       -5.03560
Cl         6.56620        1.05950       -6.03490
C          4.92460       -0.54610       -4.66850
C          3.81560       -0.77790       -3.85940
N          0.72370        1.01930       -2.67590
C          1.19980       -1.34220       -2.94810
C          1.31300       -2.43730       -2.11640
C          0.75410       -3.68020       -2.45910
C          0.10990       -3.82990       -3.70980
C          0.01670       -2.70520       -4.56850
C          0.54700       -1.49040       -4.18750
N         -0.40810       -5.06740       -4.06400
C         -1.07290       -5.23820       -5.36040
C         -0.32060       -6.19920       -3.21300
O         -0.78370       -7.24870       -3.60820
C          0.31560       -6.00230       -1.91760
C          0.82000       -4.80350       -1.55460
C          1.42600       -4.57570       -0.23340
C          0.76070       -3.74580        0.67430
C          1.40160       -3.43680        1.86340
Cl         0.62170       -2.35080        2.93410
C          2.65080       -3.94010        2.20260
C          3.28140       -4.79520        1.30000
C          2.67510       -5.11090        0.08380
H         -0.39890       -0.47650        0.91080
H         -0.39250       -0.54160       -0.88760
H         -0.39170        1.03360       -0.06270
H          1.90630        0.02150        2.13550
H          4.51730       -0.01380       -1.16610
H          2.73740        2.43290       -3.46210
H          4.68940        2.86010       -4.91010
H          5.54900       -1.37610       -4.99860
H          3.58190       -1.79980       -3.55060
H          0.47310        1.19110       -3.63600
H          0.97240        1.88980       -2.23160
H          1.85560       -2.35270       -1.16710
H         -0.47530       -2.79480       -5.53340
H          0.46960       -0.63560       -4.86110
H         -1.41060       -6.28970       -5.48900
H         -0.38270       -5.01220       -6.19120
H         -1.96630       -4.59500       -5.43340
H          0.33970       -6.88110       -1.27280
H         -0.22470       -3.34580        0.43360
H          3.13540       -3.66860        3.14080
H          4.26130       -5.20740        1.54050
H          3.18260       -5.76380       -0.62670
