56
rmsd211.gzmat
C          0.00000        0.00000        0.00000
N          1.44930        0.00000        0.00000
C          2.27000        0.00000        1.12060
N          3.56470        0.00970        0.74350
C          3.58630        0.01500       -0.63450
C          2.27100        0.00160       -1.12510
C          1.76700        0.03940       -2.53510
C          1.14050        1.40600       -2.80940
C          1.76450        2.54380       -2.28400
C          1.32100        3.81650       -2.62990
C          0.25750        3.92140       -3.51660
Cl        -0.23500        5.47780       -4.03270
C         -0.41380        2.81460       -4.01490
C          0.03150        1.54590       -3.64500
N          0.74570       -1.03290       -2.70460
C          2.91250       -0.18610       -3.51850
C          3.15250        0.69930       -4.54920
C          4.18180        0.48400       -5.47980
C          4.97700       -0.68200       -5.37670
C          4.72680       -1.58670       -4.31170
C          3.71780       -1.33570       -3.40710
N          5.97050       -0.91040       -6.31510
C          6.80390       -2.11430       -6.22140
C          6.22410       -0.01350       -7.38640
O          7.09900       -0.30180       -8.17580
C          5.40620        1.19030       -7.44700
C          4.43580        1.43170       -6.53920
C          3.61240        2.65170       -6.58520
C          3.80010        3.64060       -5.61520
C          2.95890        4.74340       -5.63610
Cl         3.16210        5.93840       -4.43120
C          1.95550        4.90820       -6.58260
C          1.79190        3.91720       -7.54920
C          2.61720        2.79300       -7.55430
H         -0.39750        0.42090        0.93780
H         -0.39360       -1.02670       -0.13100
H         -0.39230        0.59930       -0.84980
H          1.91200       -0.00400        2.13340
H          4.51220        0.03620       -1.17780
H          2.61780        2.43860       -1.60830
H          1.80820        4.70140       -2.21800
H         -1.26430        2.92300       -4.68600
H         -0.49420        0.66850       -4.02240
H          1.03740       -1.88960       -2.25780
H          0.57210       -1.22530       -3.68100
H          2.53730        1.59950       -4.66580
H          5.33390       -2.48200       -4.20160
H          3.54170       -2.03330       -2.58480
H          7.54540       -2.13860       -7.04950
H          6.19050       -3.02760       -6.30410
H          7.36980       -2.12920       -5.27390
H          5.64130        1.87190       -8.26520
H          4.58170        3.53350       -4.86070
H          1.30890        5.78600       -6.57460
H          1.01140        4.02160       -8.30200
H          2.48140        2.02000       -8.31100
