
     RDKit          3D

 55 56  0  0  0  0  0  0  0  0999 V2000
   -0.0610   -0.3325    0.2625 C   0  0  0  0  0  0  0  0  0  0  0  0
    1.4737   -0.2982    0.1283 C   0  0  0  0  0  0  0  0  0  0  0  0
    2.1685    0.0493    1.4345 C   0  0  0  0  0  0  0  0  0  0  0  0
    1.8114    1.4609    1.9385 C   0  0  0  0  0  0  0  0  0  0  0  0
    0.3007    1.7009    1.8251 C   0  0  0  0  0  0  0  0  0  0  0  0
   -0.2670    2.7954    2.5052 C   0  0  0  0  0  0  0  0  0  0  0  0
   -1.6197    3.0926    2.4426 C   0  0  0  0  0  0  0  0  0  0  0  0
   -2.4939    2.2939    1.6783 C   0  0  0  0  0  0  0  0  0  0  0  0
   -1.9247    1.2002    1.0076 C   0  0  0  0  0  0  0  0  0  0  0  0
   -0.5547    0.8950    1.0436 C   0  0  0  0  0  0  0  0  0  0  0  0
   -3.9441    2.5748    1.5834 C   0  0  0  0  0  0  0  0  0  0  0  0
   -4.4295    3.8234    1.8452 C   0  0  0  0  0  0  0  0  0  0  0  0
   -5.8036    4.2472    1.8108 C   0  0  0  0  0  0  0  0  0  0  0  0
   -6.1955    5.5268    2.0469 C   0  0  0  0  0  0  0  0  0  0  0  0
   -7.5593    6.0581    2.0382 C   0  0  0  0  0  0  0  0  0  0  0  0
   -8.6439    5.2512    1.8726 C   0  0  0  0  0  0  0  0  0  0  0  0
  -10.0526    5.6655    1.8367 C   0  0  0  0  0  0  0  0  0  0  0  0
  -10.5218    6.7810    1.9471 O   0  0  0  0  0  0  0  0  0  0  0  0
  -10.8576    4.5870    1.6521 O   0  0  0  0  0  0  0  0  0  0  0  0
   -7.6512    7.5496    2.2294 C   0  0  0  0  0  0  0  0  0  0  0  0
   -4.8348    1.4350    1.1603 C   0  0  0  0  0  0  0  0  0  0  0  0
    2.2868    1.5734    3.3998 C   0  0  0  0  0  0  0  0  0  0  0  0
    2.5453    2.5263    1.0946 C   0  0  0  0  0  0  0  0  0  0  0  0
   -0.6546   -0.3678   -1.1588 C   0  0  0  0  0  0  0  0  0  0  0  0
   -0.4990   -1.6077    1.0150 C   0  0  0  0  0  0  0  0  0  0  0  0
    1.8207   -1.2755   -0.2456 H   0  0  0  0  0  0  0  0  0  0  0  0
    1.7483    0.4397   -0.6437 H   0  0  0  0  0  0  0  0  0  0  0  0
    3.2627   -0.0229    1.3213 H   0  0  0  0  0  0  0  0  0  0  0  0
    1.8920   -0.6870    2.2074 H   0  0  0  0  0  0  0  0  0  0  0  0
    0.3740    3.4329    3.1163 H   0  0  0  0  0  0  0  0  0  0  0  0
   -2.0045    3.9350    3.0190 H   0  0  0  0  0  0  0  0  0  0  0  0
   -2.5728    0.5611    0.4109 H   0  0  0  0  0  0  0  0  0  0  0  0
   -3.7110    4.6105    2.0901 H   0  0  0  0  0  0  0  0  0  0  0  0
   -6.5657    3.4997    1.5779 H   0  0  0  0  0  0  0  0  0  0  0  0
   -5.4116    6.2624    2.2606 H   0  0  0  0  0  0  0  0  0  0  0  0
   -8.5025    4.1762    1.7535 H   0  0  0  0  0  0  0  0  0  0  0  0
  -11.7655    4.9327    1.6391 H   0  0  0  0  0  0  0  0  0  0  0  0
   -7.1768    7.8278    3.1862 H   0  0  0  0  0  0  0  0  0  0  0  0
   -8.6847    7.9069    2.2180 H   0  0  0  0  0  0  0  0  0  0  0  0
   -7.0773    8.0603    1.4372 H   0  0  0  0  0  0  0  0  0  0  0  0
   -4.6088    0.5246    1.7372 H   0  0  0  0  0  0  0  0  0  0  0  0
   -4.6777    1.1852    0.0971 H   0  0  0  0  0  0  0  0  0  0  0  0
   -5.8999    1.6611    1.2856 H   0  0  0  0  0  0  0  0  0  0  0  0
    1.7143    0.8986    4.0549 H   0  0  0  0  0  0  0  0  0  0  0  0
    2.1919    2.5946    3.7965 H   0  0  0  0  0  0  0  0  0  0  0  0
    3.3507    1.2944    3.4675 H   0  0  0  0  0  0  0  0  0  0  0  0
    2.2657    2.4663    0.0325 H   0  0  0  0  0  0  0  0  0  0  0  0
    3.6372    2.3953    1.1723 H   0  0  0  0  0  0  0  0  0  0  0  0
    2.2973    3.5405    1.4423 H   0  0  0  0  0  0  0  0  0  0  0  0
   -0.4519    0.5719   -1.6955 H   0  0  0  0  0  0  0  0  0  0  0  0
   -1.7422   -0.5314   -1.1581 H   0  0  0  0  0  0  0  0  0  0  0  0
   -0.2018   -1.1933   -1.7312 H   0  0  0  0  0  0  0  0  0  0  0  0
   -0.0755   -1.6466    2.0294 H   0  0  0  0  0  0  0  0  0  0  0  0
   -0.1743   -2.5093    0.4702 H   0  0  0  0  0  0  0  0  0  0  0  0
   -1.5943   -1.6459    1.1158 H   0  0  0  0  0  0  0  0  0  0  0  0
  1  2  1  0
  1 10  1  0
  1 24  1  0
  1 25  1  0
  2  3  1  0
  2 26  1  0
  2 27  1  0
  3  4  1  0
  3 28  1  0
  3 29  1  0
  4  5  1  0
  4 22  1  0
  4 23  1  0
  5  6  1  0
  5 10  2  0
  6  7  2  0
  6 30  1  0
  7  8  1  0
  7 31  1  0
  8  9  2  0
  8 11  1  0
  9 10  1  0
  9 32  1  0
 11 12  2  0
 11 21  1  0
 12 13  1  0
 12 33  1  0
 13 14  2  0
 13 34  1  0
 14 15  1  0
 14 35  1  0
 15 16  2  0
 15 20  1  0
 16 17  1  0
 16 36  1  0
 17 18  2  0
 17 19  1  0
 19 37  1  0
 20 38  1  0
 20 39  1  0
 20 40  1  0
 21 41  1  0
 21 42  1  0
 21 43  1  0
 22 44  1  0
 22 45  1  0
 22 46  1  0
 23 47  1  0
 23 48  1  0
 23 49  1  0
 24 50  1  0
 24 51  1  0
 24 52  1  0
 25 53  1  0
 25 54  1  0
 25 55  1  0
M  END

