55

C         -0.06100       -0.33250        0.26250
C          1.47370       -0.29820        0.12830
C          2.16850        0.04930        1.43450
C          1.81140        1.46090        1.93850
C          0.30070        1.70090        1.82510
C         -0.26700        2.79540        2.50520
C         -1.61970        3.09260        2.44260
C         -2.49390        2.29390        1.67830
C         -1.92470        1.20020        1.00760
C         -0.55470        0.89500        1.04360
C         -3.94410        2.57480        1.58340
C         -4.42950        3.82340        1.84520
C         -5.80360        4.24720        1.81080
C         -6.19550        5.52680        2.04690
C         -7.55930        6.05810        2.03820
C         -8.64390        5.25120        1.87260
C        -10.05260        5.66550        1.83670
O        -10.52180        6.78100        1.94710
O        -10.85760        4.58700        1.65210
C         -7.65120        7.54960        2.22940
C         -4.83480        1.43500        1.16030
C          2.28680        1.57340        3.39980
C          2.54530        2.52630        1.09460
C         -0.65460       -0.36780       -1.15880
C         -0.49900       -1.60770        1.01500
H          1.82070       -1.27550       -0.24560
H          1.74830        0.43970       -0.64370
H          3.26270       -0.02290        1.32130
H          1.89200       -0.68700        2.20740
H          0.37400        3.43290        3.11630
H         -2.00450        3.93500        3.01900
H         -2.57280        0.56110        0.41090
H         -3.71100        4.61050        2.09010
H         -6.56570        3.49970        1.57790
H         -5.41160        6.26240        2.26060
H         -8.50250        4.17620        1.75350
H        -11.76550        4.93270        1.63910
H         -7.17680        7.82780        3.18620
H         -8.68470        7.90690        2.21800
H         -7.07730        8.06030        1.43720
H         -4.60880        0.52460        1.73720
H         -4.67770        1.18520        0.09710
H         -5.89990        1.66110        1.28560
H          1.71430        0.89860        4.05490
H          2.19190        2.59460        3.79650
H          3.35070        1.29440        3.46750
H          2.26570        2.46630        0.03250
H          3.63720        2.39530        1.17230
H          2.29730        3.54050        1.44230
H         -0.45190        0.57190       -1.69550
H         -1.74220       -0.53140       -1.15810
H         -0.20180       -1.19330       -1.73120
H         -0.07550       -1.64660        2.02940
H         -0.17430       -2.50930        0.47020
H         -1.59430       -1.64590        1.11580
