rmsd105.gzmat
 OpenBabel08211713433D

 55 56  0  0  0  0  0  0  0  0999 V2000
    0.0000    0.0000    0.0000 C   0  0  0  0  0  0  0  0  0  0  0  0
    1.5415    0.0000    0.0000 C   0  0  0  0  0  0  0  0  0  0  0  0
    2.0905    0.0000    1.4228 C   0  0  0  0  0  0  0  0  0  0  0  0
    1.6923    1.2858    2.1753 C   0  0  0  0  0  0  0  0  0  0  0  0
    0.2309    1.6210    1.9661 C   0  0  0  0  0  0  0  0  0  0  0  0
   -0.3509    2.5824    2.8025 C   0  0  0  0  0  0  0  0  0  0  0  0
   -1.6844    2.9455    2.6704 C   0  0  0  0  0  0  0  0  0  0  0  0
   -2.4671    2.3386    1.6869 C   0  0  0  0  0  0  0  0  0  0  0  0
   -1.8933    1.3900    0.8437 C   0  0  0  0  0  0  0  0  0  0  0  0
   -0.5454    1.0351    0.9602 C   0  0  0  0  0  0  0  0  0  0  0  0
   -3.8880    2.6853    1.5360 C   0  0  0  0  0  0  0  0  0  0  0  0
   -4.8241    1.7192    1.5876 C   0  0  0  0  0  0  0  0  0  0  0  0
   -6.2458    1.9569    1.4238 C   0  0  0  0  0  0  0  0  0  0  0  0
   -7.0901    0.9849    1.0368 C   0  0  0  0  0  0  0  0  0  0  0  0
   -8.5246    1.1886    0.8599 C   0  0  0  0  0  0  0  0  0  0  0  0
   -9.0187    2.3437    0.3655 C   0  0  0  0  0  0  0  0  0  0  0  0
  -10.4421    2.5589    0.1674 C   0  0  0  0  0  0  0  0  0  0  0  0
  -11.3754    1.8243    0.3916 O   0  0  0  0  0  0  0  0  0  0  0  0
  -10.6788    3.7980   -0.3550 O   0  0  0  0  0  0  0  0  0  0  0  0
   -9.3933    0.0403    1.2331 C   0  0  0  0  0  0  0  0  0  0  0  0
   -4.1941    4.1257    1.3070 C   0  0  0  0  0  0  0  0  0  0  0  0
    1.9848    1.0486    3.6700 C   0  0  0  0  0  0  0  0  0  0  0  0
    2.5304    2.4754    1.6722 C   0  0  0  0  0  0  0  0  0  0  0  0
   -0.4583    0.2992   -1.4408 C   0  0  0  0  0  0  0  0  0  0  0  0
   -0.5349   -1.3786    0.4286 C   0  0  0  0  0  0  0  0  0  0  0  0
    1.9175   -0.8780   -0.5563 H   0  0  0  0  0  0  0  0  0  0  0  0
    1.9160    0.8862   -0.5480 H   0  0  0  0  0  0  0  0  0  0  0  0
    3.1909   -0.1023    1.4077 H   0  0  0  0  0  0  0  0  0  0  0  0
    1.7146   -0.8851    1.9719 H   0  0  0  0  0  0  0  0  0  0  0  0
    0.2522    3.0601    3.5743 H   0  0  0  0  0  0  0  0  0  0  0  0
   -2.1188    3.6901    3.3335 H   0  0  0  0  0  0  0  0  0  0  0  0
   -2.5126    0.9225    0.0777 H   0  0  0  0  0  0  0  0  0  0  0  0
   -4.5287    0.6798    1.7529 H   0  0  0  0  0  0  0  0  0  0  0  0
   -6.6014    2.9689    1.6374 H   0  0  0  0  0  0  0  0  0  0  0  0
   -6.7352   -0.0280    0.8376 H   0  0  0  0  0  0  0  0  0  0  0  0
   -8.3735    3.1736    0.0742 H   0  0  0  0  0  0  0  0  0  0  0  0
  -11.6379    3.9742   -0.5084 H   0  0  0  0  0  0  0  0  0  0  0  0
   -8.8496   -0.7930    1.6926 H   0  0  0  0  0  0  0  0  0  0  0  0
   -9.9373   -0.3520    0.3554 H   0  0  0  0  0  0  0  0  0  0  0  0
  -10.1876    0.3476    1.9385 H   0  0  0  0  0  0  0  0  0  0  0  0
   -3.2872    4.7438    1.2357 H   0  0  0  0  0  0  0  0  0  0  0  0
   -4.8051    4.5425    2.1215 H   0  0  0  0  0  0  0  0  0  0  0  0
   -4.7507    4.2743    0.3692 H   0  0  0  0  0  0  0  0  0  0  0  0
    1.2912    0.3144    4.0948 H   0  0  0  0  0  0  0  0  0  0  0  0
    1.8923    1.9671    4.2578 H   0  0  0  0  0  0  0  0  0  0  0  0
    3.0034    0.6736    3.8167 H   0  0  0  0  0  0  0  0  0  0  0  0
    2.3291    2.6810    0.6148 H   0  0  0  0  0  0  0  0  0  0  0  0
    3.6019    2.2812    1.7790 H   0  0  0  0  0  0  0  0  0  0  0  0
    2.3005    3.3900    2.2290 H   0  0  0  0  0  0  0  0  0  0  0  0
   -0.2473    1.3390   -1.7134 H   0  0  0  0  0  0  0  0  0  0  0  0
   -1.5324    0.1333   -1.5731 H   0  0  0  0  0  0  0  0  0  0  0  0
    0.0567   -0.3473   -2.1593 H   0  0  0  0  0  0  0  0  0  0  0  0
   -0.2294   -1.6214    1.4525 H   0  0  0  0  0  0  0  0  0  0  0  0
   -0.1646   -2.1705   -0.2294 H   0  0  0  0  0  0  0  0  0  0  0  0
   -1.6295   -1.4076    0.4024 H   0  0  0  0  0  0  0  0  0  0  0  0
  1  2  1  0  0  0  0
  1 25  1  0  0  0  0
  1 10  1  0  0  0  0
  2  3  1  0  0  0  0
  3 29  1  0  0  0  0
  3  4  1  0  0  0  0
  4 22  1  0  0  0  0
  5  4  1  0  0  0  0
  5  6  2  0  0  0  0
  6 30  1  0  0  0  0
  7  6  1  0  0  0  0
  7 31  1  0  0  0  0
  8  7  2  0  0  0  0
  9 10  2  0  0  0  0
  9  8  1  0  0  0  0
 10  5  1  0  0  0  0
 11 12  2  0  0  0  0
 11  8  1  0  0  0  0
 12 33  1  0  0  0  0
 13 12  1  0  0  0  0
 13 34  1  0  0  0  0
 14 13  2  0  0  0  0
 15 14  1  0  0  0  0
 15 20  1  0  0  0  0
 16 15  2  0  0  0  0
 17 16  1  0  0  0  0
 17 18  2  0  0  0  0
 19 17  1  0  0  0  0
 20 38  1  0  0  0  0
 20 40  1  0  0  0  0
 21 11  1  0  0  0  0
 21 42  1  0  0  0  0
 22 46  1  0  0  0  0
 22 44  1  0  0  0  0
 22 45  1  0  0  0  0
 23 48  1  0  0  0  0
 23  4  1  0  0  0  0
 23 49  1  0  0  0  0
 24  1  1  0  0  0  0
 25 53  1  0  0  0  0
 26  2  1  0  0  0  0
 27  2  1  0  0  0  0
 28  3  1  0  0  0  0
 32  9  1  0  0  0  0
 35 14  1  0  0  0  0
 36 16  1  0  0  0  0
 37 19  1  0  0  0  0
 39 20  1  0  0  0  0
 41 21  1  0  0  0  0
 43 21  1  0  0  0  0
 47 23  1  0  0  0  0
 50 24  1  0  0  0  0
 51 24  1  0  0  0  0
 52 24  1  0  0  0  0
 54 25  1  0  0  0  0
 55 25  1  0  0  0  0
M  END
$$$$
