55

C         -0.08460       -0.32380        0.35020
C          1.44630       -0.27750        0.18100
C          2.16810        0.07370        1.47140
C          1.81430        1.48350        1.98280
C          0.29930        1.71220        1.90820
C         -0.25590        2.81070        2.58650
C         -1.61450        3.09870        2.55580
C         -2.50350        2.27160        1.84350
C         -1.94040        1.19220        1.14320
C         -0.57080        0.89650        1.14780
C         -3.95860        2.54390        1.82400
C         -4.85040        1.54160        1.57430
C         -6.28290        1.65020        1.49920
C         -7.10130        0.58640        1.28750
C         -8.56170        0.59120        1.19060
C         -9.27410        1.75120        1.15030
C        -10.73470        1.88510        1.06880
O        -11.57790        1.01160        1.01770
O        -11.08890        3.19630        1.05300
C         -9.19040       -0.77660        1.13340
C         -4.38940        3.95730        2.12050
C          2.32330        1.60070        3.43230
C          2.52110        2.55220        1.12040
C         -0.71090       -0.35950       -1.05690
C         -0.49470       -1.60480        1.10870
H          1.79180       -1.25180       -0.20200
H          1.69790        0.46300       -0.59640
H          3.26000        0.00770        1.33400
H          1.91280       -0.66400        2.25020
H          0.39840        3.46720        3.16250
H         -1.98410        3.96110        3.11150
H         -2.60060        0.56750        0.54290
H         -4.45590        0.53130        1.43250
H         -6.73020        2.63910        1.62560
H         -6.63190       -0.39950        1.19110
H         -8.74850        2.70680        1.17290
H        -12.05880        3.20850        0.99800
H         -8.78670       -1.33060        0.26840
H        -10.28040       -0.72980        1.05940
H         -8.90760       -1.35240        2.03130
H         -3.79990        4.67890        1.53340
H         -4.22600        4.20360        3.18370
H         -5.45070        4.13050        1.90770
H          1.77390        0.91930        4.10030
H          2.22560        2.62070        3.83160
H          3.39150        1.33380        3.47490
H          2.21370        2.49160        0.06600
H          3.61510        2.42590        1.16910
H          2.27830        3.56530        1.47500
H         -0.52880        0.58360       -1.59490
H         -1.79670       -0.53250       -1.03190
H         -0.26420       -1.17920       -1.64220
H         -0.04900       -1.64280        2.11350
H         -0.17380       -2.50210        0.55440
H         -1.58720       -1.65270        1.23310
