55
rmsd150.gzmat
C          0.00000        0.00000        0.00000
C          1.54170        0.00000        0.00000
C          2.08960        0.00000        1.42350
C          1.69600        1.29030        2.17170
C          0.22670        1.60220        1.98750
C         -0.36240        2.54740        2.83720
C         -1.71380        2.85600        2.75000
C         -2.50320        2.20660        1.80050
C         -1.91920        1.28940        0.93050
C         -0.55390        0.99440        0.99810
C         -3.94880        2.46520        1.70870
C         -4.81740        1.46900        1.96430
C         -6.25770        1.58840        1.85170
C         -7.06090        0.51040        1.82780
C         -8.51280        0.60290        1.70200
C         -9.08450        1.48540        0.85560
C        -10.52460        1.59470        0.69790
O        -11.41160        0.96180        1.22040
O        -10.84190        2.58140       -0.19090
C         -9.30200       -0.33680        2.54100
C         -4.34060        3.83940        1.29020
C          2.01550        1.06850        3.66350
C          2.51460        2.48140        1.64320
C         -0.46230        0.36700       -1.42410
C         -0.52930       -1.39750        0.36950
H          1.91930       -0.87770       -0.55610
H          1.91710        0.88570       -0.54810
H          3.18940       -0.10670        1.41080
H          1.70780       -0.88190        1.97350
H          0.24820        3.05190        3.58550
H         -2.15730        3.58610        3.42330
H         -2.54510        0.79570        0.18680
H         -4.44210        0.48710        2.26620
H         -6.66650        2.60070        1.78730
H         -6.66210       -0.50240        1.90800
H         -8.49140        2.15740        0.23340
H        -11.81450        2.68150       -0.32580
H         -8.68850       -0.95000        3.21140
H         -9.90940       -1.01860        1.91890
H        -10.03890        0.20260        3.16420
H         -4.75780        3.83660        0.27050
H         -3.48820        4.53490        1.28140
H         -5.10270        4.27180        1.95400
H          1.31850        0.35200        4.11270
H          1.95260        1.99650        4.23980
H          3.02990        0.67740        3.79510
H          2.28640        2.68300        0.59050
H          3.58920        2.29110        1.72250
H          2.29550        3.39720        2.20210
H         -0.25340        1.41960       -1.64600
H         -1.53710        0.20920       -1.56120
H          0.05080       -0.24320       -2.17460
H         -0.23570       -1.67450        1.38810
H         -0.14340       -2.16240       -0.31070
H         -1.62310       -1.43520        0.32680
