55
rmsd141.gzmat
C          0.00000        0.00000        0.00000
C          1.54200        0.00000        0.00000
C          2.09340        0.00000        1.42240
C          1.69030        1.28330        2.17660
C          0.22330        1.60170        1.98320
C         -0.36430        2.54350        2.83780
C         -1.70690        2.88010        2.72870
C         -2.48630        2.26890        1.74660
C         -1.90980        1.34520        0.88100
C         -0.55340        1.01340        0.97900
C         -3.91590        2.60170        1.62170
C         -4.29830        3.64140        0.86010
C         -5.67660        4.04710        0.66090
C         -6.00570        5.24000        0.13650
C         -7.38940        5.65620       -0.07870
C         -8.34770        5.39900        0.83640
C         -9.73000        5.80960        0.65650
O        -10.24870        6.40640       -0.25730
O        -10.49100        5.42740        1.72390
C         -7.66280        6.38360       -1.34610
C         -4.83120        1.70730        2.38260
C          1.99720        1.05480        3.67040
C          2.51460        2.47810        1.66310
C         -0.45990        0.32670       -1.43450
C         -0.53060       -1.38760        0.40450
H          1.91760       -0.87890       -0.55580
H          1.91670        0.88530       -0.54930
H          3.19480       -0.09560        1.40610
H          1.72310       -0.88840        1.96960
H          0.23970        3.02670        3.60550
H         -2.14820        3.61340        3.40020
H         -2.52970        0.87810        0.11640
H         -3.54330        4.24410        0.34730
H         -6.44720        3.32450        0.94620
H         -5.24590        5.96170       -0.16770
H         -8.13190        4.87810        1.77040
H        -11.43720        5.69510        1.64000
H         -6.78790        6.47750       -1.99930
H         -8.05130        7.39950       -1.15030
H         -8.46030        5.88720       -1.92920
H         -4.36750        1.34580        3.31350
H         -5.08830        0.81580        1.78860
H         -5.77220        2.19690        2.66600
H          1.30190        0.33000        4.10840
H          1.91870        1.97910        4.25110
H          3.01390        0.67370        3.81040
H          2.30750        2.67620        0.60550
H          3.58840        2.29410        1.76590
H          2.27840        3.39330        2.21600
H         -0.26200        1.37530       -1.68280
H         -1.53170        0.15270       -1.57210
H          0.06230       -0.29730       -2.16760
H         -0.21880       -1.64820        1.42220
H         -0.16220       -2.16670       -0.26950
H         -1.62530       -1.41770        0.38370
