55
rmsd99.gzmat
C          0.00000        0.00000        0.00000
C          1.54190        0.00000        0.00000
C          2.09180        0.00000        1.42270
C          1.69510        1.28760        2.17280
C          0.22330        1.59150        1.99480
C         -0.36830        2.52110        2.85910
C         -1.71800        2.83640        2.76800
C         -2.49810        2.21720        1.79230
C         -1.91630        1.30810        0.91390
C         -0.55500        0.99690        0.99480
C         -3.93620        2.50960        1.68060
C         -4.81230        1.90680        2.50380
C         -6.24800        2.09760        2.43460
C         -7.08460        1.62800        3.37510
C         -8.53210        1.81850        3.30600
C         -9.20850        1.58260        2.16290
C        -10.64730        1.75430        2.05530
O        -11.45100        2.09890        2.88930
O        -11.07570        1.46400        0.79180
C         -9.18880        2.26950        4.56060
C         -4.30960        3.47580        0.60990
C          2.02550        1.06820        3.66240
C          2.50140        2.48660        1.64220
C         -0.46150        0.35580       -1.42720
C         -0.52680       -1.39720        0.37510
H          1.91750       -0.87910       -0.55530
H          1.91820        0.88460       -0.54890
H          3.19180       -0.10470        1.40850
H          1.71200       -0.88250        1.97340
H          0.23750        3.00820        3.62290
H         -2.16450        3.55450        3.45210
H         -2.53990        0.82960        0.15900
H         -4.45410        1.21740        3.27220
H         -6.62640        2.65000        1.56960
H         -6.72460        1.08850        4.25200
H         -8.70840        1.23650        1.25650
H        -12.05110        1.56530        0.68140
H         -8.48780        2.44340        5.38560
H         -9.94470        1.54120        4.90550
H         -9.75540        3.20540        4.40200
H         -4.96090        3.00940       -0.14450
H         -3.43220        3.87000        0.07610
H         -4.84940        4.34290        1.01880
H          1.34650        0.33500        4.11180
H          1.94340        1.99290        4.24200
H          3.04900        0.70030        3.78870
H          2.25620        2.69700        0.59510
H          3.57800        2.30170        1.70500
H          2.28550        3.39620        2.21280
H         -0.25870        1.40770       -1.65610
H         -1.53430        0.18790       -1.56550
H          0.05760       -0.25590       -2.17240
H         -0.20160       -1.68580        1.38100
H         -0.16910       -2.15790       -0.32520
H         -1.62190       -1.42750        0.36990
