55
rmsd116.gzmat
C          0.00000        0.00000        0.00000
C          1.54180        0.00000        0.00000
C          2.09390        0.00000        1.42200
C          1.69740        1.28780        2.17170
C          0.23020        1.60670        1.97900
C         -0.35550        2.55130        2.83080
C         -1.69860        2.88710        2.72310
C         -2.48120        2.27680        1.74240
C         -1.90520        1.34730        0.88120
C         -0.55000        1.01460        0.97870
C         -3.90590        2.62360        1.60990
C         -4.78100        2.27170        2.56920
C         -6.19260        2.60420        2.54680
C         -6.97390        2.50190        3.63600
C         -8.39250        2.85100        3.63620
C         -8.84600        3.93620        2.97410
C        -10.24460        4.33120        2.97970
O        -11.19110        3.83170        3.54110
O        -10.43480        5.44760        2.21620
C         -9.28030        1.96090        4.43000
C         -4.25320        3.39740        0.38560
C          2.00820        1.06540        3.66530
C          2.52240        2.47850        1.64990
C         -0.45930        0.32960       -1.43440
C         -0.53310       -1.38720        0.40140
H          1.91840       -0.87800       -0.55610
H          1.91540        0.88640       -0.54850
H          3.19460       -0.10230        1.40430
H          1.71890       -0.88420        1.97260
H          0.25010        3.03610        3.59610
H         -2.13800        3.62030        3.39600
H         -2.52850        0.86990        0.12540
H         -4.43380        1.71060        3.44090
H         -6.60190        2.94770        1.59190
H         -6.58260        2.14460        4.59000
H         -8.17840        4.58970        2.40990
H        -11.37290        5.75410        2.20770
H         -8.78910        1.04110        4.76880
H        -10.18010        1.66570        3.85870
H         -9.67390        2.48330        5.31990
H         -3.51850        3.25200       -0.42070
H         -4.27160        4.47720        0.60450
H         -5.23750        3.12890       -0.02240
H          1.31020        0.34830        4.11120
H          1.93820        1.99350        4.24120
H          3.02290        0.67750        3.80310
H          2.29440        2.68690        0.59870
H          3.59650        2.28360        1.72880
H          2.30660        3.39210        2.21400
H         -0.27330        1.38160       -1.67650
H         -1.52810        0.14170       -1.57670
H          0.07430       -0.28390       -2.16830
H         -0.26400       -1.62970        1.43570
H         -0.12830       -2.17200       -0.24460
H         -1.62560       -1.43070        0.33350
