55
rmsd101.gzmat
C          0.00000        0.00000        0.00000
C          1.54190        0.00000        0.00000
C          2.09340        0.00000        1.42180
C          1.69110        1.28390        2.17580
C          0.21800        1.58460        2.00000
C         -0.37870        2.51040        2.86550
C         -1.72990        2.81950        2.77560
C         -2.51010        2.20320        1.79650
C         -1.91980        1.30220        0.91440
C         -0.55790        0.99310        0.99680
C         -3.94820        2.49510        1.68050
C         -4.42250        3.10960        0.58090
C         -5.82230        3.41150        0.35040
C         -6.22940        4.15060       -0.69570
C         -7.63250        4.46540       -0.95550
C         -8.58870        3.51720       -0.87230
C         -9.98950        3.79130       -1.14610
O        -10.52660        4.81780       -1.49010
O        -10.74760        2.66960       -0.96810
C         -7.91520        5.87350       -1.34020
C         -4.79250        2.04570        2.82290
C          2.02670        1.06010        3.66370
C          2.49420        2.48510        1.64500
C         -0.45840        0.35780       -1.42750
C         -0.52860       -1.39640        0.37570
H          1.91780       -0.87910       -0.55490
H          1.91820        0.88380       -0.55040
H          3.19460       -0.09740        1.40530
H          1.72070       -0.88700        1.96980
H          0.22590        3.00150        3.62760
H         -2.17620        3.53920        3.45830
H         -2.53870        0.82920        0.15160
H         -3.73200        3.41180       -0.21170
H         -6.53980        3.01050        1.07160
H         -5.52020        4.57350       -1.40940
H         -8.35530        2.48420       -0.60750
H        -11.70600        2.81910       -1.15130
H         -7.07220        6.55240       -1.16450
H         -8.78690        6.28090       -0.79450
H         -8.19090        5.94560       -2.40680
H         -4.19350        1.72770        3.68850
H         -5.41410        1.18240        2.53670
H         -5.46940        2.83690        3.17460
H          1.34500        0.33170        4.11640
H          1.95620        1.98460        4.24480
H          3.04820        0.68340        3.78380
H          2.24240        2.69970        0.60030
H          3.57110        2.29810        1.69790
H          2.28300        3.39250        2.22060
H         -0.24980        1.40850       -1.65660
H         -1.53180        0.19570       -1.56830
H          0.05990       -0.25650       -2.17140
H         -0.25080       -1.66100        1.40220
H         -0.12820       -2.16640       -0.29030
H         -1.62160       -1.44000        0.31640
