
     RDKit          3D

 55 56  0  0  0  0  0  0  0  0999 V2000
    0.1354   -0.3441    0.2441 C   0  0  0  0  0  0  0  0  0  0  0  0
    1.6720   -0.2888    0.3448 C   0  0  0  0  0  0  0  0  0  0  0  0
    2.1551    0.0592    1.7433 C   0  0  0  0  0  0  0  0  0  0  0  0
    1.7062    1.4627    2.1933 C   0  0  0  0  0  0  0  0  0  0  0  0
    0.2273    1.6840    1.8520 C   0  0  0  0  0  0  0  0  0  0  0  0
   -0.4519    2.7672    2.4421 C   0  0  0  0  0  0  0  0  0  0  0  0
   -1.7833    3.0471    2.1762 C   0  0  0  0  0  0  0  0  0  0  0  0
   -2.5205    2.2415    1.2851 C   0  0  0  0  0  0  0  0  0  0  0  0
   -1.8411    1.1596    0.7040 C   0  0  0  0  0  0  0  0  0  0  0  0
   -0.4883    0.8719    0.9464 C   0  0  0  0  0  0  0  0  0  0  0  0
   -3.9436    2.5038    0.9731 C   0  0  0  0  0  0  0  0  0  0  0  0
   -4.4823    3.7424    1.1696 C   0  0  0  0  0  0  0  0  0  0  0  0
   -5.8417    4.1478    0.9316 C   0  0  0  0  0  0  0  0  0  0  0  0
   -6.2845    5.4187    1.1198 C   0  0  0  0  0  0  0  0  0  0  0  0
   -7.6391    5.9323    0.9109 C   0  0  0  0  0  0  0  0  0  0  0  0
   -8.6687    5.1181    0.5477 C   0  0  0  0  0  0  0  0  0  0  0  0
  -10.0615    5.5152    0.3032 C   0  0  0  0  0  0  0  0  0  0  0  0
  -10.5630    6.6195    0.3766 O   0  0  0  0  0  0  0  0  0  0  0  0
  -10.8069    4.4340   -0.0441 O   0  0  0  0  0  0  0  0  0  0  0  0
   -7.7874    7.4148    1.1332 C   0  0  0  0  0  0  0  0  0  0  0  0
   -4.7422    1.3568    0.4089 C   0  0  0  0  0  0  0  0  0  0  0  0
    1.9511    1.5715    3.7107 C   0  0  0  0  0  0  0  0  0  0  0  0
    2.5456    2.5430    1.4765 C   0  0  0  0  0  0  0  0  0  0  0  0
   -0.2352   -0.3778   -1.2510 C   0  0  0  0  0  0  0  0  0  0  0  0
   -0.3937   -1.6298    0.9158 C   0  0  0  0  0  0  0  0  0  0  0  0
    2.0855   -1.2590    0.0237 H   0  0  0  0  0  0  0  0  0  0  0  0
    2.0506    0.4576   -0.3732 H   0  0  0  0  0  0  0  0  0  0  0  0
    3.2546    0.0017    1.7977 H   0  0  0  0  0  0  0  0  0  0  0  0
    1.7740   -0.6857    2.4615 H   0  0  0  0  0  0  0  0  0  0  0  0
    0.0803    3.4093    3.1457 H   0  0  0  0  0  0  0  0  0  0  0  0
   -2.2623    3.8811    2.6909 H   0  0  0  0  0  0  0  0  0  0  0  0
   -2.3823    0.5156    0.0133 H   0  0  0  0  0  0  0  0  0  0  0  0
   -3.8215    4.5365    1.5280 H   0  0  0  0  0  0  0  0  0  0  0  0
   -6.5483    3.3928    0.5789 H   0  0  0  0  0  0  0  0  0  0  0  0
   -5.5538    6.1611    1.4607 H   0  0  0  0  0  0  0  0  0  0  0  0
   -8.4901    4.0503    0.4141 H   0  0  0  0  0  0  0  0  0  0  0  0
  -11.7076    4.7681   -0.1890 H   0  0  0  0  0  0  0  0  0  0  0  0
   -7.1026    7.9600    0.4612 H   0  0  0  0  0  0  0  0  0  0  0  0
   -7.4785    7.6655    2.1626 H   0  0  0  0  0  0  0  0  0  0  0  0
   -8.8118    7.7593    0.9667 H   0  0  0  0  0  0  0  0  0  0  0  0
   -4.5945    0.4436    1.0065 H   0  0  0  0  0  0  0  0  0  0  0  0
   -4.4198    1.1198   -0.6194 H   0  0  0  0  0  0  0  0  0  0  0  0
   -5.8170    1.5677    0.3707 H   0  0  0  0  0  0  0  0  0  0  0  0
    1.2949    0.8847    4.2673 H   0  0  0  0  0  0  0  0  0  0  0  0
    1.7818    2.5887    4.0929 H   0  0  0  0  0  0  0  0  0  0  0  0
    2.9960    1.3066    3.9391 H   0  0  0  0  0  0  0  0  0  0  0  0
    2.4321    2.4869    0.3839 H   0  0  0  0  0  0  0  0  0  0  0  0
    3.6145    2.4254    1.7193 H   0  0  0  0  0  0  0  0  0  0  0  0
    2.2337    3.5516    1.7873 H   0  0  0  0  0  0  0  0  0  0  0  0
    0.0336    0.5679   -1.7465 H   0  0  0  0  0  0  0  0  0  0  0  0
   -1.3080   -0.5554   -1.4160 H   0  0  0  0  0  0  0  0  0  0  0  0
    0.3105   -1.1936   -1.7518 H   0  0  0  0  0  0  0  0  0  0  0  0
   -0.1273   -1.6705    1.9822 H   0  0  0  0  0  0  0  0  0  0  0  0
    0.0217   -2.5235    0.4217 H   0  0  0  0  0  0  0  0  0  0  0  0
   -1.4911   -1.6827    0.8500 H   0  0  0  0  0  0  0  0  0  0  0  0
  1  2  1  0
  1 10  1  0
  1 24  1  0
  1 25  1  0
  2  3  1  0
  2 26  1  0
  2 27  1  0
  3  4  1  0
  3 28  1  0
  3 29  1  0
  4  5  1  0
  4 22  1  0
  4 23  1  0
  5  6  1  0
  5 10  2  0
  6  7  2  0
  6 30  1  0
  7  8  1  0
  7 31  1  0
  8  9  2  0
  8 11  1  0
  9 10  1  0
  9 32  1  0
 11 12  2  0
 11 21  1  0
 12 13  1  0
 12 33  1  0
 13 14  2  0
 13 34  1  0
 14 15  1  0
 14 35  1  0
 15 16  2  0
 15 20  1  0
 16 17  1  0
 16 36  1  0
 17 18  2  0
 17 19  1  0
 19 37  1  0
 20 38  1  0
 20 39  1  0
 20 40  1  0
 21 41  1  0
 21 42  1  0
 21 43  1  0
 22 44  1  0
 22 45  1  0
 22 46  1  0
 23 47  1  0
 23 48  1  0
 23 49  1  0
 24 50  1  0
 24 51  1  0
 24 52  1  0
 25 53  1  0
 25 54  1  0
 25 55  1  0
M  END

