rmsd157.gzmat
 OpenBabel08211713433D

 55 56  0  0  0  0  0  0  0  0999 V2000
    0.0000    0.0000    0.0000 C   0  0  0  0  0  0  0  0  0  0  0  0
    1.5420    0.0000    0.0000 C   0  0  0  0  0  0  0  0  0  0  0  0
    2.0900    0.0000    1.4239 C   0  0  0  0  0  0  0  0  0  0  0  0
    1.6996    1.2928    2.1681 C   0  0  0  0  0  0  0  0  0  0  0  0
    0.2309    1.6060    1.9818 C   0  0  0  0  0  0  0  0  0  0  0  0
   -0.3540    2.5519    2.8328 C   0  0  0  0  0  0  0  0  0  0  0  0
   -1.7050    2.8581    2.7492 C   0  0  0  0  0  0  0  0  0  0  0  0
   -2.4996    2.2138    1.7985 C   0  0  0  0  0  0  0  0  0  0  0  0
   -1.9186    1.2974    0.9261 C   0  0  0  0  0  0  0  0  0  0  0  0
   -0.5537    0.9987    0.9940 C   0  0  0  0  0  0  0  0  0  0  0  0
   -3.9395    2.5046    1.7322 C   0  0  0  0  0  0  0  0  0  0  0  0
   -4.3607    3.7766    1.6010 C   0  0  0  0  0  0  0  0  0  0  0  0
   -5.7503    4.1877    1.5884 C   0  0  0  0  0  0  0  0  0  0  0  0
   -6.1071    5.4833    1.5500 C   0  0  0  0  0  0  0  0  0  0  0  0
   -7.4974    5.9300    1.5804 C   0  0  0  0  0  0  0  0  0  0  0  0
   -8.3880    5.3733    2.4277 C   0  0  0  0  0  0  0  0  0  0  0  0
   -9.7674    5.8220    2.5155 C   0  0  0  0  0  0  0  0  0  0  0  0
  -10.3283    6.7190    1.9318 O   0  0  0  0  0  0  0  0  0  0  0  0
  -10.4651    5.0722    3.4185 O   0  0  0  0  0  0  0  0  0  0  0  0
   -7.8464    7.0380    0.6530 C   0  0  0  0  0  0  0  0  0  0  0  0
   -4.8380    1.3194    1.8272 C   0  0  0  0  0  0  0  0  0  0  0  0
    2.0143    1.0794    3.6625 C   0  0  0  0  0  0  0  0  0  0  0  0
    2.5220    2.4809    1.6387 C   0  0  0  0  0  0  0  0  0  0  0  0
   -0.4631    0.3555   -1.4268 C   0  0  0  0  0  0  0  0  0  0  0  0
   -0.5272   -1.3971    0.3759 C   0  0  0  0  0  0  0  0  0  0  0  0
    1.9197   -0.8774   -0.5564 H   0  0  0  0  0  0  0  0  0  0  0  0
    1.9165    0.8861   -0.5481 H   0  0  0  0  0  0  0  0  0  0  0  0
    3.1895   -0.1105    1.4119 H   0  0  0  0  0  0  0  0  0  0  0  0
    1.7047   -0.8790    1.9762 H   0  0  0  0  0  0  0  0  0  0  0  0
    0.2567    3.0598    3.5791 H   0  0  0  0  0  0  0  0  0  0  0  0
   -2.1463    3.5868    3.4265 H   0  0  0  0  0  0  0  0  0  0  0  0
   -2.5422    0.8086    0.1781 H   0  0  0  0  0  0  0  0  0  0  0  0
   -3.6260    4.5823    1.5115 H   0  0  0  0  0  0  0  0  0  0  0  0
   -6.5035    3.3956    1.6175 H   0  0  0  0  0  0  0  0  0  0  0  0
   -5.3643    6.2807    1.4922 H   0  0  0  0  0  0  0  0  0  0  0  0
   -8.1118    4.5664    3.1085 H   0  0  0  0  0  0  0  0  0  0  0  0
  -11.4052    5.3574    3.5131 H   0  0  0  0  0  0  0  0  0  0  0  0
   -7.0239    7.3330   -0.0090 H   0  0  0  0  0  0  0  0  0  0  0  0
   -8.1746    7.9367    1.2060 H   0  0  0  0  0  0  0  0  0  0  0  0
   -8.7088    6.7717    0.0149 H   0  0  0  0  0  0  0  0  0  0  0  0
   -4.3354    0.4542    2.2857 H   0  0  0  0  0  0  0  0  0  0  0  0
   -5.1775    1.0037    0.8286 H   0  0  0  0  0  0  0  0  0  0  0  0
   -5.7339    1.5190    2.4316 H   0  0  0  0  0  0  0  0  0  0  0  0
    1.3182    0.3633    4.1133 H   0  0  0  0  0  0  0  0  0  0  0  0
    1.9424    2.0110    4.2329 H   0  0  0  0  0  0  0  0  0  0  0  0
    3.0301    0.6956    3.8020 H   0  0  0  0  0  0  0  0  0  0  0  0
    2.3015    2.6773    0.5836 H   0  0  0  0  0  0  0  0  0  0  0  0
    3.5961    2.2918    1.7279 H   0  0  0  0  0  0  0  0  0  0  0  0
    2.2977    3.3994    2.1915 H   0  0  0  0  0  0  0  0  0  0  0  0
   -0.2618    1.4078   -1.6565 H   0  0  0  0  0  0  0  0  0  0  0  0
   -1.5365    0.1906   -1.5629 H   0  0  0  0  0  0  0  0  0  0  0  0
    0.0543   -0.2569   -2.1730 H   0  0  0  0  0  0  0  0  0  0  0  0
   -0.2261   -1.6728    1.3927 H   0  0  0  0  0  0  0  0  0  0  0  0
   -0.1438   -2.1628   -0.3055 H   0  0  0  0  0  0  0  0  0  0  0  0
   -1.6210   -1.4355    0.3402 H   0  0  0  0  0  0  0  0  0  0  0  0
  1 25  1  0  0  0  0
  1 10  1  0  0  0  0
  2  1  1  0  0  0  0
  2  3  1  0  0  0  0
  3 29  1  0  0  0  0
  3  4  1  0  0  0  0
  4 22  1  0  0  0  0
  5  4  1  0  0  0  0
  5  6  2  0  0  0  0
  6 30  1  0  0  0  0
  7  6  1  0  0  0  0
  7 31  1  0  0  0  0
  8  7  2  0  0  0  0
  9 10  2  0  0  0  0
  9  8  1  0  0  0  0
 10  5  1  0  0  0  0
 11  8  1  0  0  0  0
 11 21  1  0  0  0  0
 12 11  2  0  0  0  0
 13 12  1  0  0  0  0
 13 34  1  0  0  0  0
 14 15  1  0  0  0  0
 14 13  2  0  0  0  0
 15 16  2  0  0  0  0
 16 17  1  0  0  0  0
 16 36  1  0  0  0  0
 17 19  1  0  0  0  0
 18 17  2  0  0  0  0
 19 37  1  0  0  0  0
 20 39  1  0  0  0  0
 20 15  1  0  0  0  0
 21 41  1  0  0  0  0
 21 43  1  0  0  0  0
 22 46  1  0  0  0  0
 22 44  1  0  0  0  0
 22 45  1  0  0  0  0
 23 48  1  0  0  0  0
 23  4  1  0  0  0  0
 23 49  1  0  0  0  0
 24  1  1  0  0  0  0
 25 53  1  0  0  0  0
 26  2  1  0  0  0  0
 27  2  1  0  0  0  0
 28  3  1  0  0  0  0
 32  9  1  0  0  0  0
 33 12  1  0  0  0  0
 35 14  1  0  0  0  0
 38 20  1  0  0  0  0
 40 20  1  0  0  0  0
 42 21  1  0  0  0  0
 47 23  1  0  0  0  0
 50 24  1  0  0  0  0
 51 24  1  0  0  0  0
 52 24  1  0  0  0  0
 54 25  1  0  0  0  0
 55 25  1  0  0  0  0
M  END
$$$$
