55

C          0.35430        0.15520       -0.20550
C          1.86040        0.43820       -0.04460
C          2.32640        0.32810        1.39800
C          1.65580        1.36620        2.31820
C          0.14920        1.43140        2.03830
C         -0.68480        2.09380        2.95940
C         -2.05390        2.21050        2.77620
C         -2.67410        1.65420        1.63940
C         -1.83460        1.02330        0.70820
C         -0.44560        0.90090        0.87360
C         -4.13460        1.73830        1.41490
C         -4.98770        1.94120        2.46090
C         -6.41990        2.06330        2.40430
C         -7.19850        2.22550        3.50620
C         -8.65480        2.36210        3.55720
C         -9.40940        2.44000        2.42620
C        -10.87060        2.56840        2.34940
O        -11.67840        2.63240        3.25490
O        -11.27340        2.61410        1.05290
C         -9.23040        2.41210        4.94850
C         -4.62010        1.56120       -0.00090
C          1.93270        0.95250        3.77640
C          2.26680        2.76350        2.07370
C         -0.05870        0.60590       -1.61970
C          0.08160       -1.35840       -0.06760
H          2.42450       -0.25820       -0.68660
H          2.07690        1.44970       -0.42650
H          3.42030        0.44910        1.46100
H          2.10810       -0.68280        1.78040
H         -0.24200        2.54520        3.84890
H         -2.64260        2.76200        3.51060
H         -2.28130        0.58750       -0.18360
H         -4.55960        2.00050        3.46530
H         -6.90060        2.01850        1.42410
H         -6.69520        2.24880        4.47950
H         -8.92240        2.41190        1.45050
H        -12.24090        2.69880        1.07840
H         -8.95100        1.49670        5.49780
H        -10.31890        2.51600        4.94420
H         -8.78300        3.25580        5.50170
H         -4.49650        0.51600       -0.33230
H         -4.03860        2.18580       -0.69700
H         -5.67970        1.81500       -0.12000
H          1.43040        0.00350        4.01990
H          1.59790        1.71020        4.49970
H          3.01570        0.81430        3.92540
H          2.12390        3.09260        1.03390
H          3.34810        2.75470        2.28790
H          1.79620        3.51660        2.72370
H          0.02290        1.69870       -1.72610
H         -1.08920        0.31530       -1.87130
H          0.60230        0.13920       -2.36750
H          0.38680       -1.73830        0.91840
H          0.63000       -1.92220       -0.84000
H         -0.99120       -1.57480       -0.18400
