55

C         -0.30580       -0.16620        0.27790
C          1.21120       -0.25800        0.02390
C          2.03060       -0.04630        1.28640
C          1.84480        1.36200        1.88330
C          0.35790        1.73850        1.90630
C         -0.04990        2.84810        2.66620
C         -1.37340        3.26550        2.72780
C         -2.37600        2.56540        2.03030
C         -1.95940        1.47550        1.24840
C         -0.62700        1.05070        1.15970
C         -3.79620        2.97570        2.10870
C         -4.79430        2.07850        1.86080
C         -6.21120        2.32710        1.87630
C         -7.14010        1.36020        1.65580
C         -8.59630        1.50780        1.64620
C         -9.19540        2.72630        1.75110
C        -10.63850        2.99970        1.76510
O        -11.56330        2.21550        1.68430
O        -10.86560        4.33330        1.88710
C         -9.35570        0.21420        1.50730
C         -4.07000        4.40480        2.50110
C          2.43740        1.35330        3.30550
C          2.60780        2.40190        1.03370
C         -1.00500       -0.06590       -1.09130
C         -0.80040       -1.44090        0.99550
H          1.43860       -1.23930       -0.42410
H          1.49380        0.49500       -0.73040
H          3.10190       -0.20940        1.08390
H          1.74470       -0.79610        2.04260
H          0.69530        3.40810        3.23360
H         -1.62630        4.12890        3.34380
H         -2.70840        0.94880        0.65850
H         -4.50940        1.04500        1.64430
H         -6.55140        3.34510        2.08100
H         -6.77490        0.34290        1.47410
H         -8.58060        3.62380        1.83140
H        -11.83140        4.43900        1.88910
H         -9.08460       -0.46500        2.33370
H         -9.05170       -0.29260        0.57530
H        -10.43860        0.36690        1.50220
H         -3.44480        5.09880        1.91760
H         -3.82670        4.57460        3.56390
H         -5.11900        4.68960        2.35960
H          1.85870        0.69370        3.97050
H          2.46180        2.35550        3.75750
H          3.47480        0.98300        3.27470
H          2.24220        2.42600       -0.00340
H          3.68520        2.16910        1.01470
H          2.48440        3.41370        1.44860
H         -0.75860        0.88280       -1.59270
H         -2.09980       -0.13440       -1.01270
H         -0.67300       -0.89220       -1.74020
H         -0.30880       -1.57540        1.97030
H         -0.59910       -2.33370        0.38100
H         -1.88430       -1.39030        1.17970
