rmsd239.gzmat
 OpenBabel08211713393D

 43 45  0  0  1  0  0  0  0  0999 V2000
    0.0000    0.0000    0.0000 C   0  0  1  0  0  0  0  0  0  0  0  0
    1.5282    0.0000    0.0000 C   0  0  2  0  0  0  0  0  0  0  0  0
    0.7562    0.0000   -1.3014 C   0  0  0  0  0  0  0  0  0  0  0  0
    2.2266   -1.2331    0.4635 C   0  0  0  0  0  0  0  0  0  0  0  0
    2.7021   -1.4609    1.5429 O   0  0  0  0  0  0  0  0  0  0  0  0
    2.2732   -2.1282   -0.5595 O   0  0  0  0  0  0  0  0  0  0  0  0
    2.9151   -3.3671   -0.2739 C   0  0  0  0  0  0  0  0  0  0  0  0
    2.5362    1.4666    0.3040 S   0  0  0  0  0  0  0  0  0  0  0  0
    2.2303    1.9382    1.9874 C   0  0  0  0  0  0  0  0  0  0  0  0
    2.7116    1.1777    3.0503 C   0  0  0  0  0  0  0  0  0  0  0  0
    2.5065    1.6167    4.3578 C   0  0  0  0  0  0  0  0  0  0  0  0
    1.8278    2.8103    4.5962 C   0  0  0  0  0  0  0  0  0  0  0  0
    1.3576    3.5724    3.5278 C   0  0  0  0  0  0  0  0  0  0  0  0
    1.5581    3.1384    2.2185 C   0  0  0  0  0  0  0  0  0  0  0  0
   -0.7421   -1.2505    0.3456 C   0  0  0  0  0  0  0  0  0  0  0  0
   -1.6460   -1.7529   -0.2632 O   0  0  0  0  0  0  0  0  0  0  0  0
   -0.2275   -1.7725    1.4860 O   0  0  0  0  0  0  0  0  0  0  0  0
   -0.8688   -2.9409    1.9903 C   0  0  0  0  0  0  0  0  0  0  0  0
   -0.9593    1.4605    0.4290 S   0  0  0  0  0  0  0  0  0  0  0  0
   -1.3961    1.2678    2.1356 C   0  0  0  0  0  0  0  0  0  0  0  0
   -0.6255    0.5667    3.0579 C   0  0  0  0  0  0  0  0  0  0  0  0
   -1.0296    0.5064    4.3911 C   0  0  0  0  0  0  0  0  0  0  0  0
   -2.1906    1.1571    4.8001 C   0  0  0  0  0  0  0  0  0  0  0  0
   -2.9571    1.8612    3.8717 C   0  0  0  0  0  0  0  0  0  0  0  0
   -2.5677    1.9124    2.5356 C   0  0  0  0  0  0  0  0  0  0  0  0
    0.7604    0.8796   -1.9524 H   0  0  0  0  0  0  0  0  0  0  0  0
    0.7430   -0.8999   -1.9270 H   0  0  0  0  0  0  0  0  0  0  0  0
    2.7478   -3.9464   -1.1894 H   0  0  0  0  0  0  0  0  0  0  0  0
    2.4536   -3.8492    0.5945 H   0  0  0  0  0  0  0  0  0  0  0  0
    3.9822   -3.1978   -0.0969 H   0  0  0  0  0  0  0  0  0  0  0  0
    3.2454    0.2370    2.8788 H   0  0  0  0  0  0  0  0  0  0  0  0
    2.8786    1.0236    5.1911 H   0  0  0  0  0  0  0  0  0  0  0  0
    1.6628    3.1484    5.6178 H   0  0  0  0  0  0  0  0  0  0  0  0
    0.8248    4.5019    3.7149 H   0  0  0  0  0  0  0  0  0  0  0  0
    1.1821    3.7447    1.3917 H   0  0  0  0  0  0  0  0  0  0  0  0
   -0.1994   -3.2521    2.8023 H   0  0  0  0  0  0  0  0  0  0  0  0
   -0.9448   -3.7093    1.2137 H   0  0  0  0  0  0  0  0  0  0  0  0
   -1.8612   -2.6749    2.3696 H   0  0  0  0  0  0  0  0  0  0  0  0
    0.3008    0.0629    2.7658 H   0  0  0  0  0  0  0  0  0  0  0  0
   -0.4275   -0.0463    5.1107 H   0  0  0  0  0  0  0  0  0  0  0  0
   -2.5007    1.1151    5.8421 H   0  0  0  0  0  0  0  0  0  0  0  0
   -3.8661    2.3683    4.1889 H   0  0  0  0  0  0  0  0  0  0  0  0
   -3.1903    2.4526    1.8203 H   0  0  0  0  0  0  0  0  0  0  0  0
  1  2  1  0  0  0  0
  1 15  1  1  0  0  0
  1 19  1  0  0  0  0
  2  8  1  1  0  0  0
  2  4  1  0  0  0  0
  3  1  1  0  0  0  0
  3  2  1  0  0  0  0
  4  5  2  0  0  0  0
  6  7  1  0  0  0  0
  6  4  1  0  0  0  0
  7 30  1  0  0  0  0
  7 29  1  0  0  0  0
  8  9  1  0  0  0  0
  9 14  2  0  0  0  0
  9 10  1  0  0  0  0
 10 11  2  0  0  0  0
 11 12  1  0  0  0  0
 11 32  1  0  0  0  0
 12 33  1  0  0  0  0
 13 34  1  0  0  0  0
 13 12  2  0  0  0  0
 14 13  1  0  0  0  0
 15 17  1  0  0  0  0
 16 15  2  0  0  0  0
 17 18  1  0  0  0  0
 18 38  1  0  0  0  0
 18 36  1  0  0  0  0
 19 20  1  0  0  0  0
 20 25  2  0  0  0  0
 20 21  1  0  0  0  0
 21 22  2  0  0  0  0
 22 23  1  0  0  0  0
 22 40  1  0  0  0  0
 23 41  1  0  0  0  0
 24 42  1  0  0  0  0
 24 23  2  0  0  0  0
 25 24  1  0  0  0  0
 26  3  1  0  0  0  0
 27  3  1  0  0  0  0
 28  7  1  0  0  0  0
 31 10  1  0  0  0  0
 35 14  1  0  0  0  0
 37 18  1  0  0  0  0
 39 21  1  0  0  0  0
 43 25  1  0  0  0  0
M  END
$$$$
