43
rmsd45.gzmat
C          0.00000        0.00000        0.00000
C          1.52870        0.00000        0.00000
C          0.75750        0.00000       -1.30100
C          2.21940       -1.23460        0.47070
O          2.66180       -1.47050        1.56260
O          2.30320       -2.11850       -0.55960
C          2.90500       -3.37190       -0.25070
S          2.54160        1.46350        0.30230
C          2.24670        1.93690        1.98680
C          2.71950        1.16850        3.04780
C          2.52450        1.60880        4.35630
C          1.86750        2.81380        4.59790
C          1.40830        3.58530        3.53140
C          1.59440        3.14790        2.22120
C         -0.74160       -1.25120        0.34580
O         -1.68830       -1.72090       -0.22250
O         -0.16260       -1.82130        1.43170
C         -0.78950       -2.99300        1.94480
S         -0.95580        1.45900        0.43910
C         -1.32210        1.29150        2.16510
C         -0.55930        0.53780        3.05160
C         -0.90810        0.49660        4.40110
C         -2.00490        1.21970        4.86230
C         -2.76190        1.97810        3.97010
C         -2.42910        2.01100        2.61840
H          0.76150        0.88030       -1.95120
H          0.74640       -0.89950       -1.92690
H          3.92340       -3.22330        0.12370
H          2.90410       -3.88870       -1.21710
H          2.29810       -3.90430        0.48910
H          3.23920        0.22010        2.87480
H          2.88760        1.00790        5.18790
H          1.71000        3.15340        5.62010
H          0.89520        4.52510        3.72200
H          1.22300        3.75990        1.39660
H         -0.05440       -3.36140        2.67180
H         -0.96890       -3.72280        1.14880
H         -1.72900       -2.71350        2.43310
H          0.32160       -0.02110        2.72110
H         -0.31210       -0.09800        5.09170
H         -2.27060        1.19410        5.91670
H         -3.61940        2.54340        4.32930
H         -3.04480        2.59640        1.93340
