
     RDKit          3D

 43 45  0  0  0  0  0  0  0  0999 V2000
    0.0605   -0.0464   -0.0555 C   0  0  1  0  0  0  0  0  0  0  0  0
    1.6036    0.0952   -0.0234 C   0  0  2  0  0  0  0  0  0  0  0  0
    0.8268    0.0970   -1.3275 C   0  0  0  0  0  0  0  0  0  0  0  0
    2.3687   -1.1391    0.3740 C   0  0  0  0  0  0  0  0  0  0  0  0
    3.1799   -1.2047    1.2631 O   0  0  0  0  0  0  0  0  0  0  0  0
    2.0162   -2.2019   -0.3743 O   0  0  0  0  0  0  0  0  0  0  0  0
    2.5667   -3.4589    0.0162 C   0  0  0  0  0  0  0  0  0  0  0  0
    2.4152    1.6744    0.3053 S   0  0  0  0  0  0  0  0  0  0  0  0
    2.1780    2.0445    2.0424 C   0  0  0  0  0  0  0  0  0  0  0  0
    2.8522    1.3433    3.0522 C   0  0  0  0  0  0  0  0  0  0  0  0
    2.6839    1.7250    4.3848 C   0  0  0  0  0  0  0  0  0  0  0  0
    1.8685    2.8127    4.7129 C   0  0  0  0  0  0  0  0  0  0  0  0
    1.2153    3.5229    3.7033 C   0  0  0  0  0  0  0  0  0  0  0  0
    1.3655    3.1388    2.3699 C   0  0  0  0  0  0  0  0  0  0  0  0
   -0.5864   -1.4027    0.1699 C   0  0  0  0  0  0  0  0  0  0  0  0
   -1.3098   -1.9430   -0.6242 O   0  0  0  0  0  0  0  0  0  0  0  0
   -0.2904   -1.9090    1.3774 O   0  0  0  0  0  0  0  0  0  0  0  0
   -0.9114   -3.1500    1.7104 C   0  0  0  0  0  0  0  0  0  0  0  0
   -1.0215    1.3255    0.3641 S   0  0  0  0  0  0  0  0  0  0  0  0
   -1.2956    1.2166    2.1227 C   0  0  0  0  0  0  0  0  0  0  0  0
   -0.4669    0.5355    3.0225 C   0  0  0  0  0  0  0  0  0  0  0  0
   -0.7392    0.5907    4.3896 C   0  0  0  0  0  0  0  0  0  0  0  0
   -1.8213    1.3287    4.8752 C   0  0  0  0  0  0  0  0  0  0  0  0
   -2.6450    2.0112    3.9756 C   0  0  0  0  0  0  0  0  0  0  0  0
   -2.3921    1.9498    2.6045 C   0  0  0  0  0  0  0  0  0  0  0  0
    0.7737    1.0571   -1.8450 H   0  0  0  0  0  0  0  0  0  0  0  0
    0.8907   -0.7871   -1.9630 H   0  0  0  0  0  0  0  0  0  0  0  0
    3.6638   -3.4414   -0.0563 H   0  0  0  0  0  0  0  0  0  0  0  0
    2.1469   -4.2015   -0.6727 H   0  0  0  0  0  0  0  0  0  0  0  0
    2.2874   -3.6928    1.0543 H   0  0  0  0  0  0  0  0  0  0  0  0
    3.4799    0.4950    2.7820 H   0  0  0  0  0  0  0  0  0  0  0  0
    3.2001    1.1710    5.1729 H   0  0  0  0  0  0  0  0  0  0  0  0
    1.7390    3.1046    5.7578 H   0  0  0  0  0  0  0  0  0  0  0  0
    0.5682    4.3662    3.9544 H   0  0  0  0  0  0  0  0  0  0  0  0
    0.8372    3.6672    1.5752 H   0  0  0  0  0  0  0  0  0  0  0  0
   -0.5808   -3.3910    2.7275 H   0  0  0  0  0  0  0  0  0  0  0  0
   -0.6023   -3.9366    1.0058 H   0  0  0  0  0  0  0  0  0  0  0  0
   -2.0063   -3.0558    1.6739 H   0  0  0  0  0  0  0  0  0  0  0  0
    0.3916   -0.0260    2.6688 H   0  0  0  0  0  0  0  0  0  0  0  0
   -0.0791    0.0633    5.0816 H   0  0  0  0  0  0  0  0  0  0  0  0
   -2.0218    1.3732    5.9480 H   0  0  0  0  0  0  0  0  0  0  0  0
   -3.4978    2.5894    4.3395 H   0  0  0  0  0  0  0  0  0  0  0  0
   -3.0459    2.4733    1.9022 H   0  0  0  0  0  0  0  0  0  0  0  0
  1  2  1  0
  1  3  1  0
  1 15  1  6
  1 19  1  0
  2  3  1  0
  2  4  1  6
  2  8  1  0
  3 26  1  0
  3 27  1  0
  4  5  2  0
  4  6  1  0
  6  7  1  0
  7 28  1  0
  7 29  1  0
  7 30  1  0
  8  9  1  0
  9 10  2  0
  9 14  1  0
 10 11  1  0
 10 31  1  0
 11 12  2  0
 11 32  1  0
 12 13  1  0
 12 33  1  0
 13 14  2  0
 13 34  1  0
 14 35  1  0
 15 16  2  0
 15 17  1  0
 17 18  1  0
 18 36  1  0
 18 37  1  0
 18 38  1  0
 19 20  1  0
 20 21  2  0
 20 25  1  0
 21 22  1  0
 21 39  1  0
 22 23  2  0
 22 40  1  0
 23 24  1  0
 23 41  1  0
 24 25  2  0
 24 42  1  0
 25 43  1  0
M  END

