
     RDKit          3D

 43 45  0  0  0  0  0  0  0  0999 V2000
    0.1406    0.2310    0.0463 C   0  0  1  0  0  0  0  0  0  0  0  0
    1.6772    0.2085   -0.1107 C   0  0  2  0  0  0  0  0  0  0  0  0
    0.7358    0.2531   -1.3124 C   0  0  0  0  0  0  0  0  0  0  0  0
    2.3735   -1.0946    0.1820 C   0  0  0  0  0  0  0  0  0  0  0  0
    3.3457   -1.2357    0.8809 O   0  0  0  0  0  0  0  0  0  0  0  0
    1.7595   -2.1274   -0.4283 O   0  0  0  0  0  0  0  0  0  0  0  0
    2.2381   -3.4306   -0.1020 C   0  0  0  0  0  0  0  0  0  0  0  0
    2.6411    1.7027    0.1554 S   0  0  0  0  0  0  0  0  0  0  0  0
    2.5073    2.0380    1.9079 C   0  0  0  0  0  0  0  0  0  0  0  0
    2.8210    1.0927    2.8948 C   0  0  0  0  0  0  0  0  0  0  0  0
    2.7536    1.4540    4.2429 C   0  0  0  0  0  0  0  0  0  0  0  0
    2.4072    2.7565    4.6159 C   0  0  0  0  0  0  0  0  0  0  0  0
    2.1107    3.7016    3.6290 C   0  0  0  0  0  0  0  0  0  0  0  0
    2.1484    3.3426    2.2798 C   0  0  0  0  0  0  0  0  0  0  0  0
   -0.5581   -1.0167    0.5368 C   0  0  0  0  0  0  0  0  0  0  0  0
   -1.4721   -1.5632   -0.0228 O   0  0  0  0  0  0  0  0  0  0  0  0
   -0.0698   -1.3867    1.7308 O   0  0  0  0  0  0  0  0  0  0  0  0
   -0.7503   -2.4534    2.3896 C   0  0  0  0  0  0  0  0  0  0  0  0
   -0.7343    1.7435    0.5633 S   0  0  0  0  0  0  0  0  0  0  0  0
   -1.4905    1.2353    2.1082 C   0  0  0  0  0  0  0  0  0  0  0  0
   -0.8081    1.3764    3.3225 C   0  0  0  0  0  0  0  0  0  0  0  0
   -1.4209    0.9766    4.5111 C   0  0  0  0  0  0  0  0  0  0  0  0
   -2.7142    0.4440    4.4930 C   0  0  0  0  0  0  0  0  0  0  0  0
   -3.3987    0.3129    3.2809 C   0  0  0  0  0  0  0  0  0  0  0  0
   -2.7897    0.7092    2.0869 C   0  0  0  0  0  0  0  0  0  0  0  0
    0.7019    1.2002   -1.8561 H   0  0  0  0  0  0  0  0  0  0  0  0
    0.6533   -0.6495   -1.9193 H   0  0  0  0  0  0  0  0  0  0  0  0
    1.6056   -4.1338   -0.6566 H   0  0  0  0  0  0  0  0  0  0  0  0
    2.1550   -3.6082    0.9808 H   0  0  0  0  0  0  0  0  0  0  0  0
    3.2917   -3.5429   -0.3958 H   0  0  0  0  0  0  0  0  0  0  0  0
    3.1220    0.0891    2.5988 H   0  0  0  0  0  0  0  0  0  0  0  0
    2.9896    0.7106    5.0084 H   0  0  0  0  0  0  0  0  0  0  0  0
    2.3660    3.0341    5.6718 H   0  0  0  0  0  0  0  0  0  0  0  0
    1.8287    4.7192    3.9095 H   0  0  0  0  0  0  0  0  0  0  0  0
    1.8814    4.0654    1.5068 H   0  0  0  0  0  0  0  0  0  0  0  0
   -0.2123   -2.6207    3.3299 H   0  0  0  0  0  0  0  0  0  0  0  0
   -0.7415   -3.3623    1.7697 H   0  0  0  0  0  0  0  0  0  0  0  0
   -1.7927   -2.1683    2.5928 H   0  0  0  0  0  0  0  0  0  0  0  0
    0.1983    1.7860    3.3315 H   0  0  0  0  0  0  0  0  0  0  0  0
   -0.8819    1.0841    5.4553 H   0  0  0  0  0  0  0  0  0  0  0  0
   -3.1912    0.1333    5.4259 H   0  0  0  0  0  0  0  0  0  0  0  0
   -4.4104   -0.0994    3.2624 H   0  0  0  0  0  0  0  0  0  0  0  0
   -3.3061    0.5975    1.1322 H   0  0  0  0  0  0  0  0  0  0  0  0
  1  2  1  0
  1  3  1  0
  1 15  1  6
  1 19  1  0
  2  3  1  0
  2  4  1  6
  2  8  1  0
  3 26  1  0
  3 27  1  0
  4  5  2  0
  4  6  1  0
  6  7  1  0
  7 28  1  0
  7 29  1  0
  7 30  1  0
  8  9  1  0
  9 10  2  0
  9 14  1  0
 10 11  1  0
 10 31  1  0
 11 12  2  0
 11 32  1  0
 12 13  1  0
 12 33  1  0
 13 14  2  0
 13 34  1  0
 14 35  1  0
 15 16  2  0
 15 17  1  0
 17 18  1  0
 18 36  1  0
 18 37  1  0
 18 38  1  0
 19 20  1  0
 20 21  2  0
 20 25  1  0
 21 22  1  0
 21 39  1  0
 22 23  2  0
 22 40  1  0
 23 24  1  0
 23 41  1  0
 24 25  2  0
 24 42  1  0
 25 43  1  0
M  END

