rmsd176.gzmat
 OpenBabel08211713393D

 43 45  0  0  1  0  0  0  0  0999 V2000
    0.0000    0.0000    0.0000 C   0  0  1  0  0  0  0  0  0  0  0  0
    1.5250    0.0000    0.0000 C   0  0  2  0  0  0  0  0  0  0  0  0
    0.7552    0.0000   -1.3001 C   0  0  0  0  0  0  0  0  0  0  0  0
    2.2444   -1.2350    0.4344 C   0  0  0  0  0  0  0  0  0  0  0  0
    2.6902   -1.4957    1.5184 O   0  0  0  0  0  0  0  0  0  0  0  0
    2.3514   -2.0828   -0.6239 O   0  0  0  0  0  0  0  0  0  0  0  0
    3.0413   -3.3034   -0.3703 C   0  0  0  0  0  0  0  0  0  0  0  0
    2.4902    1.4692    0.4000 S   0  0  0  0  0  0  0  0  0  0  0  0
    2.0623    1.8814    2.0725 C   0  0  0  0  0  0  0  0  0  0  0  0
    1.5072    0.9762    2.9725 C   0  0  0  0  0  0  0  0  0  0  0  0
    1.2123    1.3898    4.2710 C   0  0  0  0  0  0  0  0  0  0  0  0
    1.4846    2.6962    4.6703 C   0  0  0  0  0  0  0  0  0  0  0  0
    2.0503    3.5948    3.7664 C   0  0  0  0  0  0  0  0  0  0  0  0
    2.3355    3.1935    2.4633 C   0  0  0  0  0  0  0  0  0  0  0  0
   -0.7533   -1.2236    0.3992 C   0  0  0  0  0  0  0  0  0  0  0  0
   -1.6540   -1.7472   -0.2004 O   0  0  0  0  0  0  0  0  0  0  0  0
   -0.2690   -1.6791    1.5792 O   0  0  0  0  0  0  0  0  0  0  0  0
   -0.9352   -2.8090    2.1360 C   0  0  0  0  0  0  0  0  0  0  0  0
   -0.9406    1.4360    0.5755 S   0  0  0  0  0  0  0  0  0  0  0  0
   -1.6257    2.0394   -0.9494 C   0  0  0  0  0  0  0  0  0  0  0  0
   -2.3829    1.2094   -1.7736 C   0  0  0  0  0  0  0  0  0  0  0  0
   -2.9301    1.7249   -2.9468 C   0  0  0  0  0  0  0  0  0  0  0  0
   -2.7290    3.0628   -3.2834 C   0  0  0  0  0  0  0  0  0  0  0  0
   -1.9775    3.8882   -2.4484 C   0  0  0  0  0  0  0  0  0  0  0  0
   -1.4153    3.3764   -1.2794 C   0  0  0  0  0  0  0  0  0  0  0  0
    0.7499    0.8821   -1.9484 H   0  0  0  0  0  0  0  0  0  0  0  0
    0.7525   -0.8976   -1.9291 H   0  0  0  0  0  0  0  0  0  0  0  0
    2.9517   -3.8375   -1.3233 H   0  0  0  0  0  0  0  0  0  0  0  0
    2.5600   -3.8535    0.4451 H   0  0  0  0  0  0  0  0  0  0  0  0
    4.0882   -3.0951   -0.1245 H   0  0  0  0  0  0  0  0  0  0  0  0
    1.3015   -0.0614    2.6930 H   0  0  0  0  0  0  0  0  0  0  0  0
    0.7694    0.6841    4.9713 H   0  0  0  0  0  0  0  0  0  0  0  0
    1.2566    3.0154    5.6845 H   0  0  0  0  0  0  0  0  0  0  0  0
    2.2665    4.6142    4.0782 H   0  0  0  0  0  0  0  0  0  0  0  0
    2.7645    3.9156    1.7688 H   0  0  0  0  0  0  0  0  0  0  0  0
   -0.3602   -2.9997    3.0512 H   0  0  0  0  0  0  0  0  0  0  0  0
   -0.8844   -3.6585    1.4478 H   0  0  0  0  0  0  0  0  0  0  0  0
   -1.9768   -2.5552    2.3610 H   0  0  0  0  0  0  0  0  0  0  0  0
   -2.5556    0.1591   -1.5155 H   0  0  0  0  0  0  0  0  0  0  0  0
   -3.5174    1.0802   -3.5983 H   0  0  0  0  0  0  0  0  0  0  0  0
   -3.1613    3.4643   -4.1984 H   0  0  0  0  0  0  0  0  0  0  0  0
   -1.8255    4.9334   -2.7092 H   0  0  0  0  0  0  0  0  0  0  0  0
   -0.8165    4.0296   -0.6415 H   0  0  0  0  0  0  0  0  0  0  0  0
  1  2  1  0  0  0  0
  1 15  1  1  0  0  0
  1 19  1  0  0  0  0
  2  8  1  1  0  0  0
  2  4  1  0  0  0  0
  3  1  1  0  0  0  0
  3  2  1  0  0  0  0
  4  5  2  0  0  0  0
  6  7  1  0  0  0  0
  6  4  1  0  0  0  0
  7 30  1  0  0  0  0
  7 29  1  0  0  0  0
  8  9  1  0  0  0  0
  9 14  2  0  0  0  0
  9 10  1  0  0  0  0
 10 11  2  0  0  0  0
 11 12  1  0  0  0  0
 11 32  1  0  0  0  0
 12 33  1  0  0  0  0
 13 34  1  0  0  0  0
 13 12  2  0  0  0  0
 14 13  1  0  0  0  0
 15 17  1  0  0  0  0
 16 15  2  0  0  0  0
 17 18  1  0  0  0  0
 18 38  1  0  0  0  0
 18 36  1  0  0  0  0
 20 19  1  0  0  0  0
 21 39  1  0  0  0  0
 21 20  2  0  0  0  0
 22 21  1  0  0  0  0
 23 22  2  0  0  0  0
 23 24  1  0  0  0  0
 24 25  2  0  0  0  0
 25 20  1  0  0  0  0
 25 43  1  0  0  0  0
 26  3  1  0  0  0  0
 27  3  1  0  0  0  0
 28  7  1  0  0  0  0
 31 10  1  0  0  0  0
 35 14  1  0  0  0  0
 37 18  1  0  0  0  0
 40 22  1  0  0  0  0
 41 23  1  0  0  0  0
 42 24  1  0  0  0  0
M  END
$$$$
