rmsd175.gzmat
 OpenBabel08211713393D

 43 45  0  0  1  0  0  0  0  0999 V2000
    0.0000    0.0000    0.0000 C   0  0  1  0  0  0  0  0  0  0  0  0
    1.5248    0.0000    0.0000 C   0  0  2  0  0  0  0  0  0  0  0  0
    0.7545    0.0000   -1.3005 C   0  0  0  0  0  0  0  0  0  0  0  0
    2.2423   -1.2338    0.4403 C   0  0  0  0  0  0  0  0  0  0  0  0
    2.6720   -1.4984    1.5296 O   0  0  0  0  0  0  0  0  0  0  0  0
    2.3709   -2.0739   -0.6221 O   0  0  0  0  0  0  0  0  0  0  0  0
    3.0549   -3.2964   -0.3643 C   0  0  0  0  0  0  0  0  0  0  0  0
    2.5004    1.4677    0.3777 S   0  0  0  0  0  0  0  0  0  0  0  0
    2.0926    1.9114    2.0463 C   0  0  0  0  0  0  0  0  0  0  0  0
    1.5720    1.0195    2.9794 C   0  0  0  0  0  0  0  0  0  0  0  0
    1.2999    1.4593    4.2744 C   0  0  0  0  0  0  0  0  0  0  0  0
    1.5583    2.7795    4.6357 C   0  0  0  0  0  0  0  0  0  0  0  0
    2.0882    3.6651    3.6981 C   0  0  0  0  0  0  0  0  0  0  0  0
    2.3520    3.2371    2.3991 C   0  0  0  0  0  0  0  0  0  0  0  0
   -0.7526   -1.2282    0.3873 C   0  0  0  0  0  0  0  0  0  0  0  0
   -1.6723   -1.7303   -0.2025 O   0  0  0  0  0  0  0  0  0  0  0  0
   -0.2377   -1.7206    1.5384 O   0  0  0  0  0  0  0  0  0  0  0  0
   -0.8948   -2.8623    2.0825 C   0  0  0  0  0  0  0  0  0  0  0  0
   -0.9343    1.4329    0.5909 S   0  0  0  0  0  0  0  0  0  0  0  0
   -1.6753    2.0156   -0.9158 C   0  0  0  0  0  0  0  0  0  0  0  0
   -2.5038    1.1878   -1.6707 C   0  0  0  0  0  0  0  0  0  0  0  0
   -3.0990    1.6868   -2.8276 C   0  0  0  0  0  0  0  0  0  0  0  0
   -2.8745    3.0071   -3.2157 C   0  0  0  0  0  0  0  0  0  0  0  0
   -2.0480    3.8296   -2.4517 C   0  0  0  0  0  0  0  0  0  0  0  0
   -1.4382    3.3336   -1.3002 C   0  0  0  0  0  0  0  0  0  0  0  0
    0.7493    0.8815   -1.9491 H   0  0  0  0  0  0  0  0  0  0  0  0
    0.7524   -0.8980   -1.9292 H   0  0  0  0  0  0  0  0  0  0  0  0
    3.0187   -3.8058   -1.3339 H   0  0  0  0  0  0  0  0  0  0  0  0
    2.5336   -3.8683    0.4100 H   0  0  0  0  0  0  0  0  0  0  0  0
    4.0866   -3.0918   -0.0584 H   0  0  0  0  0  0  0  0  0  0  0  0
    1.3770   -0.0272    2.7270 H   0  0  0  0  0  0  0  0  0  0  0  0
    0.8863    0.7636    5.0024 H   0  0  0  0  0  0  0  0  0  0  0  0
    1.3466    3.1200    5.6465 H   0  0  0  0  0  0  0  0  0  0  0  0
    2.2925    4.6956    3.9796 H   0  0  0  0  0  0  0  0  0  0  0  0
    2.7538    3.9493    1.6785 H   0  0  0  0  0  0  0  0  0  0  0  0
   -0.2577   -3.1197    2.9381 H   0  0  0  0  0  0  0  0  0  0  0  0
   -0.9289   -3.6739    1.3489 H   0  0  0  0  0  0  0  0  0  0  0  0
   -1.9056   -2.5885    2.4025 H   0  0  0  0  0  0  0  0  0  0  0  0
   -2.6919    0.1506   -1.3718 H   0  0  0  0  0  0  0  0  0  0  0  0
   -3.7406    1.0432   -3.4271 H   0  0  0  0  0  0  0  0  0  0  0  0
   -3.3454    3.3964   -4.1169 H   0  0  0  0  0  0  0  0  0  0  0  0
   -1.8735    4.8598   -2.7546 H   0  0  0  0  0  0  0  0  0  0  0  0
   -0.7812    3.9832   -0.7186 H   0  0  0  0  0  0  0  0  0  0  0  0
  1  2  1  0  0  0  0
  1 15  1  1  0  0  0
  1 19  1  0  0  0  0
  2  8  1  1  0  0  0
  2  4  1  0  0  0  0
  3  1  1  0  0  0  0
  3  2  1  0  0  0  0
  4  5  2  0  0  0  0
  6  7  1  0  0  0  0
  6  4  1  0  0  0  0
  7 30  1  0  0  0  0
  7 29  1  0  0  0  0
  8  9  1  0  0  0  0
  9 14  2  0  0  0  0
  9 10  1  0  0  0  0
 10 11  2  0  0  0  0
 11 12  1  0  0  0  0
 11 32  1  0  0  0  0
 12 33  1  0  0  0  0
 13 34  1  0  0  0  0
 13 12  2  0  0  0  0
 14 13  1  0  0  0  0
 15 17  1  0  0  0  0
 16 15  2  0  0  0  0
 17 18  1  0  0  0  0
 18 38  1  0  0  0  0
 18 36  1  0  0  0  0
 20 19  1  0  0  0  0
 21 39  1  0  0  0  0
 21 20  2  0  0  0  0
 22 21  1  0  0  0  0
 23 22  2  0  0  0  0
 23 24  1  0  0  0  0
 24 25  2  0  0  0  0
 25 20  1  0  0  0  0
 25 43  1  0  0  0  0
 26  3  1  0  0  0  0
 27  3  1  0  0  0  0
 28  7  1  0  0  0  0
 31 10  1  0  0  0  0
 35 14  1  0  0  0  0
 37 18  1  0  0  0  0
 40 22  1  0  0  0  0
 41 23  1  0  0  0  0
 42 24  1  0  0  0  0
M  END
$$$$
