rmsd234.gzmat
 OpenBabel08211713393D

 43 45  0  0  1  0  0  0  0  0999 V2000
    0.0000    0.0000    0.0000 C   0  0  1  0  0  0  0  0  0  0  0  0
    1.5248    0.0000    0.0000 C   0  0  2  0  0  0  0  0  0  0  0  0
    0.7542    0.0000   -1.3006 C   0  0  0  0  0  0  0  0  0  0  0  0
    2.2360   -1.2373    0.4399 C   0  0  0  0  0  0  0  0  0  0  0  0
    2.6916   -1.4945    1.5204 O   0  0  0  0  0  0  0  0  0  0  0  0
    2.3187   -2.0955   -0.6129 O   0  0  0  0  0  0  0  0  0  0  0  0
    2.9789   -3.3312   -0.3572 C   0  0  0  0  0  0  0  0  0  0  0  0
    2.5051    1.4656    0.3780 S   0  0  0  0  0  0  0  0  0  0  0  0
    1.9764    1.9871    1.9902 C   0  0  0  0  0  0  0  0  0  0  0  0
    1.5948    1.0965    2.9898 C   0  0  0  0  0  0  0  0  0  0  0  0
    1.2206    1.5864    4.2403 C   0  0  0  0  0  0  0  0  0  0  0  0
    1.2386    2.9570    4.4904 C   0  0  0  0  0  0  0  0  0  0  0  0
    1.6289    3.8425    3.4865 C   0  0  0  0  0  0  0  0  0  0  0  0
    1.9940    3.3619    2.2307 C   0  0  0  0  0  0  0  0  0  0  0  0
   -0.7511   -1.2321    0.3805 C   0  0  0  0  0  0  0  0  0  0  0  0
   -1.6214   -1.7692   -0.2516 O   0  0  0  0  0  0  0  0  0  0  0  0
   -0.3040   -1.6779    1.5781 O   0  0  0  0  0  0  0  0  0  0  0  0
   -0.9550   -2.8347    2.0971 C   0  0  0  0  0  0  0  0  0  0  0  0
   -0.9463    1.4247    0.5895 S   0  0  0  0  0  0  0  0  0  0  0  0
   -1.5495    2.1029   -0.9386 C   0  0  0  0  0  0  0  0  0  0  0  0
   -2.3194    1.3317   -1.8071 C   0  0  0  0  0  0  0  0  0  0  0  0
   -2.8042    1.9031   -2.9819 C   0  0  0  0  0  0  0  0  0  0  0  0
   -2.5244    3.2366   -3.2777 C   0  0  0  0  0  0  0  0  0  0  0  0
   -1.7580    4.0017   -2.4002 C   0  0  0  0  0  0  0  0  0  0  0  0
   -1.2623    3.4351   -1.2268 C   0  0  0  0  0  0  0  0  0  0  0  0
    0.7513    0.8815   -1.9494 H   0  0  0  0  0  0  0  0  0  0  0  0
    0.7492   -0.8982   -1.9291 H   0  0  0  0  0  0  0  0  0  0  0  0
    2.9143   -3.8463   -1.3228 H   0  0  0  0  0  0  0  0  0  0  0  0
    2.4556   -3.8862    0.4283 H   0  0  0  0  0  0  0  0  0  0  0  0
    4.0201   -3.1487   -0.0695 H   0  0  0  0  0  0  0  0  0  0  0  0
    1.5846    0.0154    2.8192 H   0  0  0  0  0  0  0  0  0  0  0  0
    0.9152    0.8921    5.0209 H   0  0  0  0  0  0  0  0  0  0  0  0
    0.9468    3.3365    5.4671 H   0  0  0  0  0  0  0  0  0  0  0  0
    1.6427    4.9123    3.6815 H   0  0  0  0  0  0  0  0  0  0  0  0
    2.2822    4.0704    1.4540 H   0  0  0  0  0  0  0  0  0  0  0  0
   -0.4786   -2.9572    3.0780 H   0  0  0  0  0  0  0  0  0  0  0  0
   -0.7621   -3.6957    1.4497 H   0  0  0  0  0  0  0  0  0  0  0  0
   -2.0317   -2.6570    2.1909 H   0  0  0  0  0  0  0  0  0  0  0  0
   -2.5471    0.2844   -1.5829 H   0  0  0  0  0  0  0  0  0  0  0  0
   -3.4040    1.3064   -3.6671 H   0  0  0  0  0  0  0  0  0  0  0  0
   -2.9057    3.6810   -4.1956 H   0  0  0  0  0  0  0  0  0  0  0  0
   -1.5420    5.0423   -2.6323 H   0  0  0  0  0  0  0  0  0  0  0  0
   -0.6534    4.0412   -0.5535 H   0  0  0  0  0  0  0  0  0  0  0  0
  1  2  1  0  0  0  0
  1 15  1  1  0  0  0
  1 19  1  0  0  0  0
  2  8  1  1  0  0  0
  2  4  1  0  0  0  0
  3  1  1  0  0  0  0
  3  2  1  0  0  0  0
  4  5  2  0  0  0  0
  6  7  1  0  0  0  0
  6  4  1  0  0  0  0
  7 30  1  0  0  0  0
  7 29  1  0  0  0  0
  8  9  1  0  0  0  0
  9 14  2  0  0  0  0
  9 10  1  0  0  0  0
 10 11  2  0  0  0  0
 11 12  1  0  0  0  0
 11 32  1  0  0  0  0
 12 33  1  0  0  0  0
 13 34  1  0  0  0  0
 13 12  2  0  0  0  0
 14 13  1  0  0  0  0
 15 17  1  0  0  0  0
 16 15  2  0  0  0  0
 17 18  1  0  0  0  0
 18 38  1  0  0  0  0
 18 36  1  0  0  0  0
 20 19  1  0  0  0  0
 21 39  1  0  0  0  0
 21 20  2  0  0  0  0
 22 21  1  0  0  0  0
 23 22  2  0  0  0  0
 23 24  1  0  0  0  0
 24 25  2  0  0  0  0
 25 20  1  0  0  0  0
 25 43  1  0  0  0  0
 26  3  1  0  0  0  0
 27  3  1  0  0  0  0
 28  7  1  0  0  0  0
 31 10  1  0  0  0  0
 35 14  1  0  0  0  0
 37 18  1  0  0  0  0
 40 22  1  0  0  0  0
 41 23  1  0  0  0  0
 42 24  1  0  0  0  0
M  END
$$$$
