
     RDKit          3D

 43 45  0  0  0  0  0  0  0  0999 V2000
    0.0396    0.1148   -0.1795 C   0  0  1  0  0  0  0  0  0  0  0  0
    1.5752    0.3064   -0.0943 C   0  0  2  0  0  0  0  0  0  0  0  0
    0.8445    0.2326   -1.4227 C   0  0  0  0  0  0  0  0  0  0  0  0
    2.3865   -0.8786    0.3678 C   0  0  0  0  0  0  0  0  0  0  0  0
    3.2605   -0.8454    1.1919 O   0  0  0  0  0  0  0  0  0  0  0  0
    1.9909   -2.0106   -0.2518 O   0  0  0  0  0  0  0  0  0  0  0  0
    2.5986   -3.2209    0.1970 C   0  0  0  0  0  0  0  0  0  0  0  0
    2.2640    1.9076    0.3009 S   0  0  0  0  0  0  0  0  0  0  0  0
    2.0091    2.0849    2.0530 C   0  0  0  0  0  0  0  0  0  0  0  0
    1.2918    1.1825    2.8487 C   0  0  0  0  0  0  0  0  0  0  0  0
    1.1218    1.4466    4.2101 C   0  0  0  0  0  0  0  0  0  0  0  0
    1.6582    2.5977    4.7908 C   0  0  0  0  0  0  0  0  0  0  0  0
    2.3769    3.4940    3.9937 C   0  0  0  0  0  0  0  0  0  0  0  0
    2.5542    3.2415    2.6337 C   0  0  0  0  0  0  0  0  0  0  0  0
   -0.5592   -1.2261    0.1761 C   0  0  0  0  0  0  0  0  0  0  0  0
   -1.1976   -1.9168   -0.5779 O   0  0  0  0  0  0  0  0  0  0  0  0
   -0.3547   -1.5217    1.4696 O   0  0  0  0  0  0  0  0  0  0  0  0
   -0.9460   -2.7314    1.9447 C   0  0  0  0  0  0  0  0  0  0  0  0
   -1.0537    1.4546    0.3545 S   0  0  0  0  0  0  0  0  0  0  0  0
   -1.8386    1.9034   -1.1865 C   0  0  0  0  0  0  0  0  0  0  0  0
   -2.2807    0.9484   -2.1152 C   0  0  0  0  0  0  0  0  0  0  0  0
   -2.9137    1.3703   -3.2858 C   0  0  0  0  0  0  0  0  0  0  0  0
   -3.1341    2.7306   -3.5264 C   0  0  0  0  0  0  0  0  0  0  0  0
   -2.7031    3.6768   -2.5932 C   0  0  0  0  0  0  0  0  0  0  0  0
   -2.0448    3.2685   -1.4302 C   0  0  0  0  0  0  0  0  0  0  0  0
    0.7608    1.1633   -1.9868 H   0  0  0  0  0  0  0  0  0  0  0  0
    0.9767   -0.6756   -2.0126 H   0  0  0  0  0  0  0  0  0  0  0  0
    2.1410   -4.0261   -0.3900 H   0  0  0  0  0  0  0  0  0  0  0  0
    2.4102   -3.3695    1.2709 H   0  0  0  0  0  0  0  0  0  0  0  0
    3.6857   -3.1929    0.0337 H   0  0  0  0  0  0  0  0  0  0  0  0
    0.8653    0.2745    2.4279 H   0  0  0  0  0  0  0  0  0  0  0  0
    0.5600    0.7360    4.8216 H   0  0  0  0  0  0  0  0  0  0  0  0
    1.5206    2.7948    5.8562 H   0  0  0  0  0  0  0  0  0  0  0  0
    2.8065    4.3979    4.4326 H   0  0  0  0  0  0  0  0  0  0  0  0
    3.1193    3.9445    2.0161 H   0  0  0  0  0  0  0  0  0  0  0  0
   -0.6783   -2.8044    3.0053 H   0  0  0  0  0  0  0  0  0  0  0  0
   -0.5541   -3.5955    1.3879 H   0  0  0  0  0  0  0  0  0  0  0  0
   -2.0386   -2.7007    1.8235 H   0  0  0  0  0  0  0  0  0  0  0  0
   -2.1273   -0.1150   -1.9232 H   0  0  0  0  0  0  0  0  0  0  0  0
   -3.2493    0.6250   -4.0112 H   0  0  0  0  0  0  0  0  0  0  0  0
   -3.6379    3.0517   -4.4410 H   0  0  0  0  0  0  0  0  0  0  0  0
   -2.8630    4.7421   -2.7765 H   0  0  0  0  0  0  0  0  0  0  0  0
   -1.6768    4.0061   -0.7136 H   0  0  0  0  0  0  0  0  0  0  0  0
  1  2  1  0
  1  3  1  0
  1 15  1  6
  1 19  1  0
  2  3  1  0
  2  4  1  6
  2  8  1  0
  3 26  1  0
  3 27  1  0
  4  5  2  0
  4  6  1  0
  6  7  1  0
  7 28  1  0
  7 29  1  0
  7 30  1  0
  8  9  1  0
  9 10  2  0
  9 14  1  0
 10 11  1  0
 10 31  1  0
 11 12  2  0
 11 32  1  0
 12 13  1  0
 12 33  1  0
 13 14  2  0
 13 34  1  0
 14 35  1  0
 15 16  2  0
 15 17  1  0
 17 18  1  0
 18 36  1  0
 18 37  1  0
 18 38  1  0
 19 20  1  0
 20 21  2  0
 20 25  1  0
 21 22  1  0
 21 39  1  0
 22 23  2  0
 22 40  1  0
 23 24  1  0
 23 41  1  0
 24 25  2  0
 24 42  1  0
 25 43  1  0
M  END

