rmsd215.gzmat
 OpenBabel08211713393D

 43 44  0  0  1  0  0  0  0  0999 V2000
    0.0000    0.0000    0.0000 C   0  0  1  0  0  0  0  0  0  0  0  0
    1.5280    0.0000    0.0000 C   0  0  2  0  0  0  0  0  0  0  0  0
    0.7705    0.0000    1.3015 C   0  0  0  0  0  0  0  0  0  0  0  0
    2.2794    1.2516   -0.3249 C   0  0  0  0  0  0  0  0  0  0  0  0
    3.1984    1.7257    0.2845 O   0  0  0  0  0  0  0  0  0  0  0  0
    1.7559    1.8152   -1.4412 O   0  0  0  0  0  0  0  0  0  0  0  0
    2.4058    2.9914   -1.9160 C   0  0  0  0  0  0  0  0  0  0  0  0
    2.4832   -1.4536   -0.4575 S   0  0  0  0  0  0  0  0  0  0  0  0
    2.7572   -1.3171   -2.2036 C   0  0  0  0  0  0  0  0  0  0  0  0
    3.8068   -2.0867   -2.7098 C   0  0  0  0  0  0  0  0  0  0  0  0
    4.0671   -2.0764   -4.0777 C   0  0  0  0  0  0  0  0  0  0  0  0
    3.2986   -1.2893   -4.9347 C   0  0  0  0  0  0  0  0  0  0  0  0
    2.2596   -0.5180   -4.4213 C   0  0  0  0  0  0  0  0  0  0  0  0
    1.9797   -0.5386   -3.0551 C   0  0  0  0  0  0  0  0  0  0  0  0
   -0.6927    1.2286   -0.4812 C   0  0  0  0  0  0  0  0  0  0  0  0
   -1.1332    1.4520   -1.5768 O   0  0  0  0  0  0  0  0  0  0  0  0
   -0.7773    2.1225    0.5399 O   0  0  0  0  0  0  0  0  0  0  0  0
   -1.4160    3.3580    0.2319 C   0  0  0  0  0  0  0  0  0  0  0  0
   -1.0197   -1.4644   -0.2772 S   0  0  0  0  0  0  0  0  0  0  0  0
   -0.7559   -1.9678   -1.9573 C   0  0  0  0  0  0  0  0  0  0  0  0
   -0.1093   -3.1840   -2.1792 C   0  0  0  0  0  0  0  0  0  0  0  0
    0.0477   -3.6506   -3.4830 C   0  0  0  0  0  0  0  0  0  0  0  0
   -0.4353   -2.9028   -4.5559 C   0  0  0  0  0  0  0  0  0  0  0  0
   -1.0851   -1.6915   -4.3268 C   0  0  0  0  0  0  0  0  0  0  0  0
   -1.2512   -1.2216   -3.0240 C   0  0  0  0  0  0  0  0  0  0  0  0
    0.7659   -0.8799    1.9524 H   0  0  0  0  0  0  0  0  0  0  0  0
    0.7833    0.9000    1.9268 H   0  0  0  0  0  0  0  0  0  0  0  0
    1.8071    3.2582   -2.7959 H   0  0  0  0  0  0  0  0  0  0  0  0
    3.4411    2.7611   -2.1909 H   0  0  0  0  0  0  0  0  0  0  0  0
    2.3742    3.7765   -1.1539 H   0  0  0  0  0  0  0  0  0  0  0  0
    4.4309   -2.6964   -2.0548 H   0  0  0  0  0  0  0  0  0  0  0  0
    4.8768   -2.6829   -4.4780 H   0  0  0  0  0  0  0  0  0  0  0  0
    3.5091   -1.2798   -6.0017 H   0  0  0  0  0  0  0  0  0  0  0  0
    1.6536    0.0982   -5.0836 H   0  0  0  0  0  0  0  0  0  0  0  0
    1.1379    0.0548   -2.6854 H   0  0  0  0  0  0  0  0  0  0  0  0
   -1.2447    3.9548    1.1354 H   0  0  0  0  0  0  0  0  0  0  0  0
   -2.4837    3.1856    0.0601 H   0  0  0  0  0  0  0  0  0  0  0  0
   -0.9568    3.8234   -0.6472 H   0  0  0  0  0  0  0  0  0  0  0  0
    0.2793   -3.7780   -1.3493 H   0  0  0  0  0  0  0  0  0  0  0  0
    0.5568   -4.5948   -3.6628 H   0  0  0  0  0  0  0  0  0  0  0  0
   -0.3019   -3.2657   -5.5737 H   0  0  0  0  0  0  0  0  0  0  0  0
   -1.4647   -1.1081   -5.1635 H   0  0  0  0  0  0  0  0  0  0  0  0
   -1.7657   -0.2689   -2.8605 H   0  0  0  0  0  0  0  0  0  0  0  0
  1  2  1  0  0  0  0
  1  3  1  0  0  0  0
  1 15  1  6  0  0  0
  2  8  1  6  0  0  0
  2  3  1  0  0  0  0
  3 27  1  0  0  0  0
  3 26  1  0  0  0  0
  4  2  1  0  0  0  0
  4  5  2  0  0  0  0
  6  4  1  0  0  0  0
  7  6  1  0  0  0  0
  7 30  1  0  0  0  0
 10  9  1  0  0  0  0
 10 31  1  0  0  0  0
 11 10  2  0  0  0  0
 12 13  2  0  0  0  0
 12 11  1  0  0  0  0
 13 14  1  0  0  0  0
 14 35  1  0  0  0  0
 14  9  2  0  0  0  0
 15 17  1  0  0  0  0
 16 15  2  0  0  0  0
 18 17  1  0  0  0  0
 18 36  1  0  0  0  0
 19  1  1  0  0  0  0
 20 19  1  0  0  0  0
 21 20  1  0  0  0  0
 21 39  1  0  0  0  0
 22 21  2  0  0  0  0
 23 24  2  0  0  0  0
 23 22  1  0  0  0  0
 24 25  1  0  0  0  0
 25 43  1  0  0  0  0
 25 20  2  0  0  0  0
 28  7  1  0  0  0  0
 29  7  1  0  0  0  0
 32 11  1  0  0  0  0
 33 12  1  0  0  0  0
 34 13  1  0  0  0  0
 37 18  1  0  0  0  0
 38 18  1  0  0  0  0
 40 22  1  0  0  0  0
 41 23  1  0  0  0  0
 42 24  1  0  0  0  0
M  RAD  2   8   2   9   2
M  END
$$$$
