43
rmsd234.gzmat
C          0.00000        0.00000        0.00000
C          1.52480        0.00000        0.00000
C          0.75420        0.00000       -1.30060
C          2.23600       -1.23730        0.43990
O          2.69160       -1.49450        1.52040
O          2.31870       -2.09550       -0.61290
C          2.97890       -3.33120       -0.35720
S          2.50510        1.46560        0.37800
C          1.97640        1.98710        1.99020
C          1.59480        1.09650        2.98980
C          1.22060        1.58640        4.24030
C          1.23860        2.95700        4.49040
C          1.62890        3.84250        3.48650
C          1.99400        3.36190        2.23070
C         -0.75110       -1.23210        0.38050
O         -1.62140       -1.76920       -0.25160
O         -0.30400       -1.67790        1.57810
C         -0.95500       -2.83470        2.09710
S         -0.94630        1.42470        0.58950
C         -1.54950        2.10290       -0.93860
C         -2.31940        1.33170       -1.80710
C         -2.80420        1.90310       -2.98190
C         -2.52440        3.23660       -3.27770
C         -1.75800        4.00170       -2.40020
C         -1.26230        3.43510       -1.22680
H          0.75130        0.88150       -1.94940
H          0.74920       -0.89820       -1.92910
H          2.91430       -3.84630       -1.32280
H          2.45560       -3.88620        0.42830
H          4.02010       -3.14870       -0.06950
H          1.58460        0.01540        2.81920
H          0.91520        0.89210        5.02090
H          0.94680        3.33650        5.46710
H          1.64270        4.91230        3.68150
H          2.28220        4.07040        1.45400
H         -0.47860       -2.95720        3.07800
H         -0.76210       -3.69570        1.44970
H         -2.03170       -2.65700        2.19090
H         -2.54710        0.28440       -1.58290
H         -3.40400        1.30640       -3.66710
H         -2.90570        3.68100       -4.19560
H         -1.54200        5.04230       -2.63230
H         -0.65340        4.04120       -0.55350
