43
rmsd175.gzmat
C          0.00000        0.00000        0.00000
C          1.52480        0.00000        0.00000
C          0.75450        0.00000       -1.30050
C          2.24230       -1.23380        0.44030
O          2.67200       -1.49840        1.52960
O          2.37090       -2.07390       -0.62210
C          3.05490       -3.29640       -0.36430
S          2.50040        1.46770        0.37770
C          2.09260        1.91140        2.04630
C          1.57200        1.01950        2.97940
C          1.29990        1.45930        4.27440
C          1.55830        2.77950        4.63570
C          2.08820        3.66510        3.69810
C          2.35200        3.23710        2.39910
C         -0.75260       -1.22820        0.38730
O         -1.67230       -1.73030       -0.20250
O         -0.23770       -1.72060        1.53840
C         -0.89480       -2.86230        2.08250
S         -0.93430        1.43290        0.59090
C         -1.67530        2.01560       -0.91580
C         -2.50380        1.18780       -1.67070
C         -3.09900        1.68680       -2.82760
C         -2.87450        3.00710       -3.21570
C         -2.04800        3.82960       -2.45170
C         -1.43820        3.33360       -1.30020
H          0.74930        0.88150       -1.94910
H          0.75240       -0.89800       -1.92920
H          3.01870       -3.80580       -1.33390
H          2.53360       -3.86830        0.41000
H          4.08660       -3.09180       -0.05840
H          1.37700       -0.02720        2.72700
H          0.88630        0.76360        5.00240
H          1.34660        3.12000        5.64650
H          2.29250        4.69560        3.97960
H          2.75380        3.94930        1.67850
H         -0.25770       -3.11970        2.93810
H         -0.92890       -3.67390        1.34890
H         -1.90560       -2.58850        2.40250
H         -2.69190        0.15060       -1.37180
H         -3.74060        1.04320       -3.42710
H         -3.34540        3.39640       -4.11690
H         -1.87350        4.85980       -2.75460
H         -0.78120        3.98320       -0.71860
