16
rmsd240.gzmat
C          0.00000        0.00000        0.00000
O          1.21260        0.00000        0.00000
C         -0.83330        0.00000       -1.27680
O         -2.04120       -0.72710       -1.06400
P         -2.23700       -2.28450       -1.36530
O         -3.59240       -2.62560       -0.98550
O         -1.86530       -2.49310       -2.89350
O         -0.99980       -3.00730       -0.65310
N         -0.71370        0.22280        1.18030
O         -0.02360       -0.06820        2.36240
H         -0.20960       -0.30830       -2.14000
H         -1.22710        1.02410       -1.48670
H         -0.90600       -2.86730       -2.95740
H         -1.29220       -3.44830        0.21540
H         -1.65180       -0.12410        1.32630
H          0.88620        0.35400        2.24470
