
     RDKit          3D

 16 15  0  0  0  0  0  0  0  0999 V2000
   -0.0196    0.0946    0.0069 C   0  0  0  0  0  0  0  0  0  0  0  0
    1.1602    0.4354   -0.0003 O   0  0  0  0  0  0  0  0  0  0  0  0
   -0.8645    0.0202   -1.2604 C   0  0  0  0  0  0  0  0  0  0  0  0
   -1.6913    1.1886   -1.2918 O   0  0  0  0  0  0  0  0  0  0  0  0
   -1.0709    2.6190   -1.8165 P   0  0  0  0  0  0  0  0  0  0  0  0
   -2.0874    3.6806   -1.7972 O   0  0  0  0  0  0  0  0  0  0  0  0
    0.2372    2.8700   -0.9432 O   0  0  0  0  0  0  0  0  0  0  0  0
   -0.4632    2.2295   -3.2713 O   0  0  0  0  0  0  0  0  0  0  0  0
   -0.7087   -0.1007    1.1510 N   0  0  0  0  0  0  0  0  0  0  0  0
   -2.0592   -0.3680    1.1524 O   0  0  0  0  0  0  0  0  0  0  0  0
   -1.5329   -0.8498   -1.2546 H   0  0  0  0  0  0  0  0  0  0  0  0
   -0.1931   -0.0220   -2.1298 H   0  0  0  0  0  0  0  0  0  0  0  0
    0.8295    2.1034   -0.7661 H   0  0  0  0  0  0  0  0  0  0  0  0
   -1.0764    2.4872   -3.9760 H   0  0  0  0  0  0  0  0  0  0  0  0
   -0.2747    0.0522    2.0591 H   0  0  0  0  0  0  0  0  0  0  0  0
   -2.4873    0.4494    0.8358 H   0  0  0  0  0  0  0  0  0  0  0  0
  1  2  2  0
  1  3  1  0
  1  9  1  0
  3  4  1  0
  3 11  1  0
  3 12  1  0
  5  4  1  0
  5  6  2  0
  5  7  1  0
  5  8  1  0
  7 13  1  0
  8 14  1  0
  9 10  1  0
  9 15  1  0
 10 16  1  0
M  END

