rmsd150.gzmat
 OpenBabel08211713423D

 16 15  0  0  0  0  0  0  0  0999 V2000
    0.0000    0.0000    0.0000 C   0  0  0  0  0  0  0  0  0  0  0  0
    1.2145    0.0000    0.0000 O   0  0  0  0  0  0  0  0  0  0  0  0
   -0.8345    0.0000   -1.2772 C   0  0  0  0  0  0  0  0  0  0  0  0
   -1.5386    1.2298   -1.4268 O   0  0  0  0  0  0  0  0  0  0  0  0
   -0.8516    2.6011   -1.9042 P   0  0  0  0  0  0  0  0  0  0  0  0
   -1.8990    3.5962   -2.0259 O   0  0  0  0  0  0  0  0  0  0  0  0
    0.2881    2.9604   -0.8691 O   0  0  0  0  0  0  0  0  0  0  0  0
    0.0014    2.1736   -3.1887 O   0  0  0  0  0  0  0  0  0  0  0  0
   -0.6583    0.1278    1.2196 N   0  0  0  0  0  0  0  0  0  0  0  0
   -2.0116   -0.2142    1.2137 O   0  0  0  0  0  0  0  0  0  0  0  0
   -1.6845   -0.7200   -1.2112 H   0  0  0  0  0  0  0  0  0  0  0  0
   -0.2029   -0.2885   -2.1450 H   0  0  0  0  0  0  0  0  0  0  0  0
    1.0560    2.2686   -0.9488 H   0  0  0  0  0  0  0  0  0  0  0  0
   -0.4741    2.4872   -4.0333 H   0  0  0  0  0  0  0  0  0  0  0  0
   -0.2662   -0.1777    2.0939 H   0  0  0  0  0  0  0  0  0  0  0  0
   -2.4657    0.6205    0.8633 H   0  0  0  0  0  0  0  0  0  0  0  0
  1  2  2  0  0  0  0
  1  9  1  0  0  0  0
  3 11  1  0  0  0  0
  3  1  1  0  0  0  0
  4  3  1  0  0  0  0
  5  4  1  0  0  0  0
  5  7  1  0  0  0  0
  6  5  2  0  0  0  0
  8  5  1  0  0  0  0
  9 15  1  0  0  0  0
 10  9  1  0  0  0  0
 12  3  1  0  0  0  0
 13  7  1  0  0  0  0
 14  8  1  0  0  0  0
 16 10  1  0  0  0  0
M  END
$$$$
