rmsd141.gzmat
 OpenBabel08211713423D

 16 15  0  0  0  0  0  0  0  0999 V2000
    0.0000    0.0000    0.0000 C   0  0  0  0  0  0  0  0  0  0  0  0
    1.2140    0.0000    0.0000 O   0  0  0  0  0  0  0  0  0  0  0  0
   -0.8328    0.0000   -1.2785 C   0  0  0  0  0  0  0  0  0  0  0  0
   -1.6656    1.1562   -1.3365 O   0  0  0  0  0  0  0  0  0  0  0  0
   -1.1427    2.5995   -1.8091 P   0  0  0  0  0  0  0  0  0  0  0  0
   -2.2740    3.5057   -1.8107 O   0  0  0  0  0  0  0  0  0  0  0  0
    0.0420    3.0225   -0.8506 O   0  0  0  0  0  0  0  0  0  0  0  0
   -0.3629    2.2837   -3.1697 O   0  0  0  0  0  0  0  0  0  0  0  0
   -0.6655    0.1282    1.2154 N   0  0  0  0  0  0  0  0  0  0  0  0
   -2.0132   -0.2353    1.2016 O   0  0  0  0  0  0  0  0  0  0  0  0
   -1.5993   -0.8105   -1.2611 H   0  0  0  0  0  0  0  0  0  0  0  0
   -0.1775   -0.1618   -2.1613 H   0  0  0  0  0  0  0  0  0  0  0  0
    0.8502    2.3937   -1.0031 H   0  0  0  0  0  0  0  0  0  0  0  0
   -0.9208    2.5966   -3.9627 H   0  0  0  0  0  0  0  0  0  0  0  0
   -0.2755   -0.1730    2.0919 H   0  0  0  0  0  0  0  0  0  0  0  0
   -2.4789    0.5842    0.8325 H   0  0  0  0  0  0  0  0  0  0  0  0
  1  2  2  0  0  0  0
  1  9  1  0  0  0  0
  3 11  1  0  0  0  0
  3  1  1  0  0  0  0
  4  3  1  0  0  0  0
  5  4  1  0  0  0  0
  5  7  1  0  0  0  0
  6  5  2  0  0  0  0
  8  5  1  0  0  0  0
  9 15  1  0  0  0  0
 10  9  1  0  0  0  0
 12  3  1  0  0  0  0
 13  7  1  0  0  0  0
 14  8  1  0  0  0  0
 16 10  1  0  0  0  0
M  END
$$$$
