16
rmsd141.gzmat
C          0.00000        0.00000        0.00000
O          1.21400        0.00000        0.00000
C         -0.83280        0.00000       -1.27850
O         -1.66560        1.15620       -1.33650
P         -1.14270        2.59950       -1.80910
O         -2.27400        3.50570       -1.81070
O          0.04200        3.02250       -0.85060
O         -0.36290        2.28370       -3.16970
N         -0.66550        0.12820        1.21540
O         -2.01320       -0.23530        1.20160
H         -1.59930       -0.81050       -1.26110
H         -0.17750       -0.16180       -2.16130
H          0.85020        2.39370       -1.00310
H         -0.92080        2.59660       -3.96270
H         -0.27550       -0.17300        2.09190
H         -2.47890        0.58420        0.83250
