
     RDKit          3D

 16 15  0  0  0  0  0  0  0  0999 V2000
    0.0147   -0.1478    0.0077 C   0  0  0  0  0  0  0  0  0  0  0  0
    1.2251   -0.3512   -0.0207 O   0  0  0  0  0  0  0  0  0  0  0  0
   -0.8145   -0.1206   -1.2641 C   0  0  0  0  0  0  0  0  0  0  0  0
   -2.2237   -0.0125   -1.0342 O   0  0  0  0  0  0  0  0  0  0  0  0
   -2.9684    1.4194   -1.0236 P   0  0  0  0  0  0  0  0  0  0  0  0
   -2.3691    2.5279   -1.7855 O   0  0  0  0  0  0  0  0  0  0  0  0
   -4.4552    1.0168   -1.4604 O   0  0  0  0  0  0  0  0  0  0  0  0
   -3.0549    1.6705    0.5922 O   0  0  0  0  0  0  0  0  0  0  0  0
   -0.6364    0.0328    1.1735 N   0  0  0  0  0  0  0  0  0  0  0  0
    0.1447    0.1306    2.3102 O   0  0  0  0  0  0  0  0  0  0  0  0
   -0.6409   -1.0614   -1.8044 H   0  0  0  0  0  0  0  0  0  0  0  0
   -0.4614    0.7123   -1.8927 H   0  0  0  0  0  0  0  0  0  0  0  0
   -4.7755    0.1955   -1.0576 H   0  0  0  0  0  0  0  0  0  0  0  0
   -3.0792    2.6182    0.7980 H   0  0  0  0  0  0  0  0  0  0  0  0
   -1.5593    0.4493    1.2717 H   0  0  0  0  0  0  0  0  0  0  0  0
    1.0389   -0.0424    1.9395 H   0  0  0  0  0  0  0  0  0  0  0  0
  1  2  2  0
  1  3  1  0
  1  9  1  0
  3  4  1  0
  3 11  1  0
  3 12  1  0
  5  4  1  0
  5  6  2  0
  5  7  1  0
  5  8  1  0
  7 13  1  0
  8 14  1  0
  9 10  1  0
  9 15  1  0
 10 16  1  0
M  END

