16

C         -0.01960        0.09460        0.00690
O          1.16020        0.43540       -0.00030
C         -0.86450        0.02020       -1.26040
O         -1.69130        1.18860       -1.29180
P         -1.07090        2.61900       -1.81650
O         -2.08740        3.68060       -1.79720
O          0.23720        2.87000       -0.94320
O         -0.46320        2.22950       -3.27130
N         -0.70870       -0.10070        1.15100
O         -2.05920       -0.36800        1.15240
H         -1.53290       -0.84980       -1.25460
H         -0.19310       -0.02200       -2.12980
H          0.82950        2.10340       -0.76610
H         -1.07640        2.48720       -3.97600
H         -0.27470        0.05220        2.05910
H         -2.48730        0.44940        0.83580
