16
rmsd150.gzmat
C          0.00000        0.00000        0.00000
O          1.21450        0.00000        0.00000
C         -0.83450        0.00000       -1.27720
O         -1.53860        1.22980       -1.42680
P         -0.85160        2.60110       -1.90420
O         -1.89900        3.59620       -2.02590
O          0.28810        2.96040       -0.86910
O          0.00140        2.17360       -3.18870
N         -0.65830        0.12780        1.21960
O         -2.01160       -0.21420        1.21370
H         -1.68450       -0.72000       -1.21120
H         -0.20290       -0.28850       -2.14500
H          1.05600        2.26860       -0.94880
H         -0.47410        2.48720       -4.03330
H         -0.26620       -0.17770        2.09390
H         -2.46570        0.62050        0.86330
