rmsd210.gzmat
 OpenBabel08211713423D

 16 15  0  0  0  0  0  0  0  0999 V2000
    0.0000    0.0000    0.0000 C   0  0  0  0  0  0  0  0  0  0  0  0
    1.2162    0.0000    0.0000 O   0  0  0  0  0  0  0  0  0  0  0  0
   -0.7748    0.0000   -1.3111 C   0  0  0  0  0  0  0  0  0  0  0  0
   -2.1875    0.0625   -1.1249 O   0  0  0  0  0  0  0  0  0  0  0  0
   -2.9851    1.4620   -1.1404 P   0  0  0  0  0  0  0  0  0  0  0  0
   -2.6380    2.5029   -2.0834 O   0  0  0  0  0  0  0  0  0  0  0  0
   -4.4505    0.8829   -1.3043 O   0  0  0  0  0  0  0  0  0  0  0  0
   -2.8860    1.7992    0.4250 O   0  0  0  0  0  0  0  0  0  0  0  0
   -0.7044   -0.2217    1.1844 N   0  0  0  0  0  0  0  0  0  0  0  0
    0.0175    0.0412    2.3552 O   0  0  0  0  0  0  0  0  0  0  0  0
   -0.6799   -1.0045   -1.7966 H   0  0  0  0  0  0  0  0  0  0  0  0
   -0.3298    0.7516   -2.0023 H   0  0  0  0  0  0  0  0  0  0  0  0
   -4.6039    0.1615   -0.5797 H   0  0  0  0  0  0  0  0  0  0  0  0
   -2.9103    2.8051    0.5709 H   0  0  0  0  0  0  0  0  0  0  0  0
   -1.6181    0.1835    1.3455 H   0  0  0  0  0  0  0  0  0  0  0  0
    0.9194   -0.3888    2.2113 H   0  0  0  0  0  0  0  0  0  0  0  0
  1  2  2  0  0  0  0
  1  9  1  0  0  0  0
  3  4  1  0  0  0  0
  3  1  1  0  0  0  0
  5  4  1  0  0  0  0
  5  8  1  0  0  0  0
  6  5  2  0  0  0  0
  7  5  1  0  0  0  0
  7 13  1  0  0  0  0
  8 14  1  0  0  0  0
  9 15  1  0  0  0  0
  9 10  1  0  0  0  0
 11  3  1  0  0  0  0
 12  3  1  0  0  0  0
 16 10  1  0  0  0  0
M  END
$$$$
