16
rmsd215.gzmat
C          0.00000        0.00000        0.00000
O          1.21260        0.00000        0.00000
C         -0.83500        0.00000       -1.27370
O         -1.98570        0.83360       -1.13520
P         -1.95260        2.42870       -1.30690
O         -3.29610        2.92180       -1.52710
O         -1.28490        3.00480        0.01140
O         -0.81610        2.63200       -2.41220
N         -0.71160       -0.17990        1.18830
O         -0.00430        0.13610        2.35300
H         -1.31660       -0.99470       -1.43130
H         -0.19230        0.21310       -2.15570
H         -0.31770        2.67460        0.09350
H         -1.10600        3.35990       -3.06520
H         -1.64240        0.19280        1.32960
H          0.86250       -0.37460        2.27750
