rmsd113.gzmat
 OpenBabel08211713433D

 64 68  0  0  0  0  0  0  0  0999 V2000
    0.0000    0.0000    0.0000 S   0  0  0  0  0  0  0  0  0  0  0  0
    1.4610    0.0000    0.0000 O   0  0  0  0  0  0  0  0  0  0  0  0
   -0.7468    0.0000   -1.2303 O   0  0  0  0  0  0  0  0  0  0  0  0
   -0.4490    1.4332    0.8544 N   0  0  0  0  0  0  0  0  0  0  0  0
   -0.5546   -1.3197    1.0046 C   0  0  0  0  0  0  0  0  0  0  0  0
   -1.8251   -1.8574    0.7962 C   0  0  0  0  0  0  0  0  0  0  0  0
   -2.2642   -2.9288    1.5695 C   0  0  0  0  0  0  0  0  0  0  0  0
   -1.4364   -3.4668    2.5580 C   0  0  0  0  0  0  0  0  0  0  0  0
   -0.1714   -2.9155    2.7757 C   0  0  0  0  0  0  0  0  0  0  0  0
    0.2693   -1.8496    1.9957 C   0  0  0  0  0  0  0  0  0  0  0  0
   -1.9077   -4.6210    3.3854 C   0  0  0  0  0  0  0  0  0  0  0  0
   -2.9401   -4.1630    4.4337 C   0  0  0  0  0  0  0  0  0  0  0  0
   -2.3400   -3.1725    5.3396 N   0  0  0  0  0  0  0  0  0  0  0  0
   -2.0057   -3.4592    6.6261 C   0  0  0  0  0  0  0  0  0  0  0  0
   -2.3594   -4.9118    7.4164 S   0  0  0  0  0  0  0  0  0  0  0  0
   -1.3402   -2.5005    7.3783 N   0  0  0  0  0  0  0  0  0  0  0  0
   -0.8589   -1.2488    6.9311 C   0  0  0  0  0  0  0  0  0  0  0  0
    0.4119   -0.8283    7.3684 C   0  0  0  0  0  0  0  0  0  0  0  0
    0.9357    0.3718    6.9125 C   0  0  0  0  0  0  0  0  0  0  0  0
    0.2227    1.1563    5.9972 C   0  0  0  0  0  0  0  0  0  0  0  0
   -1.0482    0.7493    5.5920 C   0  0  0  0  0  0  0  0  0  0  0  0
   -1.6135   -0.4225    6.0949 C   0  0  0  0  0  0  0  0  0  0  0  0
   -1.8594    1.4733    4.5878 C   0  0  0  0  0  0  0  0  0  0  0  0
   -2.6833    0.9825    3.8586 O   0  0  0  0  0  0  0  0  0  0  0  0
   -1.5925    2.7970    4.5728 O   0  0  0  0  0  0  0  0  0  0  0  0
    0.8385    2.3643    5.4291 C   0  0  0  0  0  0  0  0  0  0  0  0
    1.6245    2.2006    4.2354 C   0  0  0  0  0  0  0  0  0  0  0  0
    1.9704    0.9470    3.6935 C   0  0  0  0  0  0  0  0  0  0  0  0
    2.5632    0.8627    2.4550 C   0  0  0  0  0  0  0  0  0  0  0  0
    2.8042    2.0473    1.7186 C   0  0  0  0  0  0  0  0  0  0  0  0
    2.5995    3.3105    2.2719 C   0  0  0  0  0  0  0  0  0  0  0  0
    2.0226    3.3556    3.5423 C   0  0  0  0  0  0  0  0  0  0  0  0
    1.8228    4.6100    4.0252 O   0  0  0  0  0  0  0  0  0  0  0  0
    1.1774    4.7629    5.2320 C   0  0  0  0  0  0  0  0  0  0  0  0
    1.0536    6.0377    5.6530 C   0  0  0  0  0  0  0  0  0  0  0  0
    0.3286    6.3174    6.8953 C   0  0  0  0  0  0  0  0  0  0  0  0
    0.1986    7.4407    7.3294 O   0  0  0  0  0  0  0  0  0  0  0  0
   -0.2584    5.1521    7.6002 C   0  0  0  0  0  0  0  0  0  0  0  0
   -0.1104    3.8976    7.1459 C   0  0  0  0  0  0  0  0  0  0  0  0
    0.6432    3.6098    5.9362 C   0  0  0  0  0  0  0  0  0  0  0  0
    3.2040    1.9941    0.4402 O   0  0  0  0  0  0  0  0  0  0  0  0
   -1.2287    1.9597    0.4962 H   0  0  0  0  0  0  0  0  0  0  0  0
    0.2914    2.0478    1.1556 H   0  0  0  0  0  0  0  0  0  0  0  0
   -2.4877   -1.4564    0.0190 H   0  0  0  0  0  0  0  0  0  0  0  0
   -3.2534   -3.3491    1.3979 H   0  0  0  0  0  0  0  0  0  0  0  0
    0.4790   -3.3275    3.5448 H   0  0  0  0  0  0  0  0  0  0  0  0
    1.2753   -1.4493    2.1661 H   0  0  0  0  0  0  0  0  0  0  0  0
   -1.0609   -5.1312    3.8933 H   0  0  0  0  0  0  0  0  0  0  0  0
   -2.3601   -5.4066    2.7428 H   0  0  0  0  0  0  0  0  0  0  0  0
   -3.3405   -5.0458    4.9915 H   0  0  0  0  0  0  0  0  0  0  0  0
   -3.8162   -3.6787    3.9387 H   0  0  0  0  0  0  0  0  0  0  0  0
   -2.0070   -2.3348    4.8666 H   0  0  0  0  0  0  0  0  0  0  0  0
   -1.0940   -2.7649    8.3414 H   0  0  0  0  0  0  0  0  0  0  0  0
    0.9868   -1.4505    8.0556 H   0  0  0  0  0  0  0  0  0  0  0  0
    1.9191    0.7057    7.2535 H   0  0  0  0  0  0  0  0  0  0  0  0
   -2.6482   -0.6716    5.8365 H   0  0  0  0  0  0  0  0  0  0  0  0
   -2.1347    3.2976    3.9064 H   0  0  0  0  0  0  0  0  0  0  0  0
    1.7490    0.0427    4.2630 H   0  0  0  0  0  0  0  0  0  0  0  0
    2.8395   -0.0940    2.0125 H   0  0  0  0  0  0  0  0  0  0  0  0
    2.8595    4.2159    1.7303 H   0  0  0  0  0  0  0  0  0  0  0  0
    1.4557    6.8892    5.1121 H   0  0  0  0  0  0  0  0  0  0  0  0
   -0.8151    5.3916    8.5044 H   0  0  0  0  0  0  0  0  0  0  0  0
   -0.5496    3.0434    7.6655 H   0  0  0  0  0  0  0  0  0  0  0  0
    2.8847    1.1259    0.0100 H   0  0  0  0  0  0  0  0  0  0  0  0
  1  4  1  0  0  0  0
  1  5  1  0  0  0  0
  2  1  2  0  0  0  0
  3  1  2  0  0  0  0
  4 43  1  0  0  0  0
  5 10  1  0  0  0  0
  6  5  2  0  0  0  0
  6  7  1  0  0  0  0
  7  8  2  0  0  0  0
  8  9  1  0  0  0  0
  8 11  1  0  0  0  0
  9 46  1  0  0  0  0
 10 47  1  0  0  0  0
 10  9  2  0  0  0  0
 11 48  1  0  0  0  0
 11 12  1  0  0  0  0
 12 50  1  0  0  0  0
 12 13  1  0  0  0  0
 13 14  1  0  0  0  0
 14 16  1  0  0  0  0
 14 15  2  0  0  0  0
 16 53  1  0  0  0  0
 17 18  1  0  0  0  0
 17 16  1  0  0  0  0
 18 54  1  0  0  0  0
 19 55  1  0  0  0  0
 19 18  2  0  0  0  0
 20 19  1  0  0  0  0
 21 20  2  0  0  0  0
 21 22  1  0  0  0  0
 22 17  2  0  0  0  0
 23 21  1  0  0  0  0
 24 23  2  0  0  0  0
 25 23  1  0  0  0  0
 26 40  2  0  0  0  0
 26 20  1  0  0  0  0
 27 26  1  0  0  0  0
 28 27  1  0  0  0  0
 28 58  1  0  0  0  0
 29 28  2  0  0  0  0
 30 31  2  0  0  0  0
 30 29  1  0  0  0  0
 31 32  1  0  0  0  0
 32 33  1  0  0  0  0
 32 27  2  0  0  0  0
 33 34  1  0  0  0  0
 34 35  2  0  0  0  0
 34 40  1  0  0  0  0
 35 36  1  0  0  0  0
 36 37  2  0  0  0  0
 36 38  1  0  0  0  0
 38 62  1  0  0  0  0
 39 38  2  0  0  0  0
 39 63  1  0  0  0  0
 40 39  1  0  0  0  0
 41 30  1  0  0  0  0
 42  4  1  0  0  0  0
 44  6  1  0  0  0  0
 45  7  1  0  0  0  0
 49 11  1  0  0  0  0
 51 12  1  0  0  0  0
 52 13  1  0  0  0  0
 56 22  1  0  0  0  0
 57 25  1  0  0  0  0
 59 29  1  0  0  0  0
 60 31  1  0  0  0  0
 61 35  1  0  0  0  0
 64 41  1  0  0  0  0
M  END
$$$$
