64
rmsd113.gzmat
S          0.00000        0.00000        0.00000
O          1.46100        0.00000        0.00000
O         -0.74680        0.00000       -1.23030
N         -0.44900        1.43320        0.85440
C         -0.55460       -1.31970        1.00460
C         -1.82510       -1.85740        0.79620
C         -2.26420       -2.92880        1.56950
C         -1.43640       -3.46680        2.55800
C         -0.17140       -2.91550        2.77570
C          0.26930       -1.84960        1.99570
C         -1.90770       -4.62100        3.38540
C         -2.94010       -4.16300        4.43370
N         -2.34000       -3.17250        5.33960
C         -2.00570       -3.45920        6.62610
S         -2.35940       -4.91180        7.41640
N         -1.34020       -2.50050        7.37830
C         -0.85890       -1.24880        6.93110
C          0.41190       -0.82830        7.36840
C          0.93570        0.37180        6.91250
C          0.22270        1.15630        5.99720
C         -1.04820        0.74930        5.59200
C         -1.61350       -0.42250        6.09490
C         -1.85940        1.47330        4.58780
O         -2.68330        0.98250        3.85860
O         -1.59250        2.79700        4.57280
C          0.83850        2.36430        5.42910
C          1.62450        2.20060        4.23540
C          1.97040        0.94700        3.69350
C          2.56320        0.86270        2.45500
C          2.80420        2.04730        1.71860
C          2.59950        3.31050        2.27190
C          2.02260        3.35560        3.54230
O          1.82280        4.61000        4.02520
C          1.17740        4.76290        5.23200
C          1.05360        6.03770        5.65300
C          0.32860        6.31740        6.89530
O          0.19860        7.44070        7.32940
C         -0.25840        5.15210        7.60020
C         -0.11040        3.89760        7.14590
C          0.64320        3.60980        5.93620
O          3.20400        1.99410        0.44020
H         -1.22870        1.95970        0.49620
H          0.29140        2.04780        1.15560
H         -2.48770       -1.45640        0.01900
H         -3.25340       -3.34910        1.39790
H          0.47900       -3.32750        3.54480
H          1.27530       -1.44930        2.16610
H         -1.06090       -5.13120        3.89330
H         -2.36010       -5.40660        2.74280
H         -3.34050       -5.04580        4.99150
H         -3.81620       -3.67870        3.93870
H         -2.00700       -2.33480        4.86660
H         -1.09400       -2.76490        8.34140
H          0.98680       -1.45050        8.05560
H          1.91910        0.70570        7.25350
H         -2.64820       -0.67160        5.83650
H         -2.13470        3.29760        3.90640
H          1.74900        0.04270        4.26300
H          2.83950       -0.09400        2.01250
H          2.85950        4.21590        1.73030
H          1.45570        6.88920        5.11210
H         -0.81510        5.39160        8.50440
H         -0.54960        3.04340        7.66550
H          2.88470        1.12590        0.01000
