rmsd245.gzmat
 OpenBabel08211713433D

 64 68  0  0  0  0  0  0  0  0999 V2000
    0.0000    0.0000    0.0000 S   0  0  0  0  0  0  0  0  0  0  0  0
    1.4501    0.0000    0.0000 O   0  0  0  0  0  0  0  0  0  0  0  0
   -0.7557    0.0000   -1.2260 O   0  0  0  0  0  0  0  0  0  0  0  0
   -0.4741    1.4321    0.8547 N   0  0  0  0  0  0  0  0  0  0  0  0
   -0.5674   -1.2937    1.0390 C   0  0  0  0  0  0  0  0  0  0  0  0
    0.3299   -2.0449    1.7949 C   0  0  0  0  0  0  0  0  0  0  0  0
   -0.1396   -3.0589    2.6278 C   0  0  0  0  0  0  0  0  0  0  0  0
   -1.5098   -3.3209    2.7106 C   0  0  0  0  0  0  0  0  0  0  0  0
   -2.4053   -2.5747    1.9406 C   0  0  0  0  0  0  0  0  0  0  0  0
   -1.9339   -1.5675    1.1033 C   0  0  0  0  0  0  0  0  0  0  0  0
   -2.0299   -4.3683    3.6464 C   0  0  0  0  0  0  0  0  0  0  0  0
   -2.6869   -3.7206    4.8823 C   0  0  0  0  0  0  0  0  0  0  0  0
   -1.6769   -2.9054    5.5789 N   0  0  0  0  0  0  0  0  0  0  0  0
   -1.9198   -2.3345    6.7936 C   0  0  0  0  0  0  0  0  0  0  0  0
   -3.3628   -2.4751    7.6439 S   0  0  0  0  0  0  0  0  0  0  0  0
   -0.8957   -1.5726    7.3401 N   0  0  0  0  0  0  0  0  0  0  0  0
    0.4489   -1.5693    6.8927 C   0  0  0  0  0  0  0  0  0  0  0  0
    1.0938   -2.7532    6.5004 C   0  0  0  0  0  0  0  0  0  0  0  0
    2.4029   -2.7055    6.0464 C   0  0  0  0  0  0  0  0  0  0  0  0
    3.0961   -1.4894    5.9967 C   0  0  0  0  0  0  0  0  0  0  0  0
    2.4665   -0.3214    6.4294 C   0  0  0  0  0  0  0  0  0  0  0  0
    1.1452   -0.3542    6.8780 C   0  0  0  0  0  0  0  0  0  0  0  0
    3.1368    0.9969    6.4442 C   0  0  0  0  0  0  0  0  0  0  0  0
    2.6929    2.0284    6.8790 O   0  0  0  0  0  0  0  0  0  0  0  0
    4.3643    0.9437    5.8784 O   0  0  0  0  0  0  0  0  0  0  0  0
    4.4652   -1.5312    5.4591 C   0  0  0  0  0  0  0  0  0  0  0  0
    4.6583   -1.2218    4.0678 C   0  0  0  0  0  0  0  0  0  0  0  0
    3.6462   -0.6935    3.2437 C   0  0  0  0  0  0  0  0  0  0  0  0
    3.8916   -0.4288    1.9153 C   0  0  0  0  0  0  0  0  0  0  0  0
    5.1689   -0.7010    1.3841 C   0  0  0  0  0  0  0  0  0  0  0  0
    6.2144   -1.1900    2.1635 C   0  0  0  0  0  0  0  0  0  0  0  0
    5.9312   -1.4323    3.5100 C   0  0  0  0  0  0  0  0  0  0  0  0
    6.9853   -1.9050    4.2287 O   0  0  0  0  0  0  0  0  0  0  0  0
    6.8141   -2.1541    5.5720 C   0  0  0  0  0  0  0  0  0  0  0  0
    7.9018   -2.6371    6.2069 C   0  0  0  0  0  0  0  0  0  0  0  0
    7.8226   -2.9499    7.6358 C   0  0  0  0  0  0  0  0  0  0  0  0
    8.7530   -3.4260    8.2485 O   0  0  0  0  0  0  0  0  0  0  0  0
    6.5330   -2.6608    8.3097 C   0  0  0  0  0  0  0  0  0  0  0  0
    5.4674   -2.2037    7.6337 C   0  0  0  0  0  0  0  0  0  0  0  0
    5.5256   -1.9413    6.2055 C   0  0  0  0  0  0  0  0  0  0  0  0
    5.4329   -0.4938    0.0782 O   0  0  0  0  0  0  0  0  0  0  0  0
   -1.0694    2.0797    0.3642 H   0  0  0  0  0  0  0  0  0  0  0  0
    0.2407    1.9230    1.3647 H   0  0  0  0  0  0  0  0  0  0  0  0
    1.4109   -1.8554    1.7432 H   0  0  0  0  0  0  0  0  0  0  0  0
    0.5689   -3.6513    3.2037 H   0  0  0  0  0  0  0  0  0  0  0  0
   -3.4737   -2.7777    1.9970 H   0  0  0  0  0  0  0  0  0  0  0  0
   -2.6530   -1.0019    0.4993 H   0  0  0  0  0  0  0  0  0  0  0  0
   -1.2272   -5.0658    3.9654 H   0  0  0  0  0  0  0  0  0  0  0  0
   -2.7761   -5.0150    3.1351 H   0  0  0  0  0  0  0  0  0  0  0  0
   -3.0782   -4.5111    5.5704 H   0  0  0  0  0  0  0  0  0  0  0  0
   -3.5584   -3.0901    4.5836 H   0  0  0  0  0  0  0  0  0  0  0  0
   -0.8963   -2.5939    5.0051 H   0  0  0  0  0  0  0  0  0  0  0  0
   -1.1041   -1.0338    8.1871 H   0  0  0  0  0  0  0  0  0  0  0  0
    0.5777   -3.7129    6.5754 H   0  0  0  0  0  0  0  0  0  0  0  0
    2.9062   -3.6245    5.7335 H   0  0  0  0  0  0  0  0  0  0  0  0
    0.6606    0.5705    7.2109 H   0  0  0  0  0  0  0  0  0  0  0  0
    4.8425    1.8147    5.8840 H   0  0  0  0  0  0  0  0  0  0  0  0
    2.6638   -0.4852    3.6717 H   0  0  0  0  0  0  0  0  0  0  0  0
    3.1169   -0.0102    1.2673 H   0  0  0  0  0  0  0  0  0  0  0  0
    7.2007   -1.3749    1.7444 H   0  0  0  0  0  0  0  0  0  0  0  0
    8.8519   -2.8192    5.7136 H   0  0  0  0  0  0  0  0  0  0  0  0
    6.5185   -2.8472    9.3820 H   0  0  0  0  0  0  0  0  0  0  0  0
    4.5185   -1.9952    8.1319 H   0  0  0  0  0  0  0  0  0  0  0  0
    4.6147   -0.1981   -0.4144 H   0  0  0  0  0  0  0  0  0  0  0  0
  1  2  2  0  0  0  0
  1  4  1  0  0  0  0
  1  5  1  0  0  0  0
  3  1  2  0  0  0  0
  4 43  1  0  0  0  0
  5 10  2  0  0  0  0
  5  6  1  0  0  0  0
  6  7  2  0  0  0  0
  7  8  1  0  0  0  0
  7 45  1  0  0  0  0
  8 11  1  0  0  0  0
  9 46  1  0  0  0  0
  9  8  2  0  0  0  0
 10  9  1  0  0  0  0
 11 48  1  0  0  0  0
 11 12  1  0  0  0  0
 12 50  1  0  0  0  0
 12 13  1  0  0  0  0
 13 14  1  0  0  0  0
 14 16  1  0  0  0  0
 14 15  2  0  0  0  0
 16 53  1  0  0  0  0
 17 16  1  0  0  0  0
 18 54  1  0  0  0  0
 18 17  2  0  0  0  0
 19 18  1  0  0  0  0
 20 19  2  0  0  0  0
 20 21  1  0  0  0  0
 21 23  1  0  0  0  0
 21 22  2  0  0  0  0
 22 17  1  0  0  0  0
 22 56  1  0  0  0  0
 23 24  2  0  0  0  0
 25 57  1  0  0  0  0
 25 23  1  0  0  0  0
 26 20  1  0  0  0  0
 26 40  2  0  0  0  0
 27 26  1  0  0  0  0
 28 58  1  0  0  0  0
 28 27  1  0  0  0  0
 29 28  2  0  0  0  0
 30 29  1  0  0  0  0
 30 31  2  0  0  0  0
 31 32  1  0  0  0  0
 32 27  2  0  0  0  0
 32 33  1  0  0  0  0
 33 34  1  0  0  0  0
 34 40  1  0  0  0  0
 34 35  2  0  0  0  0
 35 36  1  0  0  0  0
 36 37  2  0  0  0  0
 36 38  1  0  0  0  0
 38 62  1  0  0  0  0
 39 63  1  0  0  0  0
 39 38  2  0  0  0  0
 40 39  1  0  0  0  0
 41 30  1  0  0  0  0
 42  4  1  0  0  0  0
 44  6  1  0  0  0  0
 47 10  1  0  0  0  0
 49 11  1  0  0  0  0
 51 12  1  0  0  0  0
 52 13  1  0  0  0  0
 55 19  1  0  0  0  0
 59 29  1  0  0  0  0
 60 31  1  0  0  0  0
 61 35  1  0  0  0  0
 64 41  1  0  0  0  0
M  END
$$$$
