64
rmsd157.gzmat
S          0.00000        0.00000        0.00000
O          1.45190        0.00000        0.00000
O         -0.71450        0.00000       -1.25420
N         -0.50850        1.39340        0.88160
C         -0.50550       -1.38360        0.96160
C         -0.71410       -2.60420        0.32060
C         -1.00340       -3.74380        1.06640
C         -1.09350       -3.66620        2.45950
C         -0.92660       -2.43410        3.09360
C         -0.63540       -1.29450        2.34560
C         -1.35570       -4.90030        3.26370
C         -0.11170       -5.81340        3.34060
N          0.92600       -5.27150        4.21870
C          1.88300       -4.35960        3.85330
S          2.84880       -3.65790        5.04930
N          2.07520       -4.10620        2.51940
C          2.96650       -3.06480        2.09580
C          4.11230       -3.41160        1.37410
C          4.91990       -2.40070        0.86320
C          4.58450       -1.05750        1.05930
C          3.45180       -0.72420        1.80830
C          2.65070       -1.72860        2.35130
C          2.99320        0.66350        2.02140
O          1.94470        1.01330        2.51300
O          3.92950        1.57250        1.66910
C          5.43700       -0.02490        0.44810
C          5.04720        0.51990       -0.82600
C          3.88180        0.13580       -1.51550
C          3.54640        0.72720       -2.71950
C          4.38760        1.72340       -3.24550
C          5.55600        2.13540       -2.60970
C          5.85970        1.51580       -1.39630
O          7.00640        1.96130       -0.81710
C          7.38590        1.43260        0.39570
C          8.52850        1.94030        0.90230
C          9.02220        1.45120        2.19130
O         10.04360        1.86920        2.69260
C          8.20800        0.41170        2.86420
C          7.07510       -0.06500        2.32330
C          6.58230        0.41000        1.04080
O          4.11070        2.34610       -4.41330
H         -1.04010        2.08470        0.38160
H          0.19020        1.82280        1.47960
H         -0.65970       -2.68570       -0.77110
H         -1.17260       -4.69110        0.56040
H         -1.01000       -2.35860        4.17750
H         -0.50170       -0.33750        2.86970
H         -2.20080       -5.47270        2.82410
H         -1.69340       -4.64490        4.29060
H          0.28900       -6.01710        2.32410
H         -0.41080       -6.81200        3.74720
H          0.78720       -5.43250        5.21860
H          1.43850       -4.45190        1.80850
H          4.36920       -4.45970        1.22180
H          5.81800       -2.65630        0.29770
H          1.78210       -1.46590        2.96310
H          3.63470        2.51170        1.77510
H          3.22750       -0.63250       -1.08240
H          2.63760        0.43800       -3.23770
H          6.19530        2.90450       -3.03500
H          9.11450        2.70660        0.40580
H          8.59400        0.07070        3.82280
H          6.47570       -0.82720        2.82880
H          3.25800        2.03730       -4.81110
