64

S         -0.00710        0.00940       -0.11920
O          1.45310        0.08110        0.09420
O         -0.51960       -0.07180       -1.48470
N         -0.60440        1.34660        0.70490
C         -0.67910       -1.35200        0.81110
C         -1.27020       -2.40530        0.10890
C         -1.71510       -3.52000        0.81980
C         -1.56920       -3.59420        2.21480
C         -0.97520       -2.51600        2.89290
C         -0.52890       -1.39320        2.19950
C         -2.02270       -4.81200        2.98320
C         -1.20910       -6.06810        2.64170
N         -1.62430       -7.18350        3.48700
C         -0.90670       -8.31420        3.76300
S         -1.63730       -9.80510        3.90570
N          0.46160       -8.19880        3.91850
C          1.23210       -7.13930        4.41680
C          2.62660       -7.17800        4.24210
C          3.42110       -6.11920        4.67170
C          2.86670       -4.98530        5.28350
C          1.47320       -4.97570        5.50920
C          0.67600       -6.04620        5.09170
C          0.74110       -3.84040        6.14810
O         -0.43740       -3.61290        5.96350
O          1.49250       -3.09480        6.96510
C          3.72070       -3.78670        5.50270
C          3.61230       -2.71510        4.54500
C          2.80840       -2.76630        3.38450
C          2.73770       -1.70170        2.50530
C          3.45650       -0.51230        2.77300
C          4.28610       -0.44340        3.90240
C          4.36870       -1.53660        4.75990
O          5.20160       -1.43240        5.82200
C          5.36960       -2.45300        6.71860
C          6.24720       -2.27090        7.74190
C          6.45620       -3.30380        8.75610
O          7.24460       -3.17410        9.69040
C          5.64060       -4.52950        8.59660
C          4.77030       -4.69160        7.57170
C          4.59440       -3.67310        6.56000
O          3.37340        0.55890        1.97780
H         -1.52920        1.61130        0.36250
H          0.06210        2.11620        0.62200
H         -1.37940       -2.33770       -0.97420
H         -2.19010       -4.34140        0.27740
H         -0.86450       -2.56700        3.97710
H         -0.07070       -0.55750        2.72890
H         -3.08850       -5.00920        2.77050
H         -1.93430       -4.61650        4.06090
H         -0.14300       -5.86320        2.78900
H         -1.33580       -6.33160        1.57490
H         -2.61680       -7.39740        3.44120
H          0.91080       -9.10910        3.92050
H          3.08340       -8.03130        3.73500
H          4.49690       -6.14430        4.48800
H         -0.39270       -6.00660        5.28920
H          0.92600       -2.38340        7.31070
H          2.23730       -3.67070        3.17240
H          2.13480       -1.76360        1.60150
H          4.86480        0.45700        4.10680
H          6.80820       -1.34020        7.83140
H          5.77820       -5.29720        9.36120
H          4.17470       -5.60240        7.48240
H          2.72720        0.39860        1.25750
