64
rmsd174.gzmat
S          0.00000        0.00000        0.00000
O          1.46060        0.00000        0.00000
O         -0.73700        0.00000       -1.23590
N         -0.42580        1.43770        0.86210
C         -0.53830       -1.32680        0.99730
C         -1.33160       -2.32720        0.43350
C         -1.72360       -3.42090        1.19900
C         -1.32140       -3.52530        2.53430
C         -0.55270       -2.50880        3.10350
C         -0.16380       -1.41210        2.33810
C         -1.72490       -4.71070        3.35350
C         -1.20070       -6.00940        2.71110
N         -1.69820       -7.17330        3.45540
C         -0.98070       -8.26220        3.84010
S         -1.78100       -9.67050        4.29410
N          0.41610       -8.25810        3.80480
C          1.21780       -7.18360        4.25550
C          2.52990       -7.08420        3.75960
C          3.31970       -6.00180        4.11950
C          2.81890       -5.01030        4.97120
C          1.53790       -5.15120        5.50450
C          0.73560       -6.23660        5.16770
C          0.96080       -4.13070        6.40870
O         -0.03270       -3.47630        6.21710
O          1.68960       -4.01290        7.53650
C          3.61790       -3.80520        5.23400
C          3.61750       -2.78060        4.22450
C          2.94680       -2.89480        2.99040
C          2.93690       -1.85130        2.09350
C          3.60100       -0.64470        2.42160
C          4.31930       -0.50320        3.61070
C          4.31290       -1.58650        4.48750
O          5.02310       -1.38120        5.62970
C          5.04980       -2.37290        6.58290
C          5.77550       -2.08440        7.68200
C          5.85370       -3.06170        8.77170
O          6.49210       -2.85430        9.78030
C          5.10100       -4.32450        8.58570
C          4.38890       -4.57140        7.47460
C          4.31850       -3.61300        6.38280
O          3.56010        0.41520        1.61300
H         -1.15750        2.00930        0.47070
H          0.33610        2.01240        1.18950
H         -1.65840       -2.26570       -0.61250
H         -2.35150       -4.19040        0.75480
H         -0.25880       -2.56570        4.15530
H          0.43750       -0.62950        2.81290
H         -2.83060       -4.73980        3.45760
H         -1.34740       -4.62230        4.39940
H         -0.09120       -5.99010        2.65590
H         -1.55410       -6.09290        1.65400
H         -2.71870       -7.23120        3.52290
H          0.86640       -9.18200        3.81280
H          2.91770       -7.84400        3.08080
H          4.33610       -5.91010        3.72740
H         -0.25770       -6.34750        5.60900
H          1.33770       -3.33250        8.17210
H          2.42580       -3.82420        2.75060
H          2.43960       -1.93720        1.12800
H          4.85130        0.41580        3.84130
H          6.31540       -1.15150        7.81460
H          5.16730       -5.02870        9.41300
H          3.82450       -5.49870        7.34880
H          2.86630        0.30790        0.87300
