
     RDKit          3D

 64 68  0  0  0  0  0  0  0  0999 V2000
    0.4118    0.4771    0.9096 S   0  0  0  0  0  0  0  0  0  0  0  0
    1.8490    0.5690    1.2513 O   0  0  0  0  0  0  0  0  0  0  0  0
   -0.0223    0.5675   -0.4830 O   0  0  0  0  0  0  0  0  0  0  0  0
   -0.2796    1.6887    1.8428 N   0  0  0  0  0  0  0  0  0  0  0  0
   -0.2731   -1.0148    1.6056 C   0  0  0  0  0  0  0  0  0  0  0  0
   -1.0407   -1.8436    0.7833 C   0  0  0  0  0  0  0  0  0  0  0  0
   -1.5760   -3.0128    1.3215 C   0  0  0  0  0  0  0  0  0  0  0  0
   -1.3521   -3.3655    2.6636 C   0  0  0  0  0  0  0  0  0  0  0  0
   -0.5661   -2.5146    3.4573 C   0  0  0  0  0  0  0  0  0  0  0  0
   -0.0272   -1.3359    2.9420 C   0  0  0  0  0  0  0  0  0  0  0  0
   -1.9264   -4.6461    3.2219 C   0  0  0  0  0  0  0  0  0  0  0  0
   -1.3110   -5.9123    2.6045 C   0  0  0  0  0  0  0  0  0  0  0  0
    0.1122   -6.0319    2.8471 N   0  0  0  0  0  0  0  0  0  0  0  0
    0.6597   -6.7706    3.8443 C   0  0  0  0  0  0  0  0  0  0  0  0
   -0.2215   -7.6954    4.9257 S   0  0  0  0  0  0  0  0  0  0  0  0
    2.0359   -6.7554    3.9151 N   0  0  0  0  0  0  0  0  0  0  0  0
    2.9219   -5.9230    3.2017 C   0  0  0  0  0  0  0  0  0  0  0  0
    4.0264   -6.4620    2.5251 C   0  0  0  0  0  0  0  0  0  0  0  0
    4.8817   -5.6275    1.8076 C   0  0  0  0  0  0  0  0  0  0  0  0
    4.6469   -4.2462    1.7098 C   0  0  0  0  0  0  0  0  0  0  0  0
    3.5514   -3.7072    2.4125 C   0  0  0  0  0  0  0  0  0  0  0  0
    2.7233   -4.5367    3.1718 C   0  0  0  0  0  0  0  0  0  0  0  0
    3.2010   -2.2462    2.4269 C   0  0  0  0  0  0  0  0  0  0  0  0
    2.8398   -1.6874    3.4404 O   0  0  0  0  0  0  0  0  0  0  0  0
    3.2670   -1.6820    1.2307 O   0  0  0  0  0  0  0  0  0  0  0  0
    5.5729   -3.3910    0.9221 C   0  0  0  0  0  0  0  0  0  0  0  0
    6.3954   -2.4210    1.6096 C   0  0  0  0  0  0  0  0  0  0  0  0
    6.3991   -2.2257    3.0073 C   0  0  0  0  0  0  0  0  0  0  0  0
    7.2020   -1.2648    3.6014 C   0  0  0  0  0  0  0  0  0  0  0  0
    8.0446   -0.4623    2.8060 C   0  0  0  0  0  0  0  0  0  0  0  0
    8.0793   -0.6417    1.4205 C   0  0  0  0  0  0  0  0  0  0  0  0
    7.2653   -1.6105    0.8394 C   0  0  0  0  0  0  0  0  0  0  0  0
    7.3482   -1.7511   -0.5016 O   0  0  0  0  0  0  0  0  0  0  0  0
    6.5953   -2.6660   -1.1845 C   0  0  0  0  0  0  0  0  0  0  0  0
    6.7506   -2.7406   -2.5333 C   0  0  0  0  0  0  0  0  0  0  0  0
    5.9683   -3.6783   -3.3371 C   0  0  0  0  0  0  0  0  0  0  0  0
    6.0893   -3.7797   -4.5558 O   0  0  0  0  0  0  0  0  0  0  0  0
    4.9960   -4.5024   -2.5841 C   0  0  0  0  0  0  0  0  0  0  0  0
    4.8591   -4.4160   -1.2399 C   0  0  0  0  0  0  0  0  0  0  0  0
    5.6656   -3.5092   -0.4489 C   0  0  0  0  0  0  0  0  0  0  0  0
    8.8430    0.4895    3.3338 O   0  0  0  0  0  0  0  0  0  0  0  0
   -1.1248    2.0545    1.4036 H   0  0  0  0  0  0  0  0  0  0  0  0
    0.4145    2.4185    2.0093 H   0  0  0  0  0  0  0  0  0  0  0  0
   -1.2112   -1.5626   -0.2566 H   0  0  0  0  0  0  0  0  0  0  0  0
   -2.1875   -3.6591    0.6864 H   0  0  0  0  0  0  0  0  0  0  0  0
   -0.3763   -2.7765    4.5008 H   0  0  0  0  0  0  0  0  0  0  0  0
    0.5965   -0.6928    3.5608 H   0  0  0  0  0  0  0  0  0  0  0  0
   -3.0136   -4.6736    3.0357 H   0  0  0  0  0  0  0  0  0  0  0  0
   -1.7830   -4.6894    4.3118 H   0  0  0  0  0  0  0  0  0  0  0  0
   -1.4736   -5.9235    1.5146 H   0  0  0  0  0  0  0  0  0  0  0  0
   -1.7940   -6.8005    3.0346 H   0  0  0  0  0  0  0  0  0  0  0  0
    0.7355   -5.5335    2.2213 H   0  0  0  0  0  0  0  0  0  0  0  0
    2.4142   -7.4616    4.5370 H   0  0  0  0  0  0  0  0  0  0  0  0
    4.2032   -7.5393    2.5540 H   0  0  0  0  0  0  0  0  0  0  0  0
    5.7447   -6.0531    1.2918 H   0  0  0  0  0  0  0  0  0  0  0  0
    1.9110   -4.0830    3.7389 H   0  0  0  0  0  0  0  0  0  0  0  0
    2.8804   -0.7661    1.2748 H   0  0  0  0  0  0  0  0  0  0  0  0
    5.7545   -2.8412    3.6344 H   0  0  0  0  0  0  0  0  0  0  0  0
    7.1819   -1.1265    4.6857 H   0  0  0  0  0  0  0  0  0  0  0  0
    8.7339   -0.0328    0.7979 H   0  0  0  0  0  0  0  0  0  0  0  0
    7.4616   -2.0910   -3.0444 H   0  0  0  0  0  0  0  0  0  0  0  0
    4.3848   -5.1835   -3.1804 H   0  0  0  0  0  0  0  0  0  0  0  0
    4.1226   -5.0287   -0.7186 H   0  0  0  0  0  0  0  0  0  0  0  0
    8.7259    0.5188    4.2928 H   0  0  0  0  0  0  0  0  0  0  0  0
  1  2  2  0
  1  3  2  0
  1  4  1  0
  1  5  1  0
  4 42  1  0
  4 43  1  0
  5  6  2  0
  5 10  1  0
  6  7  1  0
  6 44  1  0
  7  8  2  0
  7 45  1  0
  8  9  1  0
  8 11  1  0
  9 10  2  0
  9 46  1  0
 10 47  1  0
 11 12  1  0
 11 48  1  0
 11 49  1  0
 12 13  1  0
 12 50  1  0
 12 51  1  0
 13 14  1  0
 13 52  1  0
 14 15  2  0
 14 16  1  0
 16 17  1  0
 16 53  1  0
 17 18  2  0
 17 22  1  0
 18 19  1  0
 18 54  1  0
 19 20  2  0
 19 55  1  0
 20 21  1  0
 20 26  1  0
 21 22  2  0
 21 23  1  0
 22 56  1  0
 23 24  2  0
 23 25  1  0
 25 57  1  0
 26 27  1  0
 26 40  2  0
 27 28  2  0
 27 32  1  0
 28 29  1  0
 28 58  1  0
 29 30  2  0
 29 59  1  0
 30 31  1  0
 30 41  1  0
 31 32  2  0
 31 60  1  0
 32 33  1  0
 33 34  1  0
 34 35  2  0
 34 40  1  0
 35 36  1  0
 35 61  1  0
 36 37  2  0
 36 38  1  0
 38 39  2  0
 38 62  1  0
 39 40  1  0
 39 63  1  0
 41 64  1  0
M  END

