
     RDKit          3D

 64 68  0  0  0  0  0  0  0  0999 V2000
    0.4386   -0.4573   -0.4135 S   0  0  0  0  0  0  0  0  0  0  0  0
    1.8558   -0.7923   -0.6325 O   0  0  0  0  0  0  0  0  0  0  0  0
   -0.4810   -0.3650   -1.5447 O   0  0  0  0  0  0  0  0  0  0  0  0
    0.4884    0.9992    0.4529 N   0  0  0  0  0  0  0  0  0  0  0  0
   -0.2703   -1.5712    0.7868 C   0  0  0  0  0  0  0  0  0  0  0  0
    0.5505   -2.2569    1.6830 C   0  0  0  0  0  0  0  0  0  0  0  0
   -0.0404   -3.1108    2.6170 C   0  0  0  0  0  0  0  0  0  0  0  0
   -1.4326   -3.2908    2.6601 C   0  0  0  0  0  0  0  0  0  0  0  0
   -2.2285   -2.5932    1.7349 C   0  0  0  0  0  0  0  0  0  0  0  0
   -1.6586   -1.7411    0.7921 C   0  0  0  0  0  0  0  0  0  0  0  0
   -2.0807   -4.1993    3.6794 C   0  0  0  0  0  0  0  0  0  0  0  0
   -2.7301   -3.4523    4.8511 C   0  0  0  0  0  0  0  0  0  0  0  0
   -1.7283   -2.7849    5.6587 N   0  0  0  0  0  0  0  0  0  0  0  0
   -1.9970   -2.2559    6.8815 C   0  0  0  0  0  0  0  0  0  0  0  0
   -3.4945   -2.3254    7.6130 S   0  0  0  0  0  0  0  0  0  0  0  0
   -0.9434   -1.6223    7.5086 N   0  0  0  0  0  0  0  0  0  0  0  0
    0.4105   -1.5971    7.1349 C   0  0  0  0  0  0  0  0  0  0  0  0
    1.0701   -2.7478    6.6644 C   0  0  0  0  0  0  0  0  0  0  0  0
    2.3936   -2.6688    6.2451 C   0  0  0  0  0  0  0  0  0  0  0  0
    3.1193   -1.4681    6.3014 C   0  0  0  0  0  0  0  0  0  0  0  0
    2.4816   -0.3359    6.8501 C   0  0  0  0  0  0  0  0  0  0  0  0
    1.1409   -0.4103    7.2516 C   0  0  0  0  0  0  0  0  0  0  0  0
    3.1254    1.0082    7.0046 C   0  0  0  0  0  0  0  0  0  0  0  0
    2.5324    1.9963    7.3692 O   0  0  0  0  0  0  0  0  0  0  0  0
    4.4343    1.0164    6.7110 O   0  0  0  0  0  0  0  0  0  0  0  0
    4.4351   -1.4562    5.6020 C   0  0  0  0  0  0  0  0  0  0  0  0
    4.4262   -1.0464    4.2207 C   0  0  0  0  0  0  0  0  0  0  0  0
    3.2907   -0.5330    3.5604 C   0  0  0  0  0  0  0  0  0  0  0  0
    3.3100   -0.2467    2.2083 C   0  0  0  0  0  0  0  0  0  0  0  0
    4.4719   -0.5075    1.4447 C   0  0  0  0  0  0  0  0  0  0  0  0
    5.6346   -0.9576    2.0861 C   0  0  0  0  0  0  0  0  0  0  0  0
    5.6061   -1.2121    3.4559 C   0  0  0  0  0  0  0  0  0  0  0  0
    6.7433   -1.6696    4.0300 O   0  0  0  0  0  0  0  0  0  0  0  0
    6.8002   -2.0190    5.3531 C   0  0  0  0  0  0  0  0  0  0  0  0
    7.9881   -2.4529    5.8535 C   0  0  0  0  0  0  0  0  0  0  0  0
    8.1181   -2.8650    7.2513 C   0  0  0  0  0  0  0  0  0  0  0  0
    9.1765   -3.2587    7.7362 O   0  0  0  0  0  0  0  0  0  0  0  0
    6.8802   -2.7831    8.0608 C   0  0  0  0  0  0  0  0  0  0  0  0
    5.7054   -2.3514    7.5440 C   0  0  0  0  0  0  0  0  0  0  0  0
    5.5944   -1.9367    6.1630 C   0  0  0  0  0  0  0  0  0  0  0  0
    4.4934   -0.3376    0.1158 O   0  0  0  0  0  0  0  0  0  0  0  0
   -0.4330    1.4413    0.4673 H   0  0  0  0  0  0  0  0  0  0  0  0
    1.1658    1.6182   -0.0003 H   0  0  0  0  0  0  0  0  0  0  0  0
    1.6318   -2.1306    1.6473 H   0  0  0  0  0  0  0  0  0  0  0  0
    0.5993   -3.6594    3.3132 H   0  0  0  0  0  0  0  0  0  0  0  0
   -3.3121   -2.7353    1.7419 H   0  0  0  0  0  0  0  0  0  0  0  0
   -2.2733   -1.2261    0.0524 H   0  0  0  0  0  0  0  0  0  0  0  0
   -1.3408   -4.9150    4.0712 H   0  0  0  0  0  0  0  0  0  0  0  0
   -2.8688   -4.7900    3.1869 H   0  0  0  0  0  0  0  0  0  0  0  0
   -3.2767   -4.1539    5.4975 H   0  0  0  0  0  0  0  0  0  0  0  0
   -3.4810   -2.7298    4.4811 H   0  0  0  0  0  0  0  0  0  0  0  0
   -0.8929   -2.4625    5.1783 H   0  0  0  0  0  0  0  0  0  0  0  0
   -1.2314   -1.0689    8.3084 H   0  0  0  0  0  0  0  0  0  0  0  0
    0.5395   -3.6990    6.6214 H   0  0  0  0  0  0  0  0  0  0  0  0
    2.8860   -3.5578    5.8453 H   0  0  0  0  0  0  0  0  0  0  0  0
    0.6711    0.4971    7.6346 H   0  0  0  0  0  0  0  0  0  0  0  0
    4.7506    1.9268    6.8407 H   0  0  0  0  0  0  0  0  0  0  0  0
    2.3741   -0.3657    4.1266 H   0  0  0  0  0  0  0  0  0  0  0  0
    2.4275    0.1704    1.7279 H   0  0  0  0  0  0  0  0  0  0  0  0
    6.5429   -1.1444    1.5137 H   0  0  0  0  0  0  0  0  0  0  0  0
    8.8708   -2.5092    5.2160 H   0  0  0  0  0  0  0  0  0  0  0  0
    6.9721   -3.0885    9.1054 H   0  0  0  0  0  0  0  0  0  0  0  0
    4.8080   -2.2907    8.1637 H   0  0  0  0  0  0  0  0  0  0  0  0
    3.5777   -0.3417   -0.2300 H   0  0  0  0  0  0  0  0  0  0  0  0
  1  2  2  0
  1  3  2  0
  1  4  1  0
  1  5  1  0
  4 42  1  0
  4 43  1  0
  5  6  2  0
  5 10  1  0
  6  7  1  0
  6 44  1  0
  7  8  2  0
  7 45  1  0
  8  9  1  0
  8 11  1  0
  9 10  2  0
  9 46  1  0
 10 47  1  0
 11 12  1  0
 11 48  1  0
 11 49  1  0
 12 13  1  0
 12 50  1  0
 12 51  1  0
 13 14  1  0
 13 52  1  0
 14 15  2  0
 14 16  1  0
 16 17  1  0
 16 53  1  0
 17 18  2  0
 17 22  1  0
 18 19  1  0
 18 54  1  0
 19 20  2  0
 19 55  1  0
 20 21  1  0
 20 26  1  0
 21 22  2  0
 21 23  1  0
 22 56  1  0
 23 24  2  0
 23 25  1  0
 25 57  1  0
 26 27  1  0
 26 40  2  0
 27 28  2  0
 27 32  1  0
 28 29  1  0
 28 58  1  0
 29 30  2  0
 29 59  1  0
 30 31  1  0
 30 41  1  0
 31 32  2  0
 31 60  1  0
 32 33  1  0
 33 34  1  0
 34 35  2  0
 34 40  1  0
 35 36  1  0
 35 61  1  0
 36 37  2  0
 36 38  1  0
 38 39  2  0
 38 62  1  0
 39 40  1  0
 39 63  1  0
 41 64  1  0
M  END

