64
rmsd155.gzmat
S          0.00000        0.00000        0.00000
O          1.45890        0.00000        0.00000
O         -0.74070        0.00000       -1.23480
N         -0.42960        1.44590        0.84660
C         -0.54930       -1.33220        0.98860
C         -1.30930       -2.34180        0.39430
C         -1.72600       -3.43580        1.14470
C         -1.38570       -3.53200        2.49810
C         -0.63760       -2.51530        3.09270
C         -0.22360       -1.41520        2.34140
C         -1.83620       -4.70950        3.30260
C         -1.28470       -6.03810        2.75160
N          0.17340       -6.12500        2.91160
C          0.74120       -6.62490        4.04690
S         -0.09260       -7.46020        5.25490
N          2.11500       -6.51760        4.18980
C          2.97130       -5.68030        3.43360
C          4.21630       -6.18500        3.02190
C          5.08080       -5.37500        2.29800
C          4.71190       -4.06710        1.96080
C          3.47620       -3.57710        2.37880
C          2.61300       -4.36120        3.13840
C          2.99850       -2.21380        2.02420
O          2.56260       -1.40350        2.80420
O          3.03860       -2.03520        0.70470
C          5.63730       -3.22480        1.19010
C          6.69980       -2.55530        1.89930
C          6.88540       -2.63950        3.28990
C          7.92360       -1.96850        3.90990
C          8.79650       -1.19260        3.12350
C          8.65180       -1.06760        1.74420
C          7.58890       -1.75630        1.15690
O          7.49300       -1.58660       -0.18790
C          6.46280       -2.20460       -0.86240
C          6.41870       -1.95370       -2.18550
C          5.35820       -2.55930       -2.99880
O          5.26950       -2.36600       -4.19120
C          4.39020       -3.42700       -2.28810
C          4.47170       -3.65100       -0.96720
C          5.52060       -3.05550       -0.15250
O          9.83580       -0.51720        3.65970
H         -1.06240        2.07510        0.37850
H          0.33120        1.95840        1.26790
H         -1.59170       -2.28430       -0.66550
H         -2.32830       -4.21200        0.67760
H         -0.37860       -2.56960        4.14950
H          0.36510       -0.63120        2.83770
H         -2.94760       -4.75450        3.31800
H         -1.55320       -4.60830        4.37410
H         -1.50990       -6.14300        1.66440
H         -1.78980       -6.89930        3.25820
H          0.70840       -5.56410        2.25590
H          2.55790       -7.09090        4.91560
H          4.49800       -7.20980        3.26370
H          6.05150       -5.76060        1.97710
H          1.68230       -3.93100        3.51660
H          2.57040       -1.17270        0.38300
H          6.19410       -3.24170        3.88590
H          8.06300       -2.03300        4.98360
H          9.33310       -0.45730        1.15550
H          7.12890       -1.31130       -2.69790
H          3.60780       -3.85530       -2.91100
H          3.74170       -4.27340       -0.44550
H          9.88920       -0.61690        4.64360
