64
rmsd13.gzmat
S          0.00000        0.00000        0.00000
O          1.43670        0.00000        0.00000
O         -0.75050        0.00000       -1.25500
N         -0.48370        1.43530        0.83910
C         -0.62930       -1.32240        0.95760
C         -1.22660       -2.40380        0.30730
C         -1.68790       -3.49230        1.04120
C         -1.55620       -3.50910        2.43290
C         -0.99030       -2.41000        3.08320
C         -0.52650       -1.32120        2.34810
C         -2.00240       -4.70180        3.21620
C         -3.53720       -4.82870        3.25530
N         -4.16840       -3.65220        3.86630
C         -4.25960       -3.50390        5.22120
S         -3.89730       -4.70310        6.35290
N         -4.70200       -2.28700        5.70650
C         -5.01610       -1.16450        4.89320
C         -4.33410        0.04190        5.11440
C         -4.55800        1.11760        4.26640
C         -5.45460        1.00110        3.19670
C         -6.18170       -0.17820        3.03230
C         -5.97780       -1.26240        3.88350
C         -7.14780       -0.35480        1.92560
O         -7.32960       -1.36100        1.29030
O         -7.83690        0.78170        1.68910
C         -5.52470        2.10040        2.22300
C         -4.81200        1.92500        0.98490
C         -4.21220        0.71370        0.58740
C         -3.45540        0.64850       -0.55890
C         -3.24650        1.82120       -1.32370
C         -3.90420        3.01490       -1.02500
C         -4.69350        3.03150        0.12560
O         -5.29700        4.22450        0.37240
C         -6.07530        4.35580        1.50070
C         -6.70120        5.54300        1.62770
C         -7.52250        5.80070        2.81400
O         -8.12390        6.84020        2.97200
C         -7.58150        4.72160        3.83020
C         -6.93990        3.55420        3.66410
C         -6.15350        3.27870        2.47300
O         -2.37800        1.83940       -2.34060
H         -1.29050        1.92470        0.47960
H          0.24460        2.08880        1.08190
H         -1.33830       -2.41450       -0.78460
H         -2.13910       -4.33910        0.52680
H         -0.89650       -2.40880        4.16850
H         -0.08290       -0.47510        2.88300
H         -1.60490       -4.67640        4.25630
H         -1.57190       -5.63130        2.78320
H         -3.82870       -5.75930        3.80560
H         -3.94940       -4.92920        2.22310
H         -4.27080       -2.85710        3.24320
H         -4.77570       -2.16670        6.72030
H         -3.61860        0.12400        5.93400
H         -4.01510        2.05460        4.41370
H         -6.56020       -2.18160        3.75420
H         -8.48840        0.70020        0.94150
H         -4.34680       -0.18050        1.19860
H         -3.01970       -0.29140       -0.89760
H         -3.79330        3.89390       -1.65490
H         -6.63190        6.33800        0.89080
H         -8.18330        4.94600        4.70920
H         -6.99550        2.75730        4.40910
H         -1.71910        1.06100       -2.27180
