
     RDKit          3D

 64 68  0  0  0  0  0  0  0  0999 V2000
    0.2776    0.1474    0.2747 S   0  0  0  0  0  0  0  0  0  0  0  0
    1.7158    0.3520    0.5606 O   0  0  0  0  0  0  0  0  0  0  0  0
   -0.1984    0.0849   -1.1056 O   0  0  0  0  0  0  0  0  0  0  0  0
   -0.4658    1.3881    1.1274 N   0  0  0  0  0  0  0  0  0  0  0  0
   -0.2972   -1.3122    1.1238 C   0  0  0  0  0  0  0  0  0  0  0  0
   -1.3147   -2.0638    0.5316 C   0  0  0  0  0  0  0  0  0  0  0  0
   -1.8345   -3.1547    1.2260 C   0  0  0  0  0  0  0  0  0  0  0  0
   -1.3500   -3.5111    2.4963 C   0  0  0  0  0  0  0  0  0  0  0  0
   -0.2928   -2.7625    3.0417 C   0  0  0  0  0  0  0  0  0  0  0  0
    0.2320   -1.6570    2.3700 C   0  0  0  0  0  0  0  0  0  0  0  0
   -1.9801   -4.6561    3.2526 C   0  0  0  0  0  0  0  0  0  0  0  0
   -1.7255   -6.0471    2.6468 C   0  0  0  0  0  0  0  0  0  0  0  0
   -0.3540   -6.4987    2.7670 N   0  0  0  0  0  0  0  0  0  0  0  0
    0.1290   -7.1438    3.8593 C   0  0  0  0  0  0  0  0  0  0  0  0
   -0.7794   -7.4796    5.2238 S   0  0  0  0  0  0  0  0  0  0  0  0
    1.4551   -7.5212    3.8100 N   0  0  0  0  0  0  0  0  0  0  0  0
    2.3842   -7.2390    2.7899 C   0  0  0  0  0  0  0  0  0  0  0  0
    2.1166   -7.5540    1.4461 C   0  0  0  0  0  0  0  0  0  0  0  0
    2.9902   -7.1349    0.4458 C   0  0  0  0  0  0  0  0  0  0  0  0
    4.1663   -6.4314    0.7451 C   0  0  0  0  0  0  0  0  0  0  0  0
    4.4918   -6.2275    2.1039 C   0  0  0  0  0  0  0  0  0  0  0  0
    3.5967   -6.6201    3.1058 C   0  0  0  0  0  0  0  0  0  0  0  0
    5.7305   -5.5338    2.5850 C   0  0  0  0  0  0  0  0  0  0  0  0
    5.8954   -5.1808    3.7292 O   0  0  0  0  0  0  0  0  0  0  0  0
    6.6567   -5.3602    1.6316 O   0  0  0  0  0  0  0  0  0  0  0  0
    4.8559   -5.7374   -0.3768 C   0  0  0  0  0  0  0  0  0  0  0  0
    4.5279   -4.3461   -0.5536 C   0  0  0  0  0  0  0  0  0  0  0  0
    3.6454   -3.6300    0.2848 C   0  0  0  0  0  0  0  0  0  0  0  0
    3.3530   -2.3000    0.0597 C   0  0  0  0  0  0  0  0  0  0  0  0
    3.9321   -1.6220   -1.0399 C   0  0  0  0  0  0  0  0  0  0  0  0
    4.8122   -2.3079   -1.8911 C   0  0  0  0  0  0  0  0  0  0  0  0
    5.0987   -3.6481   -1.6454 C   0  0  0  0  0  0  0  0  0  0  0  0
    5.9417   -4.2747   -2.5007 O   0  0  0  0  0  0  0  0  0  0  0  0
    6.2658   -5.5979   -2.3658 C   0  0  0  0  0  0  0  0  0  0  0  0
    7.1158   -6.1484   -3.2745 C   0  0  0  0  0  0  0  0  0  0  0  0
    7.5120   -7.5538   -3.1906 C   0  0  0  0  0  0  0  0  0  0  0  0
    8.2753   -8.0830   -3.9962 O   0  0  0  0  0  0  0  0  0  0  0  0
    6.9353   -8.3143   -2.0581 C   0  0  0  0  0  0  0  0  0  0  0  0
    6.0900   -7.7495   -1.1632 C   0  0  0  0  0  0  0  0  0  0  0  0
    5.6978   -6.3620   -1.2664 C   0  0  0  0  0  0  0  0  0  0  0  0
    3.6634   -0.3385   -1.2977 O   0  0  0  0  0  0  0  0  0  0  0  0
   -1.3697    1.6305    0.7203 H   0  0  0  0  0  0  0  0  0  0  0  0
    0.1637    2.1913    1.1665 H   0  0  0  0  0  0  0  0  0  0  0  0
   -1.6912   -1.7836   -0.4530 H   0  0  0  0  0  0  0  0  0  0  0  0
   -2.6502   -3.7291    0.7789 H   0  0  0  0  0  0  0  0  0  0  0  0
    0.1056   -3.0353    4.0218 H   0  0  0  0  0  0  0  0  0  0  0  0
    1.0339   -1.0617    2.8102 H   0  0  0  0  0  0  0  0  0  0  0  0
   -3.0722   -4.5021    3.2780 H   0  0  0  0  0  0  0  0  0  0  0  0
   -1.6364   -4.6744    4.2969 H   0  0  0  0  0  0  0  0  0  0  0  0
   -1.9930   -6.0570    1.5779 H   0  0  0  0  0  0  0  0  0  0  0  0
   -2.3576   -6.7783    3.1688 H   0  0  0  0  0  0  0  0  0  0  0  0
    0.3035   -6.1996    2.0546 H   0  0  0  0  0  0  0  0  0  0  0  0
    1.8115   -7.8070    4.7157 H   0  0  0  0  0  0  0  0  0  0  0  0
    1.2112   -8.1053    1.1879 H   0  0  0  0  0  0  0  0  0  0  0  0
    2.7435   -7.3212   -0.6014 H   0  0  0  0  0  0  0  0  0  0  0  0
    3.8522   -6.3889    4.1413 H   0  0  0  0  0  0  0  0  0  0  0  0
    7.4074   -4.8983    2.0424 H   0  0  0  0  0  0  0  0  0  0  0  0
    3.1806   -4.1373    1.1300 H   0  0  0  0  0  0  0  0  0  0  0  0
    2.6772   -1.7614    0.7194 H   0  0  0  0  0  0  0  0  0  0  0  0
    5.2618   -1.7996   -2.7437 H   0  0  0  0  0  0  0  0  0  0  0  0
    7.5224   -5.5467   -4.0879 H   0  0  0  0  0  0  0  0  0  0  0  0
    7.2370   -9.3614   -1.9836 H   0  0  0  0  0  0  0  0  0  0  0  0
    5.6847   -8.3293   -0.3310 H   0  0  0  0  0  0  0  0  0  0  0  0
    2.9975   -0.0026   -0.6619 H   0  0  0  0  0  0  0  0  0  0  0  0
  1  2  2  0
  1  3  2  0
  1  4  1  0
  1  5  1  0
  4 42  1  0
  4 43  1  0
  5  6  2  0
  5 10  1  0
  6  7  1  0
  6 44  1  0
  7  8  2  0
  7 45  1  0
  8  9  1  0
  8 11  1  0
  9 10  2  0
  9 46  1  0
 10 47  1  0
 11 12  1  0
 11 48  1  0
 11 49  1  0
 12 13  1  0
 12 50  1  0
 12 51  1  0
 13 14  1  0
 13 52  1  0
 14 15  2  0
 14 16  1  0
 16 17  1  0
 16 53  1  0
 17 18  2  0
 17 22  1  0
 18 19  1  0
 18 54  1  0
 19 20  2  0
 19 55  1  0
 20 21  1  0
 20 26  1  0
 21 22  2  0
 21 23  1  0
 22 56  1  0
 23 24  2  0
 23 25  1  0
 25 57  1  0
 26 27  1  0
 26 40  2  0
 27 28  2  0
 27 32  1  0
 28 29  1  0
 28 58  1  0
 29 30  2  0
 29 59  1  0
 30 31  1  0
 30 41  1  0
 31 32  2  0
 31 60  1  0
 32 33  1  0
 33 34  1  0
 34 35  2  0
 34 40  1  0
 35 36  1  0
 35 61  1  0
 36 37  2  0
 36 38  1  0
 38 39  2  0
 38 62  1  0
 39 40  1  0
 39 63  1  0
 41 64  1  0
M  END

