
     RDKit          3D

 64 68  0  0  0  0  0  0  0  0999 V2000
   -0.2295    0.0240    0.2084 S   0  0  0  0  0  0  0  0  0  0  0  0
    1.2361    0.1108    0.0913 O   0  0  0  0  0  0  0  0  0  0  0  0
   -1.0568   -0.0644   -0.9953 O   0  0  0  0  0  0  0  0  0  0  0  0
   -0.8296    1.3027    1.0962 N   0  0  0  0  0  0  0  0  0  0  0  0
   -0.5687   -1.3831    1.2571 C   0  0  0  0  0  0  0  0  0  0  0  0
    0.3583   -2.4276    1.2953 C   0  0  0  0  0  0  0  0  0  0  0  0
    0.0706   -3.5595    2.0587 C   0  0  0  0  0  0  0  0  0  0  0  0
   -1.1217   -3.6526    2.7953 C   0  0  0  0  0  0  0  0  0  0  0  0
   -2.0419   -2.5961    2.7207 C   0  0  0  0  0  0  0  0  0  0  0  0
   -1.7785   -1.4671    1.9475 C   0  0  0  0  0  0  0  0  0  0  0  0
   -1.3508   -4.7821    3.7696 C   0  0  0  0  0  0  0  0  0  0  0  0
   -0.3951   -4.6764    4.9935 C   0  0  0  0  0  0  0  0  0  0  0  0
    0.0383   -3.3184    5.2815 N   0  0  0  0  0  0  0  0  0  0  0  0
   -0.8012   -2.3557    5.7383 C   0  0  0  0  0  0  0  0  0  0  0  0
   -2.3181   -2.6569    6.3717 S   0  0  0  0  0  0  0  0  0  0  0  0
   -0.3470   -1.0561    5.6426 N   0  0  0  0  0  0  0  0  0  0  0  0
    0.8875   -0.5683    5.1901 C   0  0  0  0  0  0  0  0  0  0  0  0
    2.1072   -1.1952    5.5031 C   0  0  0  0  0  0  0  0  0  0  0  0
    3.3084   -0.6666    5.0380 C   0  0  0  0  0  0  0  0  0  0  0  0
    3.3595    0.5249    4.3004 C   0  0  0  0  0  0  0  0  0  0  0  0
    2.1355    1.1757    4.0252 C   0  0  0  0  0  0  0  0  0  0  0  0
    0.9218    0.6149    4.4380 C   0  0  0  0  0  0  0  0  0  0  0  0
    2.0489    2.4737    3.2923 C   0  0  0  0  0  0  0  0  0  0  0  0
    1.0936    2.8147    2.6223 O   0  0  0  0  0  0  0  0  0  0  0  0
    3.1070    3.2648    3.4695 O   0  0  0  0  0  0  0  0  0  0  0  0
    4.6772    0.9955    3.7960 C   0  0  0  0  0  0  0  0  0  0  0  0
    4.9236    1.0016    2.3725 C   0  0  0  0  0  0  0  0  0  0  0  0
    3.9731    0.6316    1.3965 C   0  0  0  0  0  0  0  0  0  0  0  0
    4.2611    0.6944    0.0436 C   0  0  0  0  0  0  0  0  0  0  0  0
    5.5355    1.1182   -0.3824 C   0  0  0  0  0  0  0  0  0  0  0  0
    6.5090    1.4747    0.5568 C   0  0  0  0  0  0  0  0  0  0  0  0
    6.1978    1.4161    1.9127 C   0  0  0  0  0  0  0  0  0  0  0  0
    7.1734    1.7708    2.7803 O   0  0  0  0  0  0  0  0  0  0  0  0
    6.9761    1.7754    4.1327 C   0  0  0  0  0  0  0  0  0  0  0  0
    8.0137    2.1525    4.9277 C   0  0  0  0  0  0  0  0  0  0  0  0
    7.8782    2.2029    6.3822 C   0  0  0  0  0  0  0  0  0  0  0  0
    8.7959    2.5318    7.1304 O   0  0  0  0  0  0  0  0  0  0  0  0
    6.5421    1.8420    6.9079 C   0  0  0  0  0  0  0  0  0  0  0  0
    5.5227    1.4639    6.1007 C   0  0  0  0  0  0  0  0  0  0  0  0
    5.6785    1.3842    4.6627 C   0  0  0  0  0  0  0  0  0  0  0  0
    5.8661    1.1965   -1.6880 O   0  0  0  0  0  0  0  0  0  0  0  0
   -1.3497    1.9182    0.4716 H   0  0  0  0  0  0  0  0  0  0  0  0
   -0.1069    1.8013    1.6347 H   0  0  0  0  0  0  0  0  0  0  0  0
    1.2945   -2.3382    0.7426 H   0  0  0  0  0  0  0  0  0  0  0  0
    0.7974   -4.3759    2.0994 H   0  0  0  0  0  0  0  0  0  0  0  0
   -2.9578   -2.6455    3.3118 H   0  0  0  0  0  0  0  0  0  0  0  0
   -2.4863   -0.6384    1.9053 H   0  0  0  0  0  0  0  0  0  0  0  0
   -1.1924   -5.7594    3.2857 H   0  0  0  0  0  0  0  0  0  0  0  0
   -2.3891   -4.7482    4.1231 H   0  0  0  0  0  0  0  0  0  0  0  0
    0.5199   -5.2614    4.8180 H   0  0  0  0  0  0  0  0  0  0  0  0
   -0.8916   -5.0799    5.8863 H   0  0  0  0  0  0  0  0  0  0  0  0
    0.8079   -2.9933    4.7046 H   0  0  0  0  0  0  0  0  0  0  0  0
   -1.0774   -0.3787    5.8339 H   0  0  0  0  0  0  0  0  0  0  0  0
    2.1180   -2.0878    6.1285 H   0  0  0  0  0  0  0  0  0  0  0  0
    4.2431   -1.1822    5.2655 H   0  0  0  0  0  0  0  0  0  0  0  0
   -0.0086    1.1204    4.1743 H   0  0  0  0  0  0  0  0  0  0  0  0
    2.9711    4.0631    2.9298 H   0  0  0  0  0  0  0  0  0  0  0  0
    2.9788    0.2952    1.6854 H   0  0  0  0  0  0  0  0  0  0  0  0
    3.4829    0.4233   -0.6733 H   0  0  0  0  0  0  0  0  0  0  0  0
    7.4988    1.7985    0.2365 H   0  0  0  0  0  0  0  0  0  0  0  0
    8.9716    2.4325    4.4888 H   0  0  0  0  0  0  0  0  0  0  0  0
    6.4214    1.9070    7.9915 H   0  0  0  0  0  0  0  0  0  0  0  0
    4.5468    1.2202    6.5230 H   0  0  0  0  0  0  0  0  0  0  0  0
    5.1114    0.9244   -2.2280 H   0  0  0  0  0  0  0  0  0  0  0  0
  1  2  2  0
  1  3  2  0
  1  4  1  0
  1  5  1  0
  4 42  1  0
  4 43  1  0
  5  6  2  0
  5 10  1  0
  6  7  1  0
  6 44  1  0
  7  8  2  0
  7 45  1  0
  8  9  1  0
  8 11  1  0
  9 10  2  0
  9 46  1  0
 10 47  1  0
 11 12  1  0
 11 48  1  0
 11 49  1  0
 12 13  1  0
 12 50  1  0
 12 51  1  0
 13 14  1  0
 13 52  1  0
 14 15  2  0
 14 16  1  0
 16 17  1  0
 16 53  1  0
 17 18  2  0
 17 22  1  0
 18 19  1  0
 18 54  1  0
 19 20  2  0
 19 55  1  0
 20 21  1  0
 20 26  1  0
 21 22  2  0
 21 23  1  0
 22 56  1  0
 23 24  2  0
 23 25  1  0
 25 57  1  0
 26 27  1  0
 26 40  2  0
 27 28  2  0
 27 32  1  0
 28 29  1  0
 28 58  1  0
 29 30  2  0
 29 59  1  0
 30 31  1  0
 30 41  1  0
 31 32  2  0
 31 60  1  0
 32 33  1  0
 33 34  1  0
 34 35  2  0
 34 40  1  0
 35 36  1  0
 35 61  1  0
 36 37  2  0
 36 38  1  0
 38 39  2  0
 38 62  1  0
 39 40  1  0
 39 63  1  0
 41 64  1  0
M  END

