rmsd237.gzmat
 OpenBabel08211713423D

 61 65  0  0  1  0  0  0  0  0999 V2000
    0.0000    0.0000    0.0000 N   0  0  0  0  0  0  0  0  0  0  0  0
    1.3459    0.0000    0.0000 C   0  0  0  0  0  0  0  0  0  0  0  0
    2.1121    0.0000    1.1673 C   0  0  0  0  0  0  0  0  0  0  0  0
    1.4572   -0.0043    2.4147 C   0  0  0  0  0  0  0  0  0  0  0  0
    0.0452   -0.0021    2.4115 C   0  0  0  0  0  0  0  0  0  0  0  0
   -0.6298   -0.0025    1.1924 C   0  0  0  0  0  0  0  0  0  0  0  0
    2.1486   -0.1314    3.6304 N   0  0  0  0  0  0  0  0  0  0  0  0
    3.6229   -0.0690    3.6007 C   0  0  0  0  0  0  0  0  0  0  0  0
    4.1448    1.3752    3.4990 C   0  0  0  0  0  0  0  0  0  0  0  0
    3.6086    2.2001    4.6794 C   0  0  2  0  0  0  0  0  0  0  0  0
    4.0255    1.8104    5.6377 H   0  0  0  0  0  0  0  0  0  0  0  0
    2.0759    2.1107    4.7353 C   0  0  0  0  0  0  0  0  0  0  0  0
    1.6300    0.6387    4.7818 C   0  0  0  0  0  0  0  0  0  0  0  0
    4.0084    3.6557    4.4874 C   0  0  0  0  0  0  0  0  0  0  0  0
    3.1989    4.5015    4.1645 O   0  0  0  0  0  0  0  0  0  0  0  0
    5.3603    3.9981    4.5666 N   0  0  0  0  0  0  0  0  0  0  0  0
    5.6892    5.4322    4.4786 C   0  0  0  0  0  0  0  0  0  0  0  0
    5.7653    6.0686    5.8883 C   0  0  0  0  0  0  0  0  0  0  0  0
    6.6881    5.3506    6.7877 N   0  0  0  0  0  0  0  0  0  0  0  0
    6.3599    3.9163    6.8416 C   0  0  0  0  0  0  0  0  0  0  0  0
    6.2933    3.2676    5.4319 C   0  0  0  0  0  0  0  0  0  0  0  0
    8.3939    5.7399    6.6129 S   0  0  0  0  0  0  0  0  0  0  0  0
    9.1022    4.4780    6.6141 O   0  0  0  0  0  0  0  0  0  0  0  0
    8.5034    6.6741    5.5173 O   0  0  0  0  0  0  0  0  0  0  0  0
    8.7538    6.5791    8.1144 C   0  0  0  0  0  0  0  0  0  0  0  0
    9.2839    5.8956    9.1788 C   0  0  0  0  0  0  0  0  0  0  0  0
    9.5677    6.5750   10.3957 C   0  0  0  0  0  0  0  0  0  0  0  0
    9.2997    7.9596   10.4919 C   0  0  0  0  0  0  0  0  0  0  0  0
    8.7601    8.6442    9.3689 C   0  0  0  0  0  0  0  0  0  0  0  0
    8.4962    7.9692    8.2046 C   0  0  0  0  0  0  0  0  0  0  0  0
    9.5801    8.6403   11.7094 C   0  0  0  0  0  0  0  0  0  0  0  0
   10.1020    7.9290   12.7531 C   0  0  0  0  0  0  0  0  0  0  0  0
   10.3811    6.5458   12.6827 C   0  0  0  0  0  0  0  0  0  0  0  0
   10.1150    5.8826   11.5132 C   0  0  0  0  0  0  0  0  0  0  0  0
   10.4425    8.7319   14.2219 Cl  0  0  0  0  0  0  0  0  0  0  0  0
    1.8177    0.0071   -0.9905 H   0  0  0  0  0  0  0  0  0  0  0  0
    3.1923    0.0117    1.0920 H   0  0  0  0  0  0  0  0  0  0  0  0
   -0.5170   -0.0215    3.3381 H   0  0  0  0  0  0  0  0  0  0  0  0
   -1.7256   -0.0041    1.1459 H   0  0  0  0  0  0  0  0  0  0  0  0
    4.0128   -0.6953    2.7696 H   0  0  0  0  0  0  0  0  0  0  0  0
    3.9909   -0.5497    4.5372 H   0  0  0  0  0  0  0  0  0  0  0  0
    5.2492    1.3864    3.4737 H   0  0  0  0  0  0  0  0  0  0  0  0
    3.8197    1.8322    2.5412 H   0  0  0  0  0  0  0  0  0  0  0  0
    1.6854    2.6636    5.6088 H   0  0  0  0  0  0  0  0  0  0  0  0
    1.6347    2.6201    3.8513 H   0  0  0  0  0  0  0  0  0  0  0  0
    2.0010    0.1436    5.7079 H   0  0  0  0  0  0  0  0  0  0  0  0
    0.5219    0.5726    4.8221 H   0  0  0  0  0  0  0  0  0  0  0  0
    4.9274    5.9603    3.8587 H   0  0  0  0  0  0  0  0  0  0  0  0
    6.6596    5.5384    3.9398 H   0  0  0  0  0  0  0  0  0  0  0  0
    6.0576    7.1387    5.8027 H   0  0  0  0  0  0  0  0  0  0  0  0
    4.7550    6.0575    6.3623 H   0  0  0  0  0  0  0  0  0  0  0  0
    7.0977    3.3694    7.4712 H   0  0  0  0  0  0  0  0  0  0  0  0
    5.3747    3.8168    7.3531 H   0  0  0  0  0  0  0  0  0  0  0  0
    7.3031    3.2855    4.9511 H   0  0  0  0  0  0  0  0  0  0  0  0
    6.0209    2.1973    5.5127 H   0  0  0  0  0  0  0  0  0  0  0  0
    9.5102    4.8231    9.1224 H   0  0  0  0  0  0  0  0  0  0  0  0
    8.5643    9.7123    9.4512 H   0  0  0  0  0  0  0  0  0  0  0  0
    8.0966    8.5089    7.3382 H   0  0  0  0  0  0  0  0  0  0  0  0
    9.3751    9.7085   11.7816 H   0  0  0  0  0  0  0  0  0  0  0  0
   10.8006    6.0278   13.5464 H   0  0  0  0  0  0  0  0  0  0  0  0
   10.3200    4.8148   11.4207 H   0  0  0  0  0  0  0  0  0  0  0  0
  1  2  2  0  0  0  0
  1  6  2  0  0  0  0
  2  3  1  0  0  0  0
  3  4  1  0  0  0  0
  4  7  1  0  0  0  0
  5  4  2  0  0  0  0
  5 38  1  0  0  0  0
  6  5  1  0  0  0  0
  7 13  1  0  0  0  0
  8  7  1  0  0  0  0
  8 41  1  0  0  0  0
  9  8  1  0  0  0  0
  9 10  1  0  0  0  0
 10 12  1  0  0  0  0
 10 11  1  1  0  0  0
 12 13  1  0  0  0  0
 12 44  1  0  0  0  0
 13 47  1  0  0  0  0
 13 46  1  0  0  0  0
 14 16  1  0  0  0  0
 14 10  1  0  0  0  0
 15 14  2  0  0  0  0
 16 21  1  0  0  0  0
 17 16  1  0  0  0  0
 17 18  1  0  0  0  0
 18 51  1  0  0  0  0
 18 19  1  0  0  0  0
 19 20  1  0  0  0  0
 20 53  1  0  0  0  0
 20 52  1  0  0  0  0
 21 55  1  0  0  0  0
 21 20  1  0  0  0  0
 22 23  2  0  0  0  0
 22 19  1  0  0  0  0
 22 25  1  0  0  0  0
 24 22  2  0  0  0  0
 25 30  2  0  0  0  0
 25 26  1  0  0  0  0
 26 27  2  0  0  0  0
 27 28  1  0  0  0  0
 27 34  1  0  0  0  0
 28 31  1  0  0  0  0
 29 57  1  0  0  0  0
 29 28  2  0  0  0  0
 30 29  1  0  0  0  0
 31 59  1  0  0  0  0
 31 32  2  0  0  0  0
 32 35  1  0  0  0  0
 33 32  1  0  0  0  0
 33 60  1  0  0  0  0
 34 33  2  0  0  0  0
 36  2  1  0  0  0  0
 37  3  1  0  0  0  0
 39  6  1  0  0  0  0
 40  8  1  0  0  0  0
 42  9  1  0  0  0  0
 43  9  1  0  0  0  0
 45 12  1  0  0  0  0
 48 17  1  0  0  0  0
 49 17  1  0  0  0  0
 50 18  1  0  0  0  0
 54 21  1  0  0  0  0
 56 26  1  0  0  0  0
 58 30  1  0  0  0  0
 61 34  1  0  0  0  0
M  RAD  1   3   2
M  END
$$$$
