61
rmsd110.gzmat
N          0.00000        0.00000        0.00000
C          1.34680        0.00000        0.00000
C          2.11200        0.00000        1.16670
C          1.45840       -0.00880        2.41600
C          0.04690       -0.00480        2.41220
C         -0.62850       -0.00290        1.19210
N          2.16140       -0.14420        3.62330
C          3.62720        0.04280        3.59640
C          4.01590        1.52950        3.55370
C          3.41660        2.25470        4.76920
H          3.90220        1.86090        5.69330
C          1.89870        2.02620        4.83470
C          1.59390        0.51570        4.81720
C          3.66360        3.74670        4.60720
O          3.59010        4.28490        3.52060
N          4.09150        4.48660        5.71000
C          4.20560        5.94540        5.53080
C          2.89850        6.65480        5.96230
N          2.49540        6.31120        7.33870
C          2.41610        4.85260        7.51560
C          3.71820        4.12470        7.08200
S          3.29490        7.20640        8.62300
O          3.55830        6.25540        9.68100
O          4.35220        7.97670        8.01180
C          2.02620        8.29980        9.15400
C          1.23400        7.96990       10.22350
C          0.18500        8.83910       10.63160
C         -0.02830       10.04310        9.92240
C          0.82200       10.36870        8.83050
C          1.83030        9.51750        8.45750
C         -1.08840       10.90540       10.31800
C         -1.86570       10.54320       11.38210
C         -1.66880        9.35040       12.11290
C         -0.65210        8.51200       11.73600
Cl        -3.14390       11.56740       11.86720
H          1.81900        0.00670       -0.99090
H          3.19280        0.01420        1.09100
H         -0.51820       -0.02160        3.33630
H         -1.72450       -0.00180        1.14730
H          4.06600       -0.51200        2.73970
H          4.03950       -0.44430        4.51010
H          5.11420        1.64610        3.53390
H          3.64970        1.99990        2.61480
H          1.46540        2.49260        5.73550
H          1.40690        2.51690        3.96780
H          2.03020        0.01830        5.71370
H          0.49900        0.33960        4.87410
H          4.43880        6.18220        4.46670
H          5.07300        6.30780        6.13100
H          3.01250        7.75560        5.85180
H          2.06550        6.35690        5.28160
H          2.18130        4.59850        8.57490
H          1.55570        4.48950        6.90640
H          4.56210        4.40900        7.75800
H          3.59990        3.02870        7.19430
H          1.38680        7.04290       10.79080
H          0.65780       11.30530        8.29950
H          2.49260        9.78530        7.62640
H         -1.25780       11.82980        9.76570
H         -2.31800        9.11280       12.95700
H         -0.46810        7.58230       12.27680
