rmsd249.gzmat
 OpenBabel08211713423D

 61 65  0  0  1  0  0  0  0  0999 V2000
    0.0000    0.0000    0.0000 N   0  0  0  0  0  0  0  0  0  0  0  0
    1.3467    0.0000    0.0000 C   0  0  0  0  0  0  0  0  0  0  0  0
    2.1123    0.0000    1.1665 C   0  0  0  0  0  0  0  0  0  0  0  0
    1.4599   -0.0103    2.4172 C   0  0  0  0  0  0  0  0  0  0  0  0
    0.0484   -0.0077    2.4121 C   0  0  0  0  0  0  0  0  0  0  0  0
   -0.6273   -0.0050    1.1928 C   0  0  0  0  0  0  0  0  0  0  0  0
    2.1742   -0.1449    3.6167 N   0  0  0  0  0  0  0  0  0  0  0  0
    3.6101    0.2038    3.6066 C   0  0  0  0  0  0  0  0  0  0  0  0
    3.8244    1.7275    3.6419 C   0  0  0  0  0  0  0  0  0  0  0  0
    3.1571    2.3126    4.8969 C   0  0  2  0  0  0  0  0  0  0  0  0
    3.6677    1.9308    5.8120 H   0  0  0  0  0  0  0  0  0  0  0  0
    1.6766    1.9044    4.9533 C   0  0  0  0  0  0  0  0  0  0  0  0
    1.5473    0.3756    4.8510 C   0  0  0  0  0  0  0  0  0  0  0  0
    3.2477    3.8303    4.8389 C   0  0  0  0  0  0  0  0  0  0  0  0
    2.2802    4.5181    4.5836 O   0  0  0  0  0  0  0  0  0  0  0  0
    4.5032    4.4313    4.9597 N   0  0  0  0  0  0  0  0  0  0  0  0
    4.5348    5.9047    4.9904 C   0  0  0  0  0  0  0  0  0  0  0  0
    4.4767    6.4298    6.4460 C   0  0  0  0  0  0  0  0  0  0  0  0
    5.5146    5.8368    7.3099 N   0  0  0  0  0  0  0  0  0  0  0  0
    5.4821    4.3665    7.2417 C   0  0  0  0  0  0  0  0  0  0  0  0
    5.5648    3.8397    5.7823 C   0  0  0  0  0  0  0  0  0  0  0  0
    7.1103    6.5693    7.2202 S   0  0  0  0  0  0  0  0  0  0  0  0
    8.0442    5.4963    6.9583 O   0  0  0  0  0  0  0  0  0  0  0  0
    6.9987    7.7130    6.3452 O   0  0  0  0  0  0  0  0  0  0  0  0
    7.3479    7.1406    8.8647 C   0  0  0  0  0  0  0  0  0  0  0  0
    6.8484    8.3580    9.2508 C   0  0  0  0  0  0  0  0  0  0  0  0
    7.0248    8.8125   10.5868 C   0  0  0  0  0  0  0  0  0  0  0  0
    7.7211    7.9967   11.5070 C   0  0  0  0  0  0  0  0  0  0  0  0
    8.2387    6.7446   11.0754 C   0  0  0  0  0  0  0  0  0  0  0  0
    8.0583    6.3276    9.7817 C   0  0  0  0  0  0  0  0  0  0  0  0
    7.8945    8.4479   12.8450 C   0  0  0  0  0  0  0  0  0  0  0  0
    7.3827    9.6649   13.1978 C   0  0  0  0  0  0  0  0  0  0  0  0
    6.6859   10.5009   12.2974 C   0  0  0  0  0  0  0  0  0  0  0  0
    6.5118   10.0726   11.0070 C   0  0  0  0  0  0  0  0  0  0  0  0
    7.5850   10.2203   14.8006 Cl  0  0  0  0  0  0  0  0  0  0  0  0
    1.8188    0.0059   -0.9906 H   0  0  0  0  0  0  0  0  0  0  0  0
    3.1925    0.0043    1.0900 H   0  0  0  0  0  0  0  0  0  0  0  0
   -0.5191   -0.0166    3.3353 H   0  0  0  0  0  0  0  0  0  0  0  0
   -1.7237   -0.0026    1.1482 H   0  0  0  0  0  0  0  0  0  0  0  0
    4.1104   -0.2501    2.7249 H   0  0  0  0  0  0  0  0  0  0  0  0
    4.0768   -0.2781    4.4962 H   0  0  0  0  0  0  0  0  0  0  0  0
    4.9021    1.9689    3.6144 H   0  0  0  0  0  0  0  0  0  0  0  0
    3.3904    2.1922    2.7318 H   0  0  0  0  0  0  0  0  0  0  0  0
    1.2055    2.2761    5.8806 H   0  0  0  0  0  0  0  0  0  0  0  0
    1.1159    2.3950    4.1281 H   0  0  0  0  0  0  0  0  0  0  0  0
    2.0463   -0.1207    5.7142 H   0  0  0  0  0  0  0  0  0  0  0  0
    0.4819    0.0656    4.9030 H   0  0  0  0  0  0  0  0  0  0  0  0
    3.6822    6.3158    4.4008 H   0  0  0  0  0  0  0  0  0  0  0  0
    5.4636    6.2455    4.4779 H   0  0  0  0  0  0  0  0  0  0  0  0
    4.5545    7.5405    6.4492 H   0  0  0  0  0  0  0  0  0  0  0  0
    3.4843    6.1843    6.8938 H   0  0  0  0  0  0  0  0  0  0  0  0
    6.3061    3.9281    7.8476 H   0  0  0  0  0  0  0  0  0  0  0  0
    4.5307    4.0293    7.7149 H   0  0  0  0  0  0  0  0  0  0  0  0
    6.5518    4.1112    5.3295 H   0  0  0  0  0  0  0  0  0  0  0  0
    5.5236    2.7337    5.7656 H   0  0  0  0  0  0  0  0  0  0  0  0
    6.3131    9.0119    8.5514 H   0  0  0  0  0  0  0  0  0  0  0  0
    8.7819    6.1283   11.7902 H   0  0  0  0  0  0  0  0  0  0  0  0
    8.4746    5.3680    9.4524 H   0  0  0  0  0  0  0  0  0  0  0  0
    8.4300    7.8172   13.5545 H   0  0  0  0  0  0  0  0  0  0  0  0
    6.3004   11.4651   12.6323 H   0  0  0  0  0  0  0  0  0  0  0  0
    5.9790   10.6907   10.2826 H   0  0  0  0  0  0  0  0  0  0  0  0
  1  6  2  0  0  0  0
  2  1  2  0  0  0  0
  2  3  1  0  0  0  0
  3  4  1  0  0  0  0
  4  7  1  0  0  0  0
  5  4  2  0  0  0  0
  5 38  1  0  0  0  0
  6  5  1  0  0  0  0
  7 13  1  0  0  0  0
  8  7  1  0  0  0  0
  8  9  1  0  0  0  0
  8 41  1  0  0  0  0
  9 10  1  0  0  0  0
 10 12  1  0  0  0  0
 10 11  1  1  0  0  0
 12 44  1  0  0  0  0
 13 47  1  0  0  0  0
 13 12  1  0  0  0  0
 13 46  1  0  0  0  0
 14 10  1  0  0  0  0
 14 16  1  0  0  0  0
 15 14  2  0  0  0  0
 16 17  1  0  0  0  0
 16 21  1  0  0  0  0
 17 18  1  0  0  0  0
 18 50  1  0  0  0  0
 18 51  1  0  0  0  0
 18 19  1  0  0  0  0
 20 19  1  0  0  0  0
 20 53  1  0  0  0  0
 20 52  1  0  0  0  0
 21 20  1  0  0  0  0
 22 19  1  0  0  0  0
 22 25  1  0  0  0  0
 23 22  2  0  0  0  0
 24 22  2  0  0  0  0
 25 26  2  0  0  0  0
 25 30  1  0  0  0  0
 26 27  1  0  0  0  0
 27 34  2  0  0  0  0
 27 28  1  0  0  0  0
 28 31  2  0  0  0  0
 29 28  1  0  0  0  0
 29 57  1  0  0  0  0
 30 29  2  0  0  0  0
 31 32  1  0  0  0  0
 31 59  1  0  0  0  0
 32 35  1  0  0  0  0
 33 60  1  0  0  0  0
 33 32  2  0  0  0  0
 34 33  1  0  0  0  0
 36  2  1  0  0  0  0
 37  3  1  0  0  0  0
 39  6  1  0  0  0  0
 40  8  1  0  0  0  0
 42  9  1  0  0  0  0
 43  9  1  0  0  0  0
 45 12  1  0  0  0  0
 48 17  1  0  0  0  0
 49 17  1  0  0  0  0
 54 21  1  0  0  0  0
 55 21  1  0  0  0  0
 56 26  1  0  0  0  0
 58 30  1  0  0  0  0
 61 34  1  0  0  0  0
M  RAD  1   3   2
M  END
$$$$
