61

N         -0.80260       -0.46660        0.97740
C          0.45750       -0.50640        0.53640
C          1.58630       -0.37120        1.34100
C          1.43790       -0.18680        2.73620
C          0.10030       -0.13190        3.19530
C         -0.94900       -0.27970        2.29180
N          2.52270       -0.09600        3.59440
C          3.86520        0.14660        3.07700
C          4.13360        1.64640        2.92360
C          3.93100        2.37100        4.26200
H          4.71800        2.02190        4.95250
C          2.56190        2.00680        4.87830
C          2.37340        0.48570        4.92160
C          4.03570        3.88710        4.07620
O          3.84360        4.39260        2.98020
N          4.29540        4.65570        5.18710
C          4.60900        4.18410        6.52910
C          5.97540        4.72500        6.97050
N          6.07440        6.17770        6.81340
C          5.69900        6.64520        5.47130
C          4.33230        6.10970        5.04970
S          5.49920        7.09210        8.11810
O          5.42990        8.47550        7.64390
O          4.32450        6.45050        8.72820
C          6.84540        6.93830        9.28610
C          8.03060        7.59110        9.02160
C          9.10520        7.49340        9.93890
C          8.93380        6.71750       11.13560
C          7.68720        6.07410       11.36960
C          6.65280        6.18120       10.46540
C         10.01210        6.61780       12.05510
C         11.20190        7.26150       11.79340
C         11.38290        8.03320       10.61580
C         10.35130        8.14280        9.71280
Cl        12.52660        7.13950       12.92060
H          0.59330       -0.65090       -0.54240
H          2.56610       -0.40780        0.86880
H         -0.13960        0.01750        4.24660
H         -1.97870       -0.23930        2.66790
H          4.01440       -0.38550        2.13120
H          4.58070       -0.29440        3.79340
H          5.15650        1.81980        2.55260
H          3.45030        2.07710        2.17700
H          2.46120        2.43080        5.89030
H          1.76370        2.45210        4.26150
H          3.14120        0.03530        5.57500
H          1.40450        0.21920        5.35750
H          4.62070        3.09000        6.56460
H          3.84310        4.54190        7.23700
H          6.17800        4.45410        8.01690
H          6.77070        4.27560        6.35170
H          5.71250        7.74190        5.46630
H          6.47510        6.28340        4.77630
H          3.55110        6.55800        5.68930
H          4.11530        6.35130        4.00260
H          8.14120        8.18290        8.11110
H          7.55640        5.49390       12.28590
H          5.68580        5.70760       10.63790
H          9.89440        6.03210       12.96790
H         12.33920        8.52910       10.44570
H         10.48060        8.73580        8.80430
