61
rmsd75.gzmat
N          0.00000        0.00000        0.00000
C          1.34680        0.00000        0.00000
C          2.11220        0.00000        1.16700
C          1.45800       -0.00950        2.41570
C          0.04620       -0.00060        2.41230
C         -0.62880       -0.00020        1.19210
N          2.15750       -0.15570        3.62320
C          3.63060       -0.04800        3.59310
C          4.10530        1.41380        3.55990
C          3.54730        2.15950        4.78190
H          3.99560        1.71600        5.70280
C          2.01760        2.03110        4.82670
C          1.62020        0.54170        4.80880
C          3.90200        3.63320        4.65830
O          3.93860        4.18920        3.57880
N          4.30260        4.32660        5.79990
C          4.52620        5.77670        5.66310
C          3.25430        6.56990        6.05240
N          2.75780        6.22340        7.39700
C          2.56400        4.77070        7.52640
C          3.83260        3.96040        7.14050
S          3.55900        7.01950        8.74400
O          3.53630        6.07320        9.83800
O          4.79560        7.57620        8.24720
C          2.45720        8.33830        9.10830
C          1.42120        8.15190        9.98720
C          0.52220        9.21740       10.26910
C          0.71310       10.46720        9.63730
C          1.80340       10.63500        8.74030
C          2.65790        9.59390        8.48330
C         -0.18820       11.53240        9.91430
C         -1.21600       11.31190       10.78760
C         -1.42790       10.07400       11.43400
C         -0.56380        9.04250       11.17300
Cl        -2.30620       12.58180       11.12880
H          1.81950        0.00470       -0.99050
H          3.19280        0.01500        1.09130
H         -0.51940       -0.01710        3.33640
H         -1.72490       -0.00090        1.14680
H          4.03550       -0.62200        2.73250
H          4.01760       -0.56320        4.50320
H          5.20870        1.46810        3.54160
H          3.76950        1.91330        2.62540
H          1.60240        2.52580        5.72050
H          1.56920        2.54950        3.95290
H          2.01670        0.02150        5.71090
H          0.51580        0.43460        4.85460
H          4.82350        6.01980        4.61670
H          5.38760        6.06300        6.31250
H          3.45290        7.66110        5.97910
H          2.43690        6.35210        5.32390
H          2.25320        4.50850        8.56440
H          1.71420        4.48740        6.86270
H          4.65920        4.16580        7.86420
H          3.63050        2.87360        7.21760
H          1.26130        7.19410       10.49750
H          1.94630       11.60450        8.26550
H          3.50610        9.73710        7.80300
H         -0.04030       12.49570        9.42580
H         -2.26370        9.95330       12.12480
H         -0.69440        8.07200       11.65390
