61

N          0.68150        0.01820       -0.38660
C          1.82580       -0.49510        0.07280
C          2.21990       -0.49040        1.40860
C          1.37440        0.08000        2.38950
C          0.16950        0.63380        1.89480
C         -0.11510        0.56900        0.53330
N          1.68860        0.07120        3.73950
C          3.04050       -0.24480        4.18940
C          3.92130        1.00730        4.20950
C          3.29750        2.09500        5.09730
H          3.32410        1.73360        6.13920
C          1.82080        2.33140        4.70910
C          1.05100        1.00600        4.65610
C          4.08990        3.39950        4.97690
O          4.71420        3.65150        3.95670
N          4.05130        4.27970        6.03280
C          4.75070        5.55680        5.91540
C          3.75680        6.71290        6.01390
N          2.92780        6.61180        7.22330
C          2.27810        5.30860        7.37890
C          3.27540        4.14850        7.25850
S          3.56900        7.27920        8.64090
O          4.10050        6.22670        9.52030
O          4.41750        8.39530        8.21960
C          2.09650        7.92840        9.41300
C          1.68630        7.40830       10.61910
C          0.52960        7.93360       11.25420
C         -0.18680        9.00350       10.62200
C          0.28560        9.51350        9.37710
C          1.40840        8.99360        8.77860
C         -1.34450        9.52780       11.25320
C         -1.76620        9.00880       12.45960
C         -1.06530        7.95330       13.09540
C          0.06020        7.43140       12.49800
Cl        -3.18900        9.65240       13.23560
H          2.49420       -0.94330       -0.67260
H          3.18310       -0.92650        1.66620
H         -0.55650        1.10770        2.55330
H         -1.05680        0.99870        0.17000
H          3.47780       -1.03250        3.56610
H          2.96000       -0.66750        5.20630
H          4.93230        0.76150        4.57190
H          4.03740        1.40350        3.19000
H          1.33390        3.02120        5.41760
H          1.78550        2.80990        3.71630
H          1.04110        0.54260        5.65820
H          0.00310        1.16840        4.38170
H          5.27480        5.56370        4.95250
H          5.49280        5.64310        6.72880
H          4.27470        7.67970        6.02430
H          3.07100        6.69310        5.15050
H          1.75910        5.27210        8.34770
H          1.51280        5.22960        6.58820
H          3.95210        4.17900        8.12830
H          2.73730        3.19530        7.27990
H          2.25500        6.59940       11.08100
H         -0.25910       10.33360        8.90360
H          1.77860        9.38460        7.83020
H         -1.89840       10.34170       10.78320
H         -1.42820        7.57090       14.05010
H          0.60840        6.61900       12.98090
