rmsd175.gzmat
 OpenBabel08211713423D

 61 65  0  0  1  0  0  0  0  0999 V2000
    0.0000    0.0000    0.0000 N   0  0  0  0  0  0  0  0  0  0  0  0
    1.3467    0.0000    0.0000 C   0  0  0  0  0  0  0  0  0  0  0  0
    2.1124    0.0000    1.1665 C   0  0  0  0  0  0  0  0  0  0  0  0
    1.4589   -0.0127    2.4157 C   0  0  0  0  0  0  0  0  0  0  0  0
    0.0469   -0.0060    2.4121 C   0  0  0  0  0  0  0  0  0  0  0  0
   -0.6281   -0.0031    1.1924 C   0  0  0  0  0  0  0  0  0  0  0  0
    2.1571   -0.1610    3.6221 N   0  0  0  0  0  0  0  0  0  0  0  0
    3.6295   -0.0411    3.6016 C   0  0  0  0  0  0  0  0  0  0  0  0
    4.0957    1.4242    3.6158 C   0  0  0  0  0  0  0  0  0  0  0  0
    3.5267    2.1260    4.8588 C   0  0  2  0  0  0  0  0  0  0  0  0
    3.9617    1.6446    5.7677 H   0  0  0  0  0  0  0  0  0  0  0  0
    1.9964    1.9964    4.8762 C   0  0  0  0  0  0  0  0  0  0  0  0
    1.6055    0.5061    4.8181 C   0  0  0  0  0  0  0  0  0  0  0  0
    3.8890    3.6021    4.8041 C   0  0  0  0  0  0  0  0  0  0  0  0
    3.9802    4.1967    3.7488 O   0  0  0  0  0  0  0  0  0  0  0  0
    4.2325    4.2515    5.9890 N   0  0  0  0  0  0  0  0  0  0  0  0
    4.4600    5.7062    5.9224 C   0  0  0  0  0  0  0  0  0  0  0  0
    3.1803    6.4878    6.3114 C   0  0  0  0  0  0  0  0  0  0  0  0
    2.6348    6.0752    7.6179 N   0  0  0  0  0  0  0  0  0  0  0  0
    2.4266    4.6185    7.6594 C   0  0  0  0  0  0  0  0  0  0  0  0
    3.7112    3.8264    7.2928 C   0  0  0  0  0  0  0  0  0  0  0  0
    3.3996    6.7769    9.0372 S   0  0  0  0  0  0  0  0  0  0  0  0
    3.6151    5.6838    9.9603 O   0  0  0  0  0  0  0  0  0  0  0  0
    4.4853    7.6073    8.5712 O   0  0  0  0  0  0  0  0  0  0  0  0
    2.1315    7.8072    9.6829 C   0  0  0  0  0  0  0  0  0  0  0  0
    1.2006    7.2951   10.5501 C   0  0  0  0  0  0  0  0  0  0  0  0
    0.1671    8.1261   11.0629 C   0  0  0  0  0  0  0  0  0  0  0  0
    0.1171    9.4840   10.6737 C   0  0  0  0  0  0  0  0  0  0  0  0
    1.1034    9.9905    9.7840 C   0  0  0  0  0  0  0  0  0  0  0  0
    2.0901    9.1701    9.3002 C   0  0  0  0  0  0  0  0  0  0  0  0
   -0.9176   10.3170   11.1838 C   0  0  0  0  0  0  0  0  0  0  0  0
   -1.8357    9.7738   12.0378 C   0  0  0  0  0  0  0  0  0  0  0  0
   -1.8078    8.4209   12.4433 C   0  0  0  0  0  0  0  0  0  0  0  0
   -0.8135    7.6117   11.9580 C   0  0  0  0  0  0  0  0  0  0  0  0
   -3.0846   10.7602   12.6585 Cl  0  0  0  0  0  0  0  0  0  0  0  0
    1.8183    0.0057   -0.9909 H   0  0  0  0  0  0  0  0  0  0  0  0
    3.1929    0.0176    1.0913 H   0  0  0  0  0  0  0  0  0  0  0  0
   -0.5177   -0.0260    3.3364 H   0  0  0  0  0  0  0  0  0  0  0  0
   -1.7240   -0.0037    1.1476 H   0  0  0  0  0  0  0  0  0  0  0  0
    4.0437   -0.5859    2.7265 H   0  0  0  0  0  0  0  0  0  0  0  0
    4.0147   -0.5810    4.4982 H   0  0  0  0  0  0  0  0  0  0  0  0
    5.1992    1.4842    3.6046 H   0  0  0  0  0  0  0  0  0  0  0  0
    3.7625    1.9513    2.6961 H   0  0  0  0  0  0  0  0  0  0  0  0
    1.5640    2.4690    5.7739 H   0  0  0  0  0  0  0  0  0  0  0  0
    1.5617    2.5343    4.0076 H   0  0  0  0  0  0  0  0  0  0  0  0
    1.9964   -0.0341    5.7111 H   0  0  0  0  0  0  0  0  0  0  0  0
    0.5009    0.3942    4.8524 H   0  0  0  0  0  0  0  0  0  0  0  0
    4.7872    5.9944    4.8963 H   0  0  0  0  0  0  0  0  0  0  0  0
    5.3049    5.9611    6.6041 H   0  0  0  0  0  0  0  0  0  0  0  0
    3.3893    7.5807    6.3048 H   0  0  0  0  0  0  0  0  0  0  0  0
    2.3863    6.3167    5.5458 H   0  0  0  0  0  0  0  0  0  0  0  0
    2.0655    4.3024    8.6638 H   0  0  0  0  0  0  0  0  0  0  0  0
    1.6091    4.3774    6.9407 H   0  0  0  0  0  0  0  0  0  0  0  0
    4.5054    4.0030    8.0609 H   0  0  0  0  0  0  0  0  0  0  0  0
    3.5101    2.7374    7.3167 H   0  0  0  0  0  0  0  0  0  0  0  0
    1.2288    6.2485   10.8772 H   0  0  0  0  0  0  0  0  0  0  0  0
    1.0610   11.0404    9.4980 H   0  0  0  0  0  0  0  0  0  0  0  0
    2.8558    9.5721    8.6254 H   0  0  0  0  0  0  0  0  0  0  0  0
   -0.9536   11.3646   10.8841 H   0  0  0  0  0  0  0  0  0  0  0  0
   -2.5661    8.0399   13.1289 H   0  0  0  0  0  0  0  0  0  0  0  0
   -0.7589    6.5622   12.2513 H   0  0  0  0  0  0  0  0  0  0  0  0
  1  6  2  0  0  0  0
  2  1  2  0  0  0  0
  2  3  1  0  0  0  0
  3  4  1  0  0  0  0
  4  7  1  0  0  0  0
  5  4  2  0  0  0  0
  5 38  1  0  0  0  0
  6  5  1  0  0  0  0
  7 13  1  0  0  0  0
  8  9  1  0  0  0  0
  8  7  1  0  0  0  0
  8 41  1  0  0  0  0
  9 10  1  0  0  0  0
 10 12  1  0  0  0  0
 10 11  1  1  0  0  0
 12 44  1  0  0  0  0
 13 47  1  0  0  0  0
 13 12  1  0  0  0  0
 13 46  1  0  0  0  0
 14 10  1  0  0  0  0
 14 16  1  0  0  0  0
 15 14  2  0  0  0  0
 16 21  1  0  0  0  0
 17 16  1  0  0  0  0
 17 18  1  0  0  0  0
 17 49  1  0  0  0  0
 18 19  1  0  0  0  0
 19 20  1  0  0  0  0
 19 22  1  0  0  0  0
 20 52  1  0  0  0  0
 21 55  1  0  0  0  0
 21 20  1  0  0  0  0
 21 54  1  0  0  0  0
 22 25  1  0  0  0  0
 22 23  2  0  0  0  0
 24 22  2  0  0  0  0
 25 26  1  0  0  0  0
 26 56  1  0  0  0  0
 26 27  2  0  0  0  0
 27 34  1  0  0  0  0
 28 27  1  0  0  0  0
 28 31  1  0  0  0  0
 29 28  2  0  0  0  0
 30 25  2  0  0  0  0
 30 29  1  0  0  0  0
 31 32  2  0  0  0  0
 32 33  1  0  0  0  0
 32 35  1  0  0  0  0
 33 60  1  0  0  0  0
 34 61  1  0  0  0  0
 34 33  2  0  0  0  0
 36  2  1  0  0  0  0
 37  3  1  0  0  0  0
 39  6  1  0  0  0  0
 40  8  1  0  0  0  0
 42  9  1  0  0  0  0
 43  9  1  0  0  0  0
 45 12  1  0  0  0  0
 48 17  1  0  0  0  0
 50 18  1  0  0  0  0
 51 18  1  0  0  0  0
 53 20  1  0  0  0  0
 57 29  1  0  0  0  0
 58 30  1  0  0  0  0
 59 31  1  0  0  0  0
M  RAD  1   3   2
M  END
$$$$
