
     RDKit          3D

 61 65  0  0  0  0  0  0  0  0999 V2000
   -0.5595   -0.5617    0.7772 N   0  0  0  0  0  0  0  0  0  0  0  0
    0.7305   -0.5024    0.4365 C   0  0  0  0  0  0  0  0  0  0  0  0
    1.7812   -0.3099    1.3303 C   0  0  0  0  0  0  0  0  0  0  0  0
    1.5126   -0.1719    2.7127 C   0  0  0  0  0  0  0  0  0  0  0  0
    0.1429   -0.2221    3.0659 C   0  0  0  0  0  0  0  0  0  0  0  0
   -0.8201   -0.4192    2.0796 C   0  0  0  0  0  0  0  0  0  0  0  0
    2.5180   -0.0280    3.6560 N   0  0  0  0  0  0  0  0  0  0  0  0
    3.8817    0.2947    3.2499 C   0  0  0  0  0  0  0  0  0  0  0  0
    4.0782    1.8086    3.1294 C   0  0  0  0  0  0  0  0  0  0  0  0
    3.7306    2.5040    4.4533 C   0  0  0  0  0  0  0  0  0  0  0  0
    4.4781    2.1889    5.2018 H   0  0  0  0  0  0  0  0  0  0  0  0
    2.3385    2.0585    4.9540 C   0  0  0  0  0  0  0  0  0  0  0  0
    2.2301    0.5290    4.9709 C   0  0  0  0  0  0  0  0  0  0  0  0
    3.7668    4.0259    4.2905 C   0  0  0  0  0  0  0  0  0  0  0  0
    3.6400    4.5354    3.1869 O   0  0  0  0  0  0  0  0  0  0  0  0
    3.8897    4.7921    5.4266 N   0  0  0  0  0  0  0  0  0  0  0  0
    4.1063    4.3188    6.7869 C   0  0  0  0  0  0  0  0  0  0  0  0
    5.3881    4.9358    7.3615 C   0  0  0  0  0  0  0  0  0  0  0  0
    5.4064    6.3941    7.2297 N   0  0  0  0  0  0  0  0  0  0  0  0
    5.1317    6.8605    5.8633 C   0  0  0  0  0  0  0  0  0  0  0  0
    3.8482    6.2474    5.3076 C   0  0  0  0  0  0  0  0  0  0  0  0
    4.6633    7.2486    8.4880 S   0  0  0  0  0  0  0  0  0  0  0  0
    4.5143    8.6258    8.0146 O   0  0  0  0  0  0  0  0  0  0  0  0
    3.5047    6.5077    9.0099 O   0  0  0  0  0  0  0  0  0  0  0  0
    5.9366    7.1995    9.7379 C   0  0  0  0  0  0  0  0  0  0  0  0
    5.6945    6.5335   10.9174 C   0  0  0  0  0  0  0  0  0  0  0  0
    6.6923    6.5082   11.9279 C   0  0  0  0  0  0  0  0  0  0  0  0
    7.9356    7.1852   11.6962 C   0  0  0  0  0  0  0  0  0  0  0  0
    8.1326    7.8691   10.4608 C   0  0  0  0  0  0  0  0  0  0  0  0
    7.1544    7.8841    9.4953 C   0  0  0  0  0  0  0  0  0  0  0  0
    8.9351    7.1587   12.7032 C   0  0  0  0  0  0  0  0  0  0  0  0
    8.7034    6.4888   13.8863 C   0  0  0  0  0  0  0  0  0  0  0  0
    7.4781    5.8181   14.1281 C   0  0  0  0  0  0  0  0  0  0  0  0
    6.4963    5.8326   13.1628 C   0  0  0  0  0  0  0  0  0  0  0  0
    9.9314    6.4556   15.1240 Cl  0  0  0  0  0  0  0  0  0  0  0  0
    0.9592   -0.6090   -0.6311 H   0  0  0  0  0  0  0  0  0  0  0  0
    2.7946   -0.2645    0.9362 H   0  0  0  0  0  0  0  0  0  0  0  0
   -0.1872   -0.1188    4.0981 H   0  0  0  0  0  0  0  0  0  0  0  0
   -1.8760   -0.4609    2.3740 H   0  0  0  0  0  0  0  0  0  0  0  0
    4.1352   -0.2181    2.3156 H   0  0  0  0  0  0  0  0  0  0  0  0
    4.5611   -0.1143    4.0186 H   0  0  0  0  0  0  0  0  0  0  0  0
    5.1161    2.0419    2.8425 H   0  0  0  0  0  0  0  0  0  0  0  0
    3.4334    2.2107    2.3342 H   0  0  0  0  0  0  0  0  0  0  0  0
    2.1329    2.4641    5.9576 H   0  0  0  0  0  0  0  0  0  0  0  0
    1.5695    2.4672    4.2777 H   0  0  0  0  0  0  0  0  0  0  0  0
    2.9650    0.1126    5.6821 H   0  0  0  0  0  0  0  0  0  0  0  0
    1.2443    0.2072    5.3236 H   0  0  0  0  0  0  0  0  0  0  0  0
    4.1842    3.2271    6.8116 H   0  0  0  0  0  0  0  0  0  0  0  0
    3.2570    4.6164    7.4242 H   0  0  0  0  0  0  0  0  0  0  0  0
    5.5066    4.6625    8.4199 H   0  0  0  0  0  0  0  0  0  0  0  0
    6.2654    4.5478    6.8164 H   0  0  0  0  0  0  0  0  0  0  0  0
    5.0738    7.9557    5.8722 H   0  0  0  0  0  0  0  0  0  0  0  0
    5.9919    6.5605    5.2419 H   0  0  0  0  0  0  0  0  0  0  0  0
    2.9832    6.6371    5.8739 H   0  0  0  0  0  0  0  0  0  0  0  0
    3.7163    6.4916    4.2470 H   0  0  0  0  0  0  0  0  0  0  0  0
    4.7364    6.0338   11.0698 H   0  0  0  0  0  0  0  0  0  0  0  0
    9.0781    8.3899   10.2925 H   0  0  0  0  0  0  0  0  0  0  0  0
    7.2966    8.4120    8.5516 H   0  0  0  0  0  0  0  0  0  0  0  0
    9.8849    7.6699   12.5397 H   0  0  0  0  0  0  0  0  0  0  0  0
    7.3311    5.3011   15.0771 H   0  0  0  0  0  0  0  0  0  0  0  0
    5.5478    5.3202   13.3403 H   0  0  0  0  0  0  0  0  0  0  0  0
  1  2  2  0
  1  6  1  0
  2  3  1  0
  2 36  1  0
  3  4  2  0
  3 37  1  0
  4  5  1  0
  4  7  1  0
  5  6  2  0
  5 38  1  0
  6 39  1  0
  7  8  1  0
  7 13  1  0
  8  9  1  0
  8 40  1  0
  8 41  1  0
  9 10  1  0
  9 42  1  0
  9 43  1  0
 10 11  1  0
 10 12  1  0
 10 14  1  0
 12 13  1  0
 12 44  1  0
 12 45  1  0
 13 46  1  0
 13 47  1  0
 14 15  2  0
 14 16  1  0
 16 17  1  0
 16 21  1  0
 17 18  1  0
 17 48  1  0
 17 49  1  0
 18 19  1  0
 18 50  1  0
 18 51  1  0
 19 20  1  0
 19 22  1  0
 20 21  1  0
 20 52  1  0
 20 53  1  0
 21 54  1  0
 21 55  1  0
 22 23  2  0
 22 24  2  0
 22 25  1  0
 25 26  2  0
 25 30  1  0
 26 27  1  0
 26 56  1  0
 27 28  2  0
 27 34  1  0
 28 29  1  0
 28 31  1  0
 29 30  2  0
 29 57  1  0
 30 58  1  0
 31 32  2  0
 31 59  1  0
 32 33  1  0
 32 35  1  0
 33 34  2  0
 33 60  1  0
 34 61  1  0
M  END

