
     RDKit          3D

 52 55  0  0  0  0  0  0  0  0999 V2000
    0.0389   -0.3026   -1.9738 Cl  0  0  0  0  0  0  0  0  0  0  0  0
    1.6468   -0.0952   -1.3032 C   0  0  0  0  0  0  0  0  0  0  0  0
    1.7717    0.2312    0.0551 C   0  0  0  0  0  0  0  0  0  0  0  0
    3.0614    0.3933    0.5443 C   0  0  0  0  0  0  0  0  0  0  0  0
    3.5449    0.7103    1.8038 N   0  0  0  0  0  0  0  0  0  0  0  0
    3.0014    0.9012    2.6346 H   0  0  0  0  0  0  0  0  0  0  0  0
    4.9386    0.7631    1.8091 C   0  0  0  0  0  0  0  0  0  0  0  0
    5.6656    1.0331    2.7424 O   0  0  0  0  0  0  0  0  0  0  0  0
    5.3178    0.4548    0.5000 N   0  0  0  0  0  0  0  0  0  0  0  0
    4.1957    0.2329   -0.2880 C   0  0  0  0  0  0  0  0  0  0  0  0
    4.0514   -0.0817   -1.6344 C   0  0  0  0  0  0  0  0  0  0  0  0
    2.7544   -0.2444   -2.1414 C   0  0  0  0  0  0  0  0  0  0  0  0
    6.7023    0.3928    0.0747 C   0  0  0  0  0  0  0  0  0  0  0  0
    7.1707    1.5341   -0.8347 C   0  0  0  0  0  0  0  0  0  0  0  0
    7.2902    2.9445   -0.1944 C   0  0  0  0  0  0  0  0  0  0  0  0
    6.1912    3.8772   -0.3563 N   0  0  0  0  0  0  0  0  0  0  0  0
    5.0136    3.6461    0.4593 C   0  0  0  0  0  0  0  0  0  0  0  0
    4.1314    4.8894    0.4964 C   0  0  0  0  0  0  0  0  0  0  0  0
    3.6958    5.2933   -0.9309 C   0  0  0  0  0  0  0  0  0  0  0  0
    3.1936    6.2741   -0.8771 H   0  0  0  0  0  0  0  0  0  0  0  0
    4.9430    5.4271   -1.8177 C   0  0  0  0  0  0  0  0  0  0  0  0
    5.8714    4.2111   -1.7369 C   0  0  0  0  0  0  0  0  0  0  0  0
    2.6754    4.3051   -1.4954 C   0  0  0  0  0  0  0  0  0  0  0  0
    2.9536    3.5547   -2.4140 O   0  0  0  0  0  0  0  0  0  0  0  0
    1.3096    4.2469   -0.8755 C   0  0  0  0  0  0  0  0  0  0  0  0
    0.8267    5.1907    0.0477 C   0  0  0  0  0  0  0  0  0  0  0  0
   -0.4520    5.0681    0.5908 C   0  0  0  0  0  0  0  0  0  0  0  0
   -1.2442    3.9867    0.2079 C   0  0  0  0  0  0  0  0  0  0  0  0
   -2.4668    3.8599    0.7365 F   0  0  0  0  0  0  0  0  0  0  0  0
   -0.7978    3.0361   -0.7094 C   0  0  0  0  0  0  0  0  0  0  0  0
    0.4757    3.1796   -1.2503 C   0  0  0  0  0  0  0  0  0  0  0  0
    0.8910    0.3565    0.6841 H   0  0  0  0  0  0  0  0  0  0  0  0
    4.9164   -0.1929   -2.2885 H   0  0  0  0  0  0  0  0  0  0  0  0
    2.6016   -0.4820   -3.1940 H   0  0  0  0  0  0  0  0  0  0  0  0
    6.8559   -0.5719   -0.4386 H   0  0  0  0  0  0  0  0  0  0  0  0
    7.2990    0.3743    0.9986 H   0  0  0  0  0  0  0  0  0  0  0  0
    6.5363    1.5858   -1.7340 H   0  0  0  0  0  0  0  0  0  0  0  0
    8.1700    1.2373   -1.1956 H   0  0  0  0  0  0  0  0  0  0  0  0
    8.1813    3.4268   -0.6322 H   0  0  0  0  0  0  0  0  0  0  0  0
    7.4926    2.8359    0.8846 H   0  0  0  0  0  0  0  0  0  0  0  0
    5.3365    3.3855    1.4779 H   0  0  0  0  0  0  0  0  0  0  0  0
    4.4014    2.7998    0.0835 H   0  0  0  0  0  0  0  0  0  0  0  0
    3.2608    4.7040    1.1428 H   0  0  0  0  0  0  0  0  0  0  0  0
    4.7043    5.7221    0.9354 H   0  0  0  0  0  0  0  0  0  0  0  0
    4.6470    5.5862   -2.8655 H   0  0  0  0  0  0  0  0  0  0  0  0
    5.4988    6.3188   -1.4848 H   0  0  0  0  0  0  0  0  0  0  0  0
    5.3924    3.3697   -2.2747 H   0  0  0  0  0  0  0  0  0  0  0  0
    6.8136    4.4405   -2.2632 H   0  0  0  0  0  0  0  0  0  0  0  0
    1.4425    6.0386    0.3490 H   0  0  0  0  0  0  0  0  0  0  0  0
   -0.8449    5.7939    1.3046 H   0  0  0  0  0  0  0  0  0  0  0  0
   -1.4393    2.1976   -0.9835 H   0  0  0  0  0  0  0  0  0  0  0  0
    0.8546    2.4593   -1.9739 H   0  0  0  0  0  0  0  0  0  0  0  0
  1  2  1  0
  2  3  2  0
  2 12  1  0
  3  4  1  0
  3 32  1  0
  4  5  1  0
  4 10  2  0
  5  6  1  0
  5  7  1  0
  7  8  2  0
  7  9  1  0
  9 10  1  0
  9 13  1  0
 10 11  1  0
 11 12  2  0
 11 33  1  0
 12 34  1  0
 13 14  1  0
 13 35  1  0
 13 36  1  0
 14 15  1  0
 14 37  1  0
 14 38  1  0
 15 16  1  0
 15 39  1  0
 15 40  1  0
 16 17  1  0
 16 22  1  0
 17 18  1  0
 17 41  1  0
 17 42  1  0
 18 19  1  0
 18 43  1  0
 18 44  1  0
 19 20  1  0
 19 21  1  0
 19 23  1  0
 21 22  1  0
 21 45  1  0
 21 46  1  0
 22 47  1  0
 22 48  1  0
 23 24  2  0
 23 25  1  0
 25 26  2  0
 25 31  1  0
 26 27  1  0
 26 49  1  0
 27 28  2  0
 27 50  1  0
 28 29  1  0
 28 30  1  0
 30 31  2  0
 30 51  1  0
 31 52  1  0
M  END

