52
rmsd132.gzmat
Cl         0.00000        0.00000        0.00000
C          1.71030        0.00000        0.00000
C          2.35490        0.00000        1.23500
C          3.73830        0.04160        1.19090
N          4.69180        0.09470        2.21560
H          4.50150        0.05560        3.19460
C          5.98520        0.21200        1.64570
O          7.01910        0.29270        2.25690
N          5.82370        0.14060        0.23350
C          4.44550        0.09540       -0.06150
C          3.76350        0.06520       -1.26680
C          2.36730        0.01390       -1.22430
C          6.83120        0.69680       -0.66800
C          6.51630        2.12440       -1.14140
C          6.53440        3.16150        0.00500
N          5.35950        4.05320        0.09740
C          4.12620        3.29150        0.39800
C          2.94170        4.25000        0.59900
C          2.71420        5.10450       -0.65510
H          1.91720        5.86300       -0.45100
C          4.02140        5.84540       -0.97640
C          5.20720        4.87400       -1.12770
C          2.26120        4.25410       -1.82740
O          2.91740        4.18300       -2.84110
C          0.98040        3.50450       -1.74210
C          0.01240        3.77080       -0.77210
C         -1.16690        3.03280       -0.73340
C         -1.34820        2.03640       -1.69270
F         -2.45640        1.31490       -1.65090
C         -0.41260        1.76220       -2.69050
C          0.75930        2.51120       -2.70290
H          1.80870       -0.02840        2.17460
H          4.29050        0.08320       -2.21790
H          1.80230       -0.00850       -2.15780
H          6.91310        0.01260       -1.54670
H          7.81850        0.66940       -0.14170
H          5.53560        2.14180       -1.65800
H          7.25180        2.41430       -1.91610
H          7.43300        3.81200       -0.08890
H          6.64590        2.65750        0.99220
H          4.30060        2.72040        1.33700
H          3.87100        2.55440       -0.39510
H          2.04150        3.66820        0.86610
H          3.15460        4.91580        1.46060
H          3.91290        6.43140       -1.90840
H          4.24200        6.56630       -0.16450
H          5.07300        4.26050       -2.04600
H          6.14440        5.45720       -1.26210
H          0.16670        4.56290       -0.03750
H         -1.92140        3.22580        0.02660
H         -0.59010        0.98650       -3.43250
H          1.51770        2.33140       -3.47280
