rmsd133.gzmat
 OpenBabel08211713373D

 52 55  0  0  0  0  0  0  0  0999 V2000
    0.0000    0.0000    0.0000 Cl  0  0  0  0  0  0  0  0  0  0  0  0
    1.7102    0.0000    0.0000 C   0  0  0  0  0  0  0  0  0  0  0  0
    2.3519    0.0000    1.2364 C   0  0  0  0  0  0  0  0  0  0  0  0
    3.7357    0.0268    1.1952 C   0  0  0  0  0  0  0  0  0  0  0  0
    4.6877    0.0725    2.2221 N   0  0  0  0  0  0  0  0  0  0  0  0
    4.4947    0.0372    3.2007 H   0  0  0  0  0  0  0  0  0  0  0  0
    5.9847    0.1594    1.6547 C   0  0  0  0  0  0  0  0  0  0  0  0
    7.0186    0.2240    2.2686 O   0  0  0  0  0  0  0  0  0  0  0  0
    5.8251    0.0814    0.2441 N   0  0  0  0  0  0  0  0  0  0  0  0
    4.4468    0.0641   -0.0556 C   0  0  0  0  0  0  0  0  0  0  0  0
    3.7670    0.0459   -1.2624 C   0  0  0  0  0  0  0  0  0  0  0  0
    2.3694    0.0124   -1.2232 C   0  0  0  0  0  0  0  0  0  0  0  0
    6.8513    0.5938   -0.6617 C   0  0  0  0  0  0  0  0  0  0  0  0
    6.5940    2.0345   -1.1280 C   0  0  0  0  0  0  0  0  0  0  0  0
    6.7595    3.0796   -0.0011 C   0  0  0  0  0  0  0  0  0  0  0  0
    5.6285    4.0142    0.1919 N   0  0  0  0  0  0  0  0  0  0  0  0
    4.4297    3.2934    0.6774 C   0  0  0  0  0  0  0  0  0  0  0  0
    3.2845    4.2800    0.9491 C   0  0  0  0  0  0  0  0  0  0  0  0
    2.9078    5.0268   -0.3381 C   0  0  0  0  0  0  0  0  0  0  0  0
    2.1306    5.7986   -0.1125 H   0  0  0  0  0  0  0  0  0  0  0  0
    4.1639    5.7411   -0.8606 C   0  0  0  0  0  0  0  0  0  0  0  0
    5.3514    4.7786   -1.0488 C   0  0  0  0  0  0  0  0  0  0  0  0
    2.3448    4.0634   -1.3671 C   0  0  0  0  0  0  0  0  0  0  0  0
    2.9818    3.7460   -2.3456 O   0  0  0  0  0  0  0  0  0  0  0  0
    0.9775    3.5073   -1.1880 C   0  0  0  0  0  0  0  0  0  0  0  0
    0.1874    3.7715   -0.0682 C   0  0  0  0  0  0  0  0  0  0  0  0
   -1.0763    3.2005    0.0541 C   0  0  0  0  0  0  0  0  0  0  0  0
   -1.5276    2.3794   -0.9786 C   0  0  0  0  0  0  0  0  0  0  0  0
   -2.7221    1.8216   -0.8656 F   0  0  0  0  0  0  0  0  0  0  0  0
   -0.7739    2.1124   -2.1216 C   0  0  0  0  0  0  0  0  0  0  0  0
    0.4921    2.6802   -2.2094 C   0  0  0  0  0  0  0  0  0  0  0  0
    1.8028   -0.0188    2.1741 H   0  0  0  0  0  0  0  0  0  0  0  0
    4.2961    0.0602   -2.2124 H   0  0  0  0  0  0  0  0  0  0  0  0
    1.8073    0.0042   -2.1582 H   0  0  0  0  0  0  0  0  0  0  0  0
    6.8961   -0.0905   -1.5431 H   0  0  0  0  0  0  0  0  0  0  0  0
    7.8401    0.5195   -0.1429 H   0  0  0  0  0  0  0  0  0  0  0  0
    5.5793    2.1083   -1.5714 H   0  0  0  0  0  0  0  0  0  0  0  0
    7.2839    2.2719   -1.9596 H   0  0  0  0  0  0  0  0  0  0  0  0
    7.6641    3.6997   -0.1902 H   0  0  0  0  0  0  0  0  0  0  0  0
    6.9493    2.5778    0.9754 H   0  0  0  0  0  0  0  0  0  0  0  0
    4.7065    2.7788    1.6245 H   0  0  0  0  0  0  0  0  0  0  0  0
    4.0805    2.5145   -0.0361 H   0  0  0  0  0  0  0  0  0  0  0  0
    2.4234    3.7358    1.3754 H   0  0  0  0  0  0  0  0  0  0  0  0
    3.6075    5.0130    1.7174 H   0  0  0  0  0  0  0  0  0  0  0  0
    3.9483    6.2370   -1.8259 H   0  0  0  0  0  0  0  0  0  0  0  0
    4.4507    6.5382   -0.1462 H   0  0  0  0  0  0  0  0  0  0  0  0
    5.1553    4.1212   -1.9254 H   0  0  0  0  0  0  0  0  0  0  0  0
    6.2656    5.3675   -1.2838 H   0  0  0  0  0  0  0  0  0  0  0  0
    0.5480    4.4290    0.7244 H   0  0  0  0  0  0  0  0  0  0  0  0
   -1.6890    3.3871    0.9333 H   0  0  0  0  0  0  0  0  0  0  0  0
   -1.1552    1.4684   -2.9113 H   0  0  0  0  0  0  0  0  0  0  0  0
    1.1217    2.4846   -3.0849 H   0  0  0  0  0  0  0  0  0  0  0  0
  1  2  1  0  0  0  0
  2  3  2  0  0  0  0
  3 32  1  0  0  0  0
  4  3  1  0  0  0  0
  4  5  1  0  0  0  0
  5  6  1  0  0  0  0
  7  5  1  0  0  0  0
  7  8  2  0  0  0  0
  9  7  1  0  0  0  0
 10  9  1  0  0  0  0
 10  4  2  0  0  0  0
 11 12  2  0  0  0  0
 11 10  1  0  0  0  0
 12  2  1  0  0  0  0
 13 36  1  0  0  0  0
 13  9  1  0  0  0  0
 14 13  1  0  0  0  0
 14 15  1  0  0  0  0
 15 16  1  0  0  0  0
 15 40  1  0  0  0  0
 16 17  1  0  0  0  0
 17 18  1  0  0  0  0
 17 41  1  0  0  0  0
 18 43  1  0  0  0  0
 18 44  1  0  0  0  0
 19 20  1  0  0  0  0
 19 18  1  0  0  0  0
 21 19  1  0  0  0  0
 21 46  1  0  0  0  0
 22 21  1  0  0  0  0
 22 16  1  0  0  0  0
 23 25  1  0  0  0  0
 23 19  1  0  0  0  0
 24 23  2  0  0  0  0
 25 26  2  0  0  0  0
 26 27  1  0  0  0  0
 26 49  1  0  0  0  0
 27 50  1  0  0  0  0
 28 29  1  0  0  0  0
 28 27  2  0  0  0  0
 30 28  1  0  0  0  0
 31 30  2  0  0  0  0
 31 25  1  0  0  0  0
 33 11  1  0  0  0  0
 34 12  1  0  0  0  0
 35 13  1  0  0  0  0
 37 14  1  0  0  0  0
 38 14  1  0  0  0  0
 39 15  1  0  0  0  0
 42 17  1  0  0  0  0
 45 21  1  0  0  0  0
 47 22  1  0  0  0  0
 48 22  1  0  0  0  0
 51 30  1  0  0  0  0
 52 31  1  0  0  0  0
M  END
$$$$
