rmsd14.gzmat
 OpenBabel08211713373D

 52 55  0  0  0  0  0  0  0  0999 V2000
    0.0000    0.0000    0.0000 Cl  0  0  0  0  0  0  0  0  0  0  0  0
    1.7119    0.0000    0.0000 C   0  0  0  0  0  0  0  0  0  0  0  0
    2.3551    0.0000    1.2355 C   0  0  0  0  0  0  0  0  0  0  0  0
    3.7382   -0.0618    1.1939 C   0  0  0  0  0  0  0  0  0  0  0  0
    4.6918   -0.0824    2.2174 N   0  0  0  0  0  0  0  0  0  0  0  0
    4.4944   -0.1525    3.1943 H   0  0  0  0  0  0  0  0  0  0  0  0
    5.9839   -0.2286    1.6505 C   0  0  0  0  0  0  0  0  0  0  0  0
    7.0147   -0.3138    2.2653 O   0  0  0  0  0  0  0  0  0  0  0  0
    5.8243   -0.1806    0.2339 N   0  0  0  0  0  0  0  0  0  0  0  0
    4.4445   -0.1286   -0.0587 C   0  0  0  0  0  0  0  0  0  0  0  0
    3.7639   -0.0805   -1.2642 C   0  0  0  0  0  0  0  0  0  0  0  0
    2.3669   -0.0224   -1.2245 C   0  0  0  0  0  0  0  0  0  0  0  0
    6.8194   -0.7884   -0.6544 C   0  0  0  0  0  0  0  0  0  0  0  0
    7.2853   -2.1809   -0.1857 C   0  0  0  0  0  0  0  0  0  0  0  0
    7.0809   -3.3005   -1.2257 C   0  0  0  0  0  0  0  0  0  0  0  0
    5.8236   -4.0747   -1.1531 N   0  0  0  0  0  0  0  0  0  0  0  0
    4.6477   -3.2336   -1.4675 C   0  0  0  0  0  0  0  0  0  0  0  0
    3.3936   -4.1182   -1.5662 C   0  0  0  0  0  0  0  0  0  0  0  0
    3.1286   -4.8279   -0.2300 C   0  0  0  0  0  0  0  0  0  0  0  0
    2.2905   -5.5579   -0.3573 H   0  0  0  0  0  0  0  0  0  0  0  0
    4.3880   -5.6100    0.1738 C   0  0  0  0  0  0  0  0  0  0  0  0
    5.6595   -4.7396    0.1626 C   0  0  0  0  0  0  0  0  0  0  0  0
    2.7348   -3.8122    0.8258 C   0  0  0  0  0  0  0  0  0  0  0  0
    3.5412   -3.3516    1.6004 O   0  0  0  0  0  0  0  0  0  0  0  0
    1.3136   -3.3857    0.9223 C   0  0  0  0  0  0  0  0  0  0  0  0
    0.9133   -2.7694    2.1138 C   0  0  0  0  0  0  0  0  0  0  0  0
   -0.3917   -2.3146    2.2715 C   0  0  0  0  0  0  0  0  0  0  0  0
   -1.2731   -2.4865    1.2042 C   0  0  0  0  0  0  0  0  0  0  0  0
   -2.5114   -2.0378    1.3297 F   0  0  0  0  0  0  0  0  0  0  0  0
   -0.9080   -3.1033    0.0075 C   0  0  0  0  0  0  0  0  0  0  0  0
    0.4028   -3.5532   -0.1218 C   0  0  0  0  0  0  0  0  0  0  0  0
    1.8079    0.0361    2.1737 H   0  0  0  0  0  0  0  0  0  0  0  0
    4.2904   -0.0903   -2.2148 H   0  0  0  0  0  0  0  0  0  0  0  0
    1.8036    0.0035   -2.1573 H   0  0  0  0  0  0  0  0  0  0  0  0
    7.6936   -0.0902   -0.6824 H   0  0  0  0  0  0  0  0  0  0  0  0
    6.4060   -0.8285   -1.6858 H   0  0  0  0  0  0  0  0  0  0  0  0
    6.7847   -2.4614    0.7642 H   0  0  0  0  0  0  0  0  0  0  0  0
    8.3576   -2.1271    0.0905 H   0  0  0  0  0  0  0  0  0  0  0  0
    7.9112   -4.0399   -1.1291 H   0  0  0  0  0  0  0  0  0  0  0  0
    7.1656   -2.8952   -2.2579 H   0  0  0  0  0  0  0  0  0  0  0  0
    4.8248   -2.7293   -2.4408 H   0  0  0  0  0  0  0  0  0  0  0  0
    4.4807   -2.4464   -0.7010 H   0  0  0  0  0  0  0  0  0  0  0  0
    2.5319   -3.5029   -1.8789 H   0  0  0  0  0  0  0  0  0  0  0  0
    3.5452   -4.8791   -2.3587 H   0  0  0  0  0  0  0  0  0  0  0  0
    4.2603   -6.0457    1.1827 H   0  0  0  0  0  0  0  0  0  0  0  0
    4.5241   -6.4574   -0.5273 H   0  0  0  0  0  0  0  0  0  0  0  0
    5.6175   -4.0157    1.0091 H   0  0  0  0  0  0  0  0  0  0  0  0
    6.5484   -5.3864    0.3291 H   0  0  0  0  0  0  0  0  0  0  0  0
    1.6403   -2.6441    2.9228 H   0  0  0  0  0  0  0  0  0  0  0  0
   -0.7093   -1.8317    3.1931 H   0  0  0  0  0  0  0  0  0  0  0  0
   -1.6208   -3.2215   -0.8055 H   0  0  0  0  0  0  0  0  0  0  0  0
    0.7078   -4.0317   -1.0535 H   0  0  0  0  0  0  0  0  0  0  0  0
  1  2  1  0  0  0  0
  2  3  2  0  0  0  0
  3 32  1  0  0  0  0
  4  3  1  0  0  0  0
  4  5  1  0  0  0  0
  5  6  1  0  0  0  0
  7  5  1  0  0  0  0
  7  8  2  0  0  0  0
  9  7  1  0  0  0  0
 10  9  1  0  0  0  0
 10  4  2  0  0  0  0
 11 12  2  0  0  0  0
 11 10  1  0  0  0  0
 12  2  1  0  0  0  0
 13 14  1  0  0  0  0
 13  9  1  0  0  0  0
 14 38  1  0  0  0  0
 14 37  1  0  0  0  0
 15 16  1  0  0  0  0
 15 39  1  0  0  0  0
 15 14  1  0  0  0  0
 16 22  1  0  0  0  0
 17 16  1  0  0  0  0
 17 42  1  0  0  0  0
 18 17  1  0  0  0  0
 18 19  1  0  0  0  0
 19 21  1  0  0  0  0
 19 23  1  0  0  0  0
 20 19  1  0  0  0  0
 21 45  1  0  0  0  0
 22 21  1  0  0  0  0
 22 48  1  0  0  0  0
 22 47  1  0  0  0  0
 23 25  1  0  0  0  0
 23 24  2  0  0  0  0
 25 26  2  0  0  0  0
 26 27  1  0  0  0  0
 26 49  1  0  0  0  0
 27 50  1  0  0  0  0
 28 29  1  0  0  0  0
 28 27  2  0  0  0  0
 30 28  1  0  0  0  0
 31 30  2  0  0  0  0
 31 25  1  0  0  0  0
 33 11  1  0  0  0  0
 34 12  1  0  0  0  0
 35 13  1  0  0  0  0
 36 13  1  0  0  0  0
 40 15  1  0  0  0  0
 41 17  1  0  0  0  0
 43 18  1  0  0  0  0
 44 18  1  0  0  0  0
 46 21  1  0  0  0  0
 51 30  1  0  0  0  0
 52 31  1  0  0  0  0
M  END
$$$$
