52
rmsd242.gzmat
Cl         0.00000        0.00000        0.00000
C          1.71020        0.00000        0.00000
C          2.35590        0.00000        1.23460
C          3.74030       -0.00910        1.19020
N          4.69940       -0.03450        2.21190
H          4.50880       -0.04560        3.19200
C          5.99330       -0.06720        1.63760
O          7.03480       -0.11450        2.24360
N          5.82270        0.02680        0.23200
C          4.44560       -0.01350       -0.06360
C          3.76340       -0.00930       -1.26920
C          2.36640       -0.00280       -1.22590
C          6.86800       -0.38150       -0.70070
C          6.82490       -1.89400       -0.97150
C          8.00360       -2.33220       -1.86480
N          9.14710       -2.96990       -1.18470
C          8.77200       -4.27650       -0.59250
C         10.02490       -4.97310       -0.02990
C         10.71440       -4.09070        1.02010
H         11.66380       -4.58370        1.34870
C         11.04060       -2.73660        0.37670
C          9.76730       -2.07430       -0.18100
C          9.83240       -3.94780        2.24980
O          8.95630       -4.74020        2.49330
C         10.08140       -2.78720        3.14230
C          9.02350       -1.91170        3.39550
C          9.22830       -0.77910        4.17860
C         10.49880       -0.58000        4.71630
F         10.70940        0.49430        5.46220
C         11.56190       -1.45960        4.50890
C         11.33980       -2.57400        3.70460
H          1.80910        0.00670        2.17460
H          4.29150       -0.00910       -2.21950
H          1.80050       -0.00100       -2.15850
H          7.85460       -0.08300       -0.26560
H          6.74280        0.19470       -1.64640
H          5.86400       -2.16660       -1.44690
H          6.83890       -2.45240       -0.01400
H          8.40370       -1.46580       -2.43790
H          7.63730       -3.04990       -2.63450
H          8.33050       -4.90400       -1.39680
H          8.00430       -4.18710        0.20810
H          9.73720       -5.94700        0.41140
H         10.72960       -5.19050       -0.85540
H         11.53140       -2.05550        1.09540
H         11.76340       -2.88950       -0.45000
H          9.08010       -1.81690        0.65590
H         10.03750       -1.12220       -0.68730
H          8.03380       -2.10810        2.97430
H          8.41530       -0.07110        4.34610
H         12.53640       -1.28190        4.95760
H         12.15010       -3.27840        3.51980
