52

Cl         0.02750       -0.97580       -0.58280
C          1.71120       -0.53850       -0.38830
C          2.21860       -0.39990        0.91270
C          3.56290       -0.07330        1.03400
N          4.36820        0.14490        2.14020
H          4.09830        0.08440        3.11270
C          5.67110        0.46590        1.75790
O          6.61060        0.72600        2.47960
N          5.65660        0.43520        0.36020
C          4.38670        0.11400       -0.10250
C          3.86610       -0.01760       -1.38540
C          2.50940       -0.34990       -1.52050
C          6.81450        0.79050       -0.44100
C          6.74080        2.19720       -1.04240
C          6.68890        3.35160        0.00420
N          5.48380        4.16650        0.00390
C          4.29860        3.44000        0.42990
C          3.09490        4.36080        0.57820
C          2.79750        5.08230       -0.75420
H          1.99610        5.82070       -0.58290
C          4.06930        5.82110       -1.19580
C          5.30440        4.91750       -1.23570
C          2.28440        4.10110       -1.80910
O          2.95940        3.79660       -2.77770
C          0.93220        3.48000       -1.62570
C          0.01630        3.87470       -0.63630
C         -1.22160        3.24320       -0.51680
C         -1.53760        2.21210       -1.39820
F         -2.71700        1.59450       -1.27950
C         -0.65780        1.80630       -2.40120
C          0.57230        2.44330       -2.50580
H          1.57560       -0.54840        1.78010
H          4.48440        0.14250       -2.26900
H          2.06970       -0.46480       -2.51080
H          6.92880        0.03590       -1.23700
H          7.68220        0.70230        0.22890
H          5.86440        2.26090       -1.70730
H          7.61790        2.31630       -1.69920
H          7.54330        4.02710       -0.16510
H          6.82020        2.93570        1.01650
H          4.51620        2.96580        1.39960
H          4.02460        2.62160       -0.26870
H          2.23050        3.77480        0.92310
H          3.31190        5.12280        1.34440
H          3.92510        6.27090       -2.18970
H          4.24490        6.64070       -0.47980
H          5.21870        4.25690       -2.11860
H          6.20310        5.54050       -1.38440
H          0.25700        4.68600        0.05130
H         -1.94410        3.53490        0.24710
H         -0.94440        0.98930       -3.06420
H          1.29240        2.15350       -3.27160
