52
rmsd213.gzmat
Cl         0.00000        0.00000        0.00000
C          1.71060        0.00000        0.00000
C          2.35390        0.00000        1.23570
C          3.73750       -0.04110        1.19270
N          4.69030       -0.09500        2.21810
H          4.49840       -0.06220        3.19710
C          5.98410       -0.21180        1.64930
O          7.01720       -0.29280        2.26170
N          5.82440       -0.13890        0.23670
C          4.44580       -0.09450       -0.05900
C          3.76510       -0.06460       -1.26500
C          2.36880       -0.01490       -1.22390
C          6.82890       -0.70630       -0.66130
C          6.50770       -2.13740       -1.11960
C          6.53940       -3.16670        0.03310
N          5.36500       -4.05810        0.14450
C          5.20610       -4.89220       -1.07110
C          4.00010       -5.83990       -0.93100
C          2.70500       -5.08350       -0.59860
H          1.89890       -5.83270       -0.39820
C          2.94970       -4.24110        0.66070
C          4.13660       -3.28940        0.44740
C          2.26110       -4.20650       -1.75510
O          2.94080       -4.08290       -2.74800
C          0.96240       -3.48690       -1.67490
C         -0.00030       -3.76830       -0.70400
C         -1.19630       -3.05710       -0.67100
C         -1.39840       -2.06950       -1.63510
F         -2.52280       -1.37270       -1.59850
C         -0.46630       -1.77660       -2.63060
C          0.72140       -2.50040       -2.63890
H          1.80550        0.02780        2.17380
H          4.29370       -0.08270       -2.21540
H          1.80500        0.00580       -2.15780
H          7.81810       -0.67480       -0.13860
H          6.90990       -0.03120       -1.54710
H          7.22980       -2.43400       -1.90380
H          5.51990       -2.15700       -1.62210
H          6.66070       -2.65650        1.01610
H          7.43730       -3.81700       -0.06740
H          6.13300       -5.49680       -1.18220
H          5.09740       -4.28830       -1.99900
H          3.88050       -6.41090       -1.87110
H          4.20670       -6.57670       -0.13010
H          2.05610       -3.65590        0.94160
H          3.16860       -4.91380        1.51530
H          3.87960       -2.55640       -0.34940
H          4.32000       -2.71280        1.38110
H          0.17120       -4.55030        0.03730
H         -1.94710       -3.26390        0.08850
H         -0.65820       -1.00480       -3.37280
H          1.47740       -2.30660       -3.40770
