rmsd242.gzmat
 OpenBabel08211713383D

 52 55  0  0  0  0  0  0  0  0999 V2000
    0.0000    0.0000    0.0000 Cl  0  0  0  0  0  0  0  0  0  0  0  0
    1.7102    0.0000    0.0000 C   0  0  0  0  0  0  0  0  0  0  0  0
    2.3559    0.0000    1.2346 C   0  0  0  0  0  0  0  0  0  0  0  0
    3.7403   -0.0091    1.1902 C   0  0  0  0  0  0  0  0  0  0  0  0
    4.6994   -0.0345    2.2119 N   0  0  0  0  0  0  0  0  0  0  0  0
    4.5088   -0.0456    3.1920 H   0  0  0  0  0  0  0  0  0  0  0  0
    5.9933   -0.0672    1.6376 C   0  0  0  0  0  0  0  0  0  0  0  0
    7.0348   -0.1145    2.2436 O   0  0  0  0  0  0  0  0  0  0  0  0
    5.8227    0.0268    0.2320 N   0  0  0  0  0  0  0  0  0  0  0  0
    4.4456   -0.0135   -0.0636 C   0  0  0  0  0  0  0  0  0  0  0  0
    3.7634   -0.0093   -1.2692 C   0  0  0  0  0  0  0  0  0  0  0  0
    2.3664   -0.0028   -1.2259 C   0  0  0  0  0  0  0  0  0  0  0  0
    6.8680   -0.3815   -0.7007 C   0  0  0  0  0  0  0  0  0  0  0  0
    6.8249   -1.8940   -0.9715 C   0  0  0  0  0  0  0  0  0  0  0  0
    8.0036   -2.3322   -1.8648 C   0  0  0  0  0  0  0  0  0  0  0  0
    9.1471   -2.9699   -1.1847 N   0  0  0  0  0  0  0  0  0  0  0  0
    8.7720   -4.2765   -0.5925 C   0  0  0  0  0  0  0  0  0  0  0  0
   10.0249   -4.9731   -0.0299 C   0  0  0  0  0  0  0  0  0  0  0  0
   10.7144   -4.0907    1.0201 C   0  0  0  0  0  0  0  0  0  0  0  0
   11.6638   -4.5837    1.3487 H   0  0  0  0  0  0  0  0  0  0  0  0
   11.0406   -2.7366    0.3767 C   0  0  0  0  0  0  0  0  0  0  0  0
    9.7673   -2.0743   -0.1810 C   0  0  0  0  0  0  0  0  0  0  0  0
    9.8324   -3.9478    2.2498 C   0  0  0  0  0  0  0  0  0  0  0  0
    8.9563   -4.7402    2.4933 O   0  0  0  0  0  0  0  0  0  0  0  0
   10.0814   -2.7872    3.1423 C   0  0  0  0  0  0  0  0  0  0  0  0
    9.0235   -1.9117    3.3955 C   0  0  0  0  0  0  0  0  0  0  0  0
    9.2283   -0.7791    4.1786 C   0  0  0  0  0  0  0  0  0  0  0  0
   10.4988   -0.5800    4.7163 C   0  0  0  0  0  0  0  0  0  0  0  0
   10.7094    0.4943    5.4622 F   0  0  0  0  0  0  0  0  0  0  0  0
   11.5619   -1.4596    4.5089 C   0  0  0  0  0  0  0  0  0  0  0  0
   11.3398   -2.5740    3.7046 C   0  0  0  0  0  0  0  0  0  0  0  0
    1.8091    0.0067    2.1746 H   0  0  0  0  0  0  0  0  0  0  0  0
    4.2915   -0.0091   -2.2195 H   0  0  0  0  0  0  0  0  0  0  0  0
    1.8005   -0.0010   -2.1585 H   0  0  0  0  0  0  0  0  0  0  0  0
    7.8546   -0.0830   -0.2656 H   0  0  0  0  0  0  0  0  0  0  0  0
    6.7428    0.1947   -1.6464 H   0  0  0  0  0  0  0  0  0  0  0  0
    5.8640   -2.1666   -1.4469 H   0  0  0  0  0  0  0  0  0  0  0  0
    6.8389   -2.4524   -0.0140 H   0  0  0  0  0  0  0  0  0  0  0  0
    8.4037   -1.4658   -2.4379 H   0  0  0  0  0  0  0  0  0  0  0  0
    7.6373   -3.0499   -2.6345 H   0  0  0  0  0  0  0  0  0  0  0  0
    8.3305   -4.9040   -1.3968 H   0  0  0  0  0  0  0  0  0  0  0  0
    8.0043   -4.1871    0.2081 H   0  0  0  0  0  0  0  0  0  0  0  0
    9.7372   -5.9470    0.4114 H   0  0  0  0  0  0  0  0  0  0  0  0
   10.7296   -5.1905   -0.8554 H   0  0  0  0  0  0  0  0  0  0  0  0
   11.5314   -2.0555    1.0954 H   0  0  0  0  0  0  0  0  0  0  0  0
   11.7634   -2.8895   -0.4500 H   0  0  0  0  0  0  0  0  0  0  0  0
    9.0801   -1.8169    0.6559 H   0  0  0  0  0  0  0  0  0  0  0  0
   10.0375   -1.1222   -0.6873 H   0  0  0  0  0  0  0  0  0  0  0  0
    8.0338   -2.1081    2.9743 H   0  0  0  0  0  0  0  0  0  0  0  0
    8.4153   -0.0711    4.3461 H   0  0  0  0  0  0  0  0  0  0  0  0
   12.5364   -1.2819    4.9576 H   0  0  0  0  0  0  0  0  0  0  0  0
   12.1501   -3.2784    3.5198 H   0  0  0  0  0  0  0  0  0  0  0  0
  1  2  1  0  0  0  0
  2  3  2  0  0  0  0
  3 32  1  0  0  0  0
  4  3  1  0  0  0  0
  4  5  1  0  0  0  0
  5  6  1  0  0  0  0
  7  5  1  0  0  0  0
  7  8  2  0  0  0  0
  9  7  1  0  0  0  0
 10  9  1  0  0  0  0
 10  4  2  0  0  0  0
 11 12  2  0  0  0  0
 11 10  1  0  0  0  0
 12  2  1  0  0  0  0
 13 35  1  0  0  0  0
 13  9  1  0  0  0  0
 14 13  1  0  0  0  0
 14 38  1  0  0  0  0
 15 16  1  0  0  0  0
 15 14  1  0  0  0  0
 16 17  1  0  0  0  0
 16 22  1  0  0  0  0
 17 18  1  0  0  0  0
 17 42  1  0  0  0  0
 18 43  1  0  0  0  0
 18 19  1  0  0  0  0
 19 20  1  0  0  0  0
 19 23  1  0  0  0  0
 21 19  1  0  0  0  0
 21 45  1  0  0  0  0
 22 21  1  0  0  0  0
 22 47  1  0  0  0  0
 23 24  2  0  0  0  0
 23 25  1  0  0  0  0
 25 26  2  0  0  0  0
 25 31  1  0  0  0  0
 26 27  1  0  0  0  0
 27 50  1  0  0  0  0
 27 28  2  0  0  0  0
 28 29  1  0  0  0  0
 30 28  1  0  0  0  0
 30 51  1  0  0  0  0
 31 30  2  0  0  0  0
 33 11  1  0  0  0  0
 34 12  1  0  0  0  0
 36 13  1  0  0  0  0
 37 14  1  0  0  0  0
 39 15  1  0  0  0  0
 40 15  1  0  0  0  0
 41 17  1  0  0  0  0
 44 18  1  0  0  0  0
 46 21  1  0  0  0  0
 48 22  1  0  0  0  0
 49 26  1  0  0  0  0
 52 31  1  0  0  0  0
M  END
$$$$
