rmsd13.gzmat
 OpenBabel08211713373D

 52 55  0  0  0  0  0  0  0  0999 V2000
    0.0000    0.0000    0.0000 Cl  0  0  0  0  0  0  0  0  0  0  0  0
    1.7122    0.0000    0.0000 C   0  0  0  0  0  0  0  0  0  0  0  0
    2.3546    0.0000    1.2361 C   0  0  0  0  0  0  0  0  0  0  0  0
    3.7385   -0.0183    1.1950 C   0  0  0  0  0  0  0  0  0  0  0  0
    4.6949   -0.0058    2.2187 N   0  0  0  0  0  0  0  0  0  0  0  0
    4.5045   -0.0081    3.1987 H   0  0  0  0  0  0  0  0  0  0  0  0
    5.9932   -0.0163    1.6481 C   0  0  0  0  0  0  0  0  0  0  0  0
    7.0324   -0.0072    2.2562 O   0  0  0  0  0  0  0  0  0  0  0  0
    5.8212   -0.1070    0.2413 N   0  0  0  0  0  0  0  0  0  0  0  0
    4.4476   -0.0353   -0.0578 C   0  0  0  0  0  0  0  0  0  0  0  0
    3.7664   -0.0241   -1.2642 C   0  0  0  0  0  0  0  0  0  0  0  0
    2.3693   -0.0043   -1.2245 C   0  0  0  0  0  0  0  0  0  0  0  0
    6.8900    0.2459   -0.6889 C   0  0  0  0  0  0  0  0  0  0  0  0
    6.7782    1.6827   -1.2173 C   0  0  0  0  0  0  0  0  0  0  0  0
    7.0261    2.7452   -0.1231 C   0  0  0  0  0  0  0  0  0  0  0  0
    6.0149    3.8165   -0.0183 N   0  0  0  0  0  0  0  0  0  0  0  0
    4.7159    3.2953    0.4673 C   0  0  0  0  0  0  0  0  0  0  0  0
    3.7507    4.4668    0.7160 C   0  0  0  0  0  0  0  0  0  0  0  0
    3.5362    5.2922   -0.5630 C   0  0  0  0  0  0  0  0  0  0  0  0
    2.9520    6.2104   -0.3022 H   0  0  0  0  0  0  0  0  0  0  0  0
    4.8932    5.7255   -1.1298 C   0  0  0  0  0  0  0  0  0  0  0  0
    5.8576    4.5381   -1.3038 C   0  0  0  0  0  0  0  0  0  0  0  0
    2.7364    4.4591   -1.5453 C   0  0  0  0  0  0  0  0  0  0  0  0
    3.2376    3.7675   -2.3953 O   0  0  0  0  0  0  0  0  0  0  0  0
    1.2563    4.4959   -1.3810 C   0  0  0  0  0  0  0  0  0  0  0  0
    0.5584    5.6985   -1.4840 C   0  0  0  0  0  0  0  0  0  0  0  0
   -0.8271    5.7132   -1.3438 C   0  0  0  0  0  0  0  0  0  0  0  0
   -1.4716    4.5018   -1.0939 C   0  0  0  0  0  0  0  0  0  0  0  0
   -2.7882    4.5070   -0.9508 F   0  0  0  0  0  0  0  0  0  0  0  0
   -0.7969    3.2853   -0.9928 C   0  0  0  0  0  0  0  0  0  0  0  0
    0.5859    3.2937   -1.1505 C   0  0  0  0  0  0  0  0  0  0  0  0
    1.8049    0.0087    2.1737 H   0  0  0  0  0  0  0  0  0  0  0  0
    4.2953   -0.0318   -2.2145 H   0  0  0  0  0  0  0  0  0  0  0  0
    1.8083    0.0047   -2.1613 H   0  0  0  0  0  0  0  0  0  0  0  0
    6.8572   -0.4795   -1.5374 H   0  0  0  0  0  0  0  0  0  0  0  0
    7.8691    0.0927   -0.1688 H   0  0  0  0  0  0  0  0  0  0  0  0
    5.7810    1.8350   -1.6793 H   0  0  0  0  0  0  0  0  0  0  0  0
    7.5010    1.8228   -2.0430 H   0  0  0  0  0  0  0  0  0  0  0  0
    8.0083    3.2414   -0.2938 H   0  0  0  0  0  0  0  0  0  0  0  0
    7.1152    2.2668    0.8795 H   0  0  0  0  0  0  0  0  0  0  0  0
    4.8971    2.7573    1.4239 H   0  0  0  0  0  0  0  0  0  0  0  0
    4.2540    2.5684   -0.2365 H   0  0  0  0  0  0  0  0  0  0  0  0
    2.7898    4.0868    1.1076 H   0  0  0  0  0  0  0  0  0  0  0  0
    4.1744    5.1237    1.5034 H   0  0  0  0  0  0  0  0  0  0  0  0
    4.7622    6.2331   -2.1028 H   0  0  0  0  0  0  0  0  0  0  0  0
    5.3517    6.4651   -0.4422 H   0  0  0  0  0  0  0  0  0  0  0  0
    5.4940    3.8827   -2.1272 H   0  0  0  0  0  0  0  0  0  0  0  0
    6.8584    4.9162   -1.6060 H   0  0  0  0  0  0  0  0  0  0  0  0
    1.0898    6.6291   -1.6847 H   0  0  0  0  0  0  0  0  0  0  0  0
   -1.3867    6.6424   -1.4294 H   0  0  0  0  0  0  0  0  0  0  0  0
   -1.3352    2.3577   -0.8050 H   0  0  0  0  0  0  0  0  0  0  0  0
    1.1531    2.3615   -1.1023 H   0  0  0  0  0  0  0  0  0  0  0  0
  1  2  1  0  0  0  0
  2  3  2  0  0  0  0
  3 32  1  0  0  0  0
  4  3  1  0  0  0  0
  4  5  1  0  0  0  0
  5  6  1  0  0  0  0
  7  5  1  0  0  0  0
  7  8  2  0  0  0  0
  9  7  1  0  0  0  0
 10  9  1  0  0  0  0
 10  4  2  0  0  0  0
 11 12  2  0  0  0  0
 11 10  1  0  0  0  0
 12  2  1  0  0  0  0
 13 36  1  0  0  0  0
 13  9  1  0  0  0  0
 14 13  1  0  0  0  0
 14 15  1  0  0  0  0
 15 16  1  0  0  0  0
 15 40  1  0  0  0  0
 16 17  1  0  0  0  0
 17 18  1  0  0  0  0
 17 41  1  0  0  0  0
 18 43  1  0  0  0  0
 18 44  1  0  0  0  0
 19 20  1  0  0  0  0
 19 18  1  0  0  0  0
 21 19  1  0  0  0  0
 21 46  1  0  0  0  0
 22 21  1  0  0  0  0
 22 16  1  0  0  0  0
 23 25  1  0  0  0  0
 23 19  1  0  0  0  0
 24 23  2  0  0  0  0
 25 31  1  0  0  0  0
 26 25  2  0  0  0  0
 26 27  1  0  0  0  0
 27 28  2  0  0  0  0
 28 30  1  0  0  0  0
 28 29  1  0  0  0  0
 30 51  1  0  0  0  0
 31 52  1  0  0  0  0
 31 30  2  0  0  0  0
 33 11  1  0  0  0  0
 34 12  1  0  0  0  0
 35 13  1  0  0  0  0
 37 14  1  0  0  0  0
 38 14  1  0  0  0  0
 39 15  1  0  0  0  0
 42 17  1  0  0  0  0
 45 21  1  0  0  0  0
 47 22  1  0  0  0  0
 48 22  1  0  0  0  0
 49 26  1  0  0  0  0
 50 27  1  0  0  0  0
M  END
$$$$
