52
rmsd133.gzmat
Cl         0.00000        0.00000        0.00000
C          1.71020        0.00000        0.00000
C          2.35190        0.00000        1.23640
C          3.73570        0.02680        1.19520
N          4.68770        0.07250        2.22210
H          4.49470        0.03720        3.20070
C          5.98470        0.15940        1.65470
O          7.01860        0.22400        2.26860
N          5.82510        0.08140        0.24410
C          4.44680        0.06410       -0.05560
C          3.76700        0.04590       -1.26240
C          2.36940        0.01240       -1.22320
C          6.85130        0.59380       -0.66170
C          6.59400        2.03450       -1.12800
C          6.75950        3.07960       -0.00110
N          5.62850        4.01420        0.19190
C          4.42970        3.29340        0.67740
C          3.28450        4.28000        0.94910
C          2.90780        5.02680       -0.33810
H          2.13060        5.79860       -0.11250
C          4.16390        5.74110       -0.86060
C          5.35140        4.77860       -1.04880
C          2.34480        4.06340       -1.36710
O          2.98180        3.74600       -2.34560
C          0.97750        3.50730       -1.18800
C          0.18740        3.77150       -0.06820
C         -1.07630        3.20050        0.05410
C         -1.52760        2.37940       -0.97860
F         -2.72210        1.82160       -0.86560
C         -0.77390        2.11240       -2.12160
C          0.49210        2.68020       -2.20940
H          1.80280       -0.01880        2.17410
H          4.29610        0.06020       -2.21240
H          1.80730        0.00420       -2.15820
H          6.89610       -0.09050       -1.54310
H          7.84010        0.51950       -0.14290
H          5.57930        2.10830       -1.57140
H          7.28390        2.27190       -1.95960
H          7.66410        3.69970       -0.19020
H          6.94930        2.57780        0.97540
H          4.70650        2.77880        1.62450
H          4.08050        2.51450       -0.03610
H          2.42340        3.73580        1.37540
H          3.60750        5.01300        1.71740
H          3.94830        6.23700       -1.82590
H          4.45070        6.53820       -0.14620
H          5.15530        4.12120       -1.92540
H          6.26560        5.36750       -1.28380
H          0.54800        4.42900        0.72440
H         -1.68900        3.38710        0.93330
H         -1.15520        1.46840       -2.91130
H          1.12170        2.48460       -3.08490
