
     RDKit          3D

 52 55  0  0  0  0  0  0  0  0999 V2000
    0.0275   -0.9758   -0.5828 Cl  0  0  0  0  0  0  0  0  0  0  0  0
    1.7112   -0.5385   -0.3883 C   0  0  0  0  0  0  0  0  0  0  0  0
    2.2186   -0.3999    0.9127 C   0  0  0  0  0  0  0  0  0  0  0  0
    3.5629   -0.0733    1.0340 C   0  0  0  0  0  0  0  0  0  0  0  0
    4.3682    0.1449    2.1402 N   0  0  0  0  0  0  0  0  0  0  0  0
    4.0983    0.0844    3.1127 H   0  0  0  0  0  0  0  0  0  0  0  0
    5.6711    0.4659    1.7579 C   0  0  0  0  0  0  0  0  0  0  0  0
    6.6106    0.7260    2.4796 O   0  0  0  0  0  0  0  0  0  0  0  0
    5.6566    0.4352    0.3602 N   0  0  0  0  0  0  0  0  0  0  0  0
    4.3867    0.1140   -0.1025 C   0  0  0  0  0  0  0  0  0  0  0  0
    3.8661   -0.0176   -1.3854 C   0  0  0  0  0  0  0  0  0  0  0  0
    2.5094   -0.3499   -1.5205 C   0  0  0  0  0  0  0  0  0  0  0  0
    6.8145    0.7905   -0.4410 C   0  0  0  0  0  0  0  0  0  0  0  0
    6.7408    2.1972   -1.0424 C   0  0  0  0  0  0  0  0  0  0  0  0
    6.6889    3.3516    0.0042 C   0  0  0  0  0  0  0  0  0  0  0  0
    5.4838    4.1665    0.0039 N   0  0  0  0  0  0  0  0  0  0  0  0
    4.2986    3.4400    0.4299 C   0  0  0  0  0  0  0  0  0  0  0  0
    3.0949    4.3608    0.5782 C   0  0  0  0  0  0  0  0  0  0  0  0
    2.7975    5.0823   -0.7542 C   0  0  0  0  0  0  0  0  0  0  0  0
    1.9961    5.8207   -0.5829 H   0  0  0  0  0  0  0  0  0  0  0  0
    4.0693    5.8211   -1.1958 C   0  0  0  0  0  0  0  0  0  0  0  0
    5.3044    4.9175   -1.2357 C   0  0  0  0  0  0  0  0  0  0  0  0
    2.2844    4.1011   -1.8091 C   0  0  0  0  0  0  0  0  0  0  0  0
    2.9594    3.7966   -2.7777 O   0  0  0  0  0  0  0  0  0  0  0  0
    0.9322    3.4800   -1.6257 C   0  0  0  0  0  0  0  0  0  0  0  0
    0.0163    3.8747   -0.6363 C   0  0  0  0  0  0  0  0  0  0  0  0
   -1.2216    3.2432   -0.5168 C   0  0  0  0  0  0  0  0  0  0  0  0
   -1.5376    2.2121   -1.3982 C   0  0  0  0  0  0  0  0  0  0  0  0
   -2.7170    1.5945   -1.2795 F   0  0  0  0  0  0  0  0  0  0  0  0
   -0.6578    1.8063   -2.4012 C   0  0  0  0  0  0  0  0  0  0  0  0
    0.5723    2.4433   -2.5058 C   0  0  0  0  0  0  0  0  0  0  0  0
    1.5756   -0.5484    1.7801 H   0  0  0  0  0  0  0  0  0  0  0  0
    4.4844    0.1425   -2.2690 H   0  0  0  0  0  0  0  0  0  0  0  0
    2.0697   -0.4648   -2.5108 H   0  0  0  0  0  0  0  0  0  0  0  0
    6.9288    0.0359   -1.2370 H   0  0  0  0  0  0  0  0  0  0  0  0
    7.6822    0.7023    0.2289 H   0  0  0  0  0  0  0  0  0  0  0  0
    5.8644    2.2609   -1.7073 H   0  0  0  0  0  0  0  0  0  0  0  0
    7.6179    2.3163   -1.6992 H   0  0  0  0  0  0  0  0  0  0  0  0
    7.5433    4.0271   -0.1651 H   0  0  0  0  0  0  0  0  0  0  0  0
    6.8202    2.9357    1.0165 H   0  0  0  0  0  0  0  0  0  0  0  0
    4.5162    2.9658    1.3996 H   0  0  0  0  0  0  0  0  0  0  0  0
    4.0246    2.6216   -0.2687 H   0  0  0  0  0  0  0  0  0  0  0  0
    2.2305    3.7748    0.9231 H   0  0  0  0  0  0  0  0  0  0  0  0
    3.3119    5.1228    1.3444 H   0  0  0  0  0  0  0  0  0  0  0  0
    3.9251    6.2709   -2.1897 H   0  0  0  0  0  0  0  0  0  0  0  0
    4.2449    6.6407   -0.4798 H   0  0  0  0  0  0  0  0  0  0  0  0
    5.2187    4.2569   -2.1186 H   0  0  0  0  0  0  0  0  0  0  0  0
    6.2031    5.5405   -1.3844 H   0  0  0  0  0  0  0  0  0  0  0  0
    0.2570    4.6860    0.0513 H   0  0  0  0  0  0  0  0  0  0  0  0
   -1.9441    3.5349    0.2471 H   0  0  0  0  0  0  0  0  0  0  0  0
   -0.9444    0.9893   -3.0642 H   0  0  0  0  0  0  0  0  0  0  0  0
    1.2924    2.1535   -3.2716 H   0  0  0  0  0  0  0  0  0  0  0  0
  1  2  1  0
  2  3  2  0
  2 12  1  0
  3  4  1  0
  3 32  1  0
  4  5  1  0
  4 10  2  0
  5  6  1  0
  5  7  1  0
  7  8  2  0
  7  9  1  0
  9 10  1  0
  9 13  1  0
 10 11  1  0
 11 12  2  0
 11 33  1  0
 12 34  1  0
 13 14  1  0
 13 35  1  0
 13 36  1  0
 14 15  1  0
 14 37  1  0
 14 38  1  0
 15 16  1  0
 15 39  1  0
 15 40  1  0
 16 17  1  0
 16 22  1  0
 17 18  1  0
 17 41  1  0
 17 42  1  0
 18 19  1  0
 18 43  1  0
 18 44  1  0
 19 20  1  0
 19 21  1  0
 19 23  1  0
 21 22  1  0
 21 45  1  0
 21 46  1  0
 22 47  1  0
 22 48  1  0
 23 24  2  0
 23 25  1  0
 25 26  2  0
 25 31  1  0
 26 27  1  0
 26 49  1  0
 27 28  2  0
 27 50  1  0
 28 29  1  0
 28 30  1  0
 30 31  2  0
 30 51  1  0
 31 52  1  0
M  END

