rmsd132.gzmat
 OpenBabel08211713373D

 52 55  0  0  0  0  0  0  0  0999 V2000
    0.0000    0.0000    0.0000 Cl  0  0  0  0  0  0  0  0  0  0  0  0
    1.7103    0.0000    0.0000 C   0  0  0  0  0  0  0  0  0  0  0  0
    2.3549    0.0000    1.2350 C   0  0  0  0  0  0  0  0  0  0  0  0
    3.7383    0.0416    1.1909 C   0  0  0  0  0  0  0  0  0  0  0  0
    4.6918    0.0947    2.2156 N   0  0  0  0  0  0  0  0  0  0  0  0
    4.5015    0.0556    3.1946 H   0  0  0  0  0  0  0  0  0  0  0  0
    5.9852    0.2120    1.6457 C   0  0  0  0  0  0  0  0  0  0  0  0
    7.0191    0.2927    2.2569 O   0  0  0  0  0  0  0  0  0  0  0  0
    5.8237    0.1406    0.2335 N   0  0  0  0  0  0  0  0  0  0  0  0
    4.4455    0.0954   -0.0615 C   0  0  0  0  0  0  0  0  0  0  0  0
    3.7635    0.0652   -1.2668 C   0  0  0  0  0  0  0  0  0  0  0  0
    2.3673    0.0139   -1.2243 C   0  0  0  0  0  0  0  0  0  0  0  0
    6.8312    0.6968   -0.6680 C   0  0  0  0  0  0  0  0  0  0  0  0
    6.5163    2.1244   -1.1414 C   0  0  0  0  0  0  0  0  0  0  0  0
    6.5344    3.1615    0.0050 C   0  0  0  0  0  0  0  0  0  0  0  0
    5.3595    4.0532    0.0974 N   0  0  0  0  0  0  0  0  0  0  0  0
    4.1262    3.2915    0.3980 C   0  0  0  0  0  0  0  0  0  0  0  0
    2.9417    4.2500    0.5990 C   0  0  0  0  0  0  0  0  0  0  0  0
    2.7142    5.1045   -0.6551 C   0  0  0  0  0  0  0  0  0  0  0  0
    1.9172    5.8630   -0.4510 H   0  0  0  0  0  0  0  0  0  0  0  0
    4.0214    5.8454   -0.9764 C   0  0  0  0  0  0  0  0  0  0  0  0
    5.2072    4.8740   -1.1277 C   0  0  0  0  0  0  0  0  0  0  0  0
    2.2612    4.2541   -1.8274 C   0  0  0  0  0  0  0  0  0  0  0  0
    2.9174    4.1830   -2.8411 O   0  0  0  0  0  0  0  0  0  0  0  0
    0.9804    3.5045   -1.7421 C   0  0  0  0  0  0  0  0  0  0  0  0
    0.0124    3.7708   -0.7721 C   0  0  0  0  0  0  0  0  0  0  0  0
   -1.1669    3.0328   -0.7334 C   0  0  0  0  0  0  0  0  0  0  0  0
   -1.3482    2.0364   -1.6927 C   0  0  0  0  0  0  0  0  0  0  0  0
   -2.4564    1.3149   -1.6509 F   0  0  0  0  0  0  0  0  0  0  0  0
   -0.4126    1.7622   -2.6905 C   0  0  0  0  0  0  0  0  0  0  0  0
    0.7593    2.5112   -2.7029 C   0  0  0  0  0  0  0  0  0  0  0  0
    1.8087   -0.0284    2.1746 H   0  0  0  0  0  0  0  0  0  0  0  0
    4.2905    0.0832   -2.2179 H   0  0  0  0  0  0  0  0  0  0  0  0
    1.8023   -0.0085   -2.1578 H   0  0  0  0  0  0  0  0  0  0  0  0
    6.9131    0.0126   -1.5467 H   0  0  0  0  0  0  0  0  0  0  0  0
    7.8185    0.6694   -0.1417 H   0  0  0  0  0  0  0  0  0  0  0  0
    5.5356    2.1418   -1.6580 H   0  0  0  0  0  0  0  0  0  0  0  0
    7.2518    2.4143   -1.9161 H   0  0  0  0  0  0  0  0  0  0  0  0
    7.4330    3.8120   -0.0889 H   0  0  0  0  0  0  0  0  0  0  0  0
    6.6459    2.6575    0.9922 H   0  0  0  0  0  0  0  0  0  0  0  0
    4.3006    2.7204    1.3370 H   0  0  0  0  0  0  0  0  0  0  0  0
    3.8710    2.5544   -0.3951 H   0  0  0  0  0  0  0  0  0  0  0  0
    2.0415    3.6682    0.8661 H   0  0  0  0  0  0  0  0  0  0  0  0
    3.1546    4.9158    1.4606 H   0  0  0  0  0  0  0  0  0  0  0  0
    3.9129    6.4314   -1.9084 H   0  0  0  0  0  0  0  0  0  0  0  0
    4.2420    6.5663   -0.1645 H   0  0  0  0  0  0  0  0  0  0  0  0
    5.0730    4.2605   -2.0460 H   0  0  0  0  0  0  0  0  0  0  0  0
    6.1444    5.4572   -1.2621 H   0  0  0  0  0  0  0  0  0  0  0  0
    0.1667    4.5629   -0.0375 H   0  0  0  0  0  0  0  0  0  0  0  0
   -1.9214    3.2258    0.0266 H   0  0  0  0  0  0  0  0  0  0  0  0
   -0.5901    0.9865   -3.4325 H   0  0  0  0  0  0  0  0  0  0  0  0
    1.5177    2.3314   -3.4728 H   0  0  0  0  0  0  0  0  0  0  0  0
  2  1  1  0  0  0  0
  2  3  2  0  0  0  0
  3 32  1  0  0  0  0
  4  3  1  0  0  0  0
  4  5  1  0  0  0  0
  5  6  1  0  0  0  0
  7  5  1  0  0  0  0
  7  8  2  0  0  0  0
  9  7  1  0  0  0  0
 10  9  1  0  0  0  0
 10  4  2  0  0  0  0
 11 12  2  0  0  0  0
 11 10  1  0  0  0  0
 12  2  1  0  0  0  0
 13 36  1  0  0  0  0
 13  9  1  0  0  0  0
 14 13  1  0  0  0  0
 14 15  1  0  0  0  0
 15 16  1  0  0  0  0
 15 40  1  0  0  0  0
 16 17  1  0  0  0  0
 17 18  1  0  0  0  0
 17 41  1  0  0  0  0
 18 43  1  0  0  0  0
 18 44  1  0  0  0  0
 19 20  1  0  0  0  0
 19 18  1  0  0  0  0
 21 19  1  0  0  0  0
 21 46  1  0  0  0  0
 22 21  1  0  0  0  0
 22 16  1  0  0  0  0
 23 25  1  0  0  0  0
 23 19  1  0  0  0  0
 24 23  2  0  0  0  0
 25 26  2  0  0  0  0
 26 27  1  0  0  0  0
 26 49  1  0  0  0  0
 27 50  1  0  0  0  0
 28 29  1  0  0  0  0
 28 27  2  0  0  0  0
 30 28  1  0  0  0  0
 31 30  2  0  0  0  0
 31 25  1  0  0  0  0
 33 11  1  0  0  0  0
 34 12  1  0  0  0  0
 35 13  1  0  0  0  0
 37 14  1  0  0  0  0
 38 14  1  0  0  0  0
 39 15  1  0  0  0  0
 42 17  1  0  0  0  0
 45 21  1  0  0  0  0
 47 22  1  0  0  0  0
 48 22  1  0  0  0  0
 51 30  1  0  0  0  0
 52 31  1  0  0  0  0
M  END
$$$$
