52
rmsd14.gzmat
Cl         0.00000        0.00000        0.00000
C          1.71190        0.00000        0.00000
C          2.35510        0.00000        1.23550
C          3.73820       -0.06180        1.19390
N          4.69180       -0.08240        2.21740
H          4.49440       -0.15250        3.19430
C          5.98390       -0.22860        1.65050
O          7.01470       -0.31380        2.26530
N          5.82430       -0.18060        0.23390
C          4.44450       -0.12860       -0.05870
C          3.76390       -0.08050       -1.26420
C          2.36690       -0.02240       -1.22450
C          6.81940       -0.78840       -0.65440
C          7.28530       -2.18090       -0.18570
C          7.08090       -3.30050       -1.22570
N          5.82360       -4.07470       -1.15310
C          4.64770       -3.23360       -1.46750
C          3.39360       -4.11820       -1.56620
C          3.12860       -4.82790       -0.23000
H          2.29050       -5.55790       -0.35730
C          4.38800       -5.61000        0.17380
C          5.65950       -4.73960        0.16260
C          2.73480       -3.81220        0.82580
O          3.54120       -3.35160        1.60040
C          1.31360       -3.38570        0.92230
C          0.91330       -2.76940        2.11380
C         -0.39170       -2.31460        2.27150
C         -1.27310       -2.48650        1.20420
F         -2.51140       -2.03780        1.32970
C         -0.90800       -3.10330        0.00750
C          0.40280       -3.55320       -0.12180
H          1.80790        0.03610        2.17370
H          4.29040       -0.09030       -2.21480
H          1.80360        0.00350       -2.15730
H          7.69360       -0.09020       -0.68240
H          6.40600       -0.82850       -1.68580
H          6.78470       -2.46140        0.76420
H          8.35760       -2.12710        0.09050
H          7.91120       -4.03990       -1.12910
H          7.16560       -2.89520       -2.25790
H          4.82480       -2.72930       -2.44080
H          4.48070       -2.44640       -0.70100
H          2.53190       -3.50290       -1.87890
H          3.54520       -4.87910       -2.35870
H          4.26030       -6.04570        1.18270
H          4.52410       -6.45740       -0.52730
H          5.61750       -4.01570        1.00910
H          6.54840       -5.38640        0.32910
H          1.64030       -2.64410        2.92280
H         -0.70930       -1.83170        3.19310
H         -1.62080       -3.22150       -0.80550
H          0.70780       -4.03170       -1.05350
