55
rmsd221.gzmat
C          0.00000        0.00000        0.00000
C          1.38060        0.00000        0.00000
C          2.01800        0.00000        1.25100
C          1.27830        0.00950        2.47530
C         -0.12900        0.00370        2.43640
C         -0.74630        0.00060        1.19830
C         -0.90550       -0.00990        3.70330
C          2.22940        0.01790        3.54420
C          3.49020        0.00430        2.97370
N          3.37600       -0.05800        1.57080
C          4.45900        0.11540        0.61920
C          5.18080        1.43830        0.69590
C          6.25750        1.65950       -0.16960
C          7.00790        2.82910       -0.07120
C          6.72970        3.76300        0.92500
C          5.65400        3.53960        1.78750
C          4.84420        2.41080        1.63130
C          5.41100        4.42390        2.94300
N          5.54720        5.76550        2.81710
H          5.45690        6.40110        3.59220
H          5.75850        6.17980        1.92130
N          5.04560        3.88450        4.11730
C          4.77090        0.08610        3.69370
O          5.10670        1.08570        4.32150
N          5.59060       -1.00810        3.65940
C          6.91990       -0.93790        4.28560
C          7.73480        0.13320        3.60190
C          8.37290       -0.13180        2.38990
C          9.02140        0.90970        1.73620
C          9.07290        2.20220        2.24510
C          8.40220        2.42540        3.44020
C          7.76210        1.41990        4.14840
Cl         8.27900        4.03550        4.01380
Cl         9.71690        0.61640        0.21100
H         -0.54130       -0.00380       -0.94980
H          1.94490       -0.00390       -0.92480
H         -1.83450       -0.00530        1.13120
H         -1.98720        0.10850        3.54170
H         -0.59040        0.79580        4.38300
H         -0.76480       -0.96120        4.24310
H          1.99250        0.02350        4.59050
H          4.04990       -0.02960       -0.41820
H          5.20360       -0.71120        0.77220
H          6.52010        0.91260       -0.92500
H          7.83610        3.00320       -0.76470
H          7.36960        4.64000        1.03430
H          3.95030        2.28950        2.25500
H          4.97370        2.85160        4.21440
H          4.92650        4.41780        4.96360
H          5.35520       -1.83430        3.12930
H          7.41350       -1.93600        4.21990
H          6.80230       -0.71130        5.37720
H          8.35840       -1.13700        1.96400
H          9.60930        3.00060        1.72790
H          7.25960        1.62130        5.10020
