55
rmsd122.gzmat
C          0.00000        0.00000        0.00000
C          1.38080        0.00000        0.00000
C          2.01780        0.00000        1.25070
C          1.28100       -0.00680        2.47710
C         -0.12600        0.00390        2.43760
C         -0.74420        0.00300        1.19910
C         -0.91110        0.03400        3.69910
C          2.23630       -0.02410        3.54330
C          3.49520       -0.01960        2.96930
N          3.37660        0.04880        1.56720
C          4.45570       -0.12030        0.61160
C          5.12090       -1.47490        0.61980
C          6.12560       -1.72730       -0.32020
C          6.84450       -2.91980       -0.27480
C          6.60750       -3.84740        0.73740
C          5.59660       -3.59810        1.66900
C          4.81300       -2.44440        1.56820
C          5.39980       -4.48380        2.83210
N          5.07790       -3.94740        4.02100
H          4.99090       -4.48280        4.87000
H          5.00520       -2.91600        4.12280
N          5.53840       -5.82520        2.70370
C          4.78450       -0.11910        3.67240
O          5.13790       -1.13820        4.25710
N          5.59880        0.98040        3.65970
C          6.95040        0.88450        4.23330
C          7.72800       -0.16380        3.47450
C          7.79470       -1.46370        3.98400
C          8.38180       -2.44910        3.20520
C          8.96050       -2.19450        1.96900
C          8.87350       -0.88900        1.49960
C          8.27880        0.13490        2.22770
Cl         9.45130       -0.55580       -0.06590
Cl         8.30360       -4.07350        3.74540
H         -0.54110       -0.00050       -0.94990
H          1.94600        0.00050       -0.92440
H         -1.83240        0.00890        1.13440
H         -0.99360        1.06660        4.08100
H         -0.44830       -0.56870        4.49360
H         -1.93790       -0.33960        3.56770
H          2.00380       -0.02990        4.59060
H          5.23750        0.66130        0.81240
H          4.05880        0.10300       -0.41620
H          6.35700       -0.98710       -1.09250
H          7.61630       -3.11650       -1.02490
H          7.22850       -4.74200        0.80230
H          3.96160       -2.30040        2.24450
H          5.72530       -6.24110        1.80340
H          5.47960       -6.45980        3.48290
H          5.34750        1.82530        3.16800
H          6.87310        0.61870        5.31910
H          7.44680        1.88210        4.18410
H          7.36030       -1.69280        4.96220
H          9.45300       -2.97920        1.39100
H          8.23620        1.15120        1.83140
