rmsd119.gzmat
 OpenBabel08211713363D

 55 58  0  0  0  0  0  0  0  0999 V2000
    0.0000    0.0000    0.0000 C   0  0  0  0  0  0  0  0  0  0  0  0
    1.3803    0.0000    0.0000 C   0  0  0  0  0  0  0  0  0  0  0  0
    2.0169    0.0000    1.2516 C   0  0  0  0  0  0  0  0  0  0  0  0
    1.2780    0.0087    2.4766 C   0  0  0  0  0  0  0  0  0  0  0  0
   -0.1296   -0.0004    2.4366 C   0  0  0  0  0  0  0  0  0  0  0  0
   -0.7465   -0.0021    1.1985 C   0  0  0  0  0  0  0  0  0  0  0  0
   -0.9059   -0.0160    3.7037 C   0  0  0  0  0  0  0  0  0  0  0  0
    2.2298    0.0218    3.5448 C   0  0  0  0  0  0  0  0  0  0  0  0
    3.4900    0.0110    2.9726 C   0  0  0  0  0  0  0  0  0  0  0  0
    3.3740   -0.0459    1.5715 N   0  0  0  0  0  0  0  0  0  0  0  0
    4.4615    0.0654    0.6176 C   0  0  0  0  0  0  0  0  0  0  0  0
    5.1791    1.3929    0.6076 C   0  0  0  0  0  0  0  0  0  0  0  0
    6.1957    1.5896   -0.3327 C   0  0  0  0  0  0  0  0  0  0  0  0
    6.9592    2.7550   -0.3061 C   0  0  0  0  0  0  0  0  0  0  0  0
    6.7522    3.7101    0.6866 C   0  0  0  0  0  0  0  0  0  0  0  0
    5.7284    3.5173    1.6180 C   0  0  0  0  0  0  0  0  0  0  0  0
    4.9054    2.3897    1.5380 C   0  0  0  0  0  0  0  0  0  0  0  0
    5.5550    4.4368    2.7582 C   0  0  0  0  0  0  0  0  0  0  0  0
    5.2016    3.9409    3.9557 N   0  0  0  0  0  0  0  0  0  0  0  0
    5.1161    4.5001    4.7891 H   0  0  0  0  0  0  0  0  0  0  0  0
    5.0981    2.9152    4.0810 H   0  0  0  0  0  0  0  0  0  0  0  0
    5.7433    5.7692    2.6013 N   0  0  0  0  0  0  0  0  0  0  0  0
    4.7792    0.1017    3.6771 C   0  0  0  0  0  0  0  0  0  0  0  0
    5.1715    1.1384    4.2021 O   0  0  0  0  0  0  0  0  0  0  0  0
    5.5483   -1.0277    3.7369 N   0  0  0  0  0  0  0  0  0  0  0  0
    6.8951   -0.9505    4.3247 C   0  0  0  0  0  0  0  0  0  0  0  0
    7.7104    0.0538    3.5459 C   0  0  0  0  0  0  0  0  0  0  0  0
    7.8211    1.3620    4.0268 C   0  0  0  0  0  0  0  0  0  0  0  0
    8.4431    2.3084    3.2272 C   0  0  0  0  0  0  0  0  0  0  0  0
    9.0161    2.0049    1.9993 C   0  0  0  0  0  0  0  0  0  0  0  0
    8.8857    0.6931    1.5594 C   0  0  0  0  0  0  0  0  0  0  0  0
    8.2520   -0.2921    2.3079 C   0  0  0  0  0  0  0  0  0  0  0  0
    9.4597    0.3029    0.0056 Cl  0  0  0  0  0  0  0  0  0  0  0  0
    8.4232    3.9476    3.7280 Cl  0  0  0  0  0  0  0  0  0  0  0  0
   -0.5421   -0.0002   -0.9492 H   0  0  0  0  0  0  0  0  0  0  0  0
    1.9472    0.0002   -0.9233 H   0  0  0  0  0  0  0  0  0  0  0  0
   -1.8345   -0.0081    1.1313 H   0  0  0  0  0  0  0  0  0  0  0  0
   -1.9932    0.0257    3.5401 H   0  0  0  0  0  0  0  0  0  0  0  0
   -0.6438    0.8365    4.3487 H   0  0  0  0  0  0  0  0  0  0  0  0
   -0.7043   -0.9330    4.2817 H   0  0  0  0  0  0  0  0  0  0  0  0
    1.9940    0.0312    4.5911 H   0  0  0  0  0  0  0  0  0  0  0  0
    4.0595   -0.1562   -0.4086 H   0  0  0  0  0  0  0  0  0  0  0  0
    5.2122   -0.7425    0.8329 H   0  0  0  0  0  0  0  0  0  0  0  0
    6.4015    0.8266   -1.0901 H   0  0  0  0  0  0  0  0  0  0  0  0
    7.7410    2.9086   -1.0560 H   0  0  0  0  0  0  0  0  0  0  0  0
    7.4065    4.5816    0.7385 H   0  0  0  0  0  0  0  0  0  0  0  0
    4.0506    2.2860    2.2172 H   0  0  0  0  0  0  0  0  0  0  0  0
    5.9556    6.1579    1.6947 H   0  0  0  0  0  0  0  0  0  0  0  0
    5.7024    6.4222    3.3663 H   0  0  0  0  0  0  0  0  0  0  0  0
    5.2698   -1.8882    3.2884 H   0  0  0  0  0  0  0  0  0  0  0  0
    7.3654   -1.9618    4.3130 H   0  0  0  0  0  0  0  0  0  0  0  0
    6.8117   -0.6494    5.4007 H   0  0  0  0  0  0  0  0  0  0  0  0
    7.3924    1.6275    4.9978 H   0  0  0  0  0  0  0  0  0  0  0  0
    9.5372    2.7591    1.4061 H   0  0  0  0  0  0  0  0  0  0  0  0
    8.1721   -1.3148    1.9336 H   0  0  0  0  0  0  0  0  0  0  0  0
  1  6  1  0  0  0  0
  2  1  2  0  0  0  0
  2  3  1  0  0  0  0
  3 10  1  0  0  0  0
  3  4  2  0  0  0  0
  4  8  1  0  0  0  0
  5  4  1  0  0  0  0
  5  7  1  0  0  0  0
  6  5  2  0  0  0  0
  7 40  1  0  0  0  0
  7 39  1  0  0  0  0
  8 41  1  0  0  0  0
  9  8  2  0  0  0  0
  9 23  1  0  0  0  0
 10  9  1  0  0  0  0
 11 43  1  0  0  0  0
 11 10  1  0  0  0  0
 12 11  1  0  0  0  0
 12 17  2  0  0  0  0
 13 14  2  0  0  0  0
 13 12  1  0  0  0  0
 14 15  1  0  0  0  0
 15 46  1  0  0  0  0
 15 16  2  0  0  0  0
 16 18  1  0  0  0  0
 17 16  1  0  0  0  0
 17 47  1  0  0  0  0
 18 19  1  0  0  0  0
 19 21  1  0  0  0  0
 19 20  1  0  0  0  0
 22 18  2  0  0  0  0
 22 49  1  0  0  0  0
 23 25  1  0  0  0  0
 23 24  2  0  0  0  0
 25 26  1  0  0  0  0
 26 52  1  0  0  0  0
 27 28  1  0  0  0  0
 27 26  1  0  0  0  0
 28 53  1  0  0  0  0
 29 34  1  0  0  0  0
 29 28  2  0  0  0  0
 30 29  1  0  0  0  0
 31 30  2  0  0  0  0
 31 32  1  0  0  0  0
 32 27  2  0  0  0  0
 33 31  1  0  0  0  0
 35  1  1  0  0  0  0
 36  2  1  0  0  0  0
 37  6  1  0  0  0  0
 38  7  1  0  0  0  0
 42 11  1  0  0  0  0
 44 13  1  0  0  0  0
 45 14  1  0  0  0  0
 48 22  1  0  0  0  0
 50 25  1  0  0  0  0
 51 26  1  0  0  0  0
 54 30  1  0  0  0  0
 55 32  1  0  0  0  0
M  END
$$$$
