rmsd120.gzmat
 OpenBabel08211713363D

 55 58  0  0  0  0  0  0  0  0999 V2000
    0.0000    0.0000    0.0000 C   0  0  0  0  0  0  0  0  0  0  0  0
    1.3804    0.0000    0.0000 C   0  0  0  0  0  0  0  0  0  0  0  0
    2.0182    0.0000    1.2511 C   0  0  0  0  0  0  0  0  0  0  0  0
    1.2790    0.0076    2.4755 C   0  0  0  0  0  0  0  0  0  0  0  0
   -0.1286   -0.0036    2.4365 C   0  0  0  0  0  0  0  0  0  0  0  0
   -0.7462   -0.0042    1.1987 C   0  0  0  0  0  0  0  0  0  0  0  0
   -0.9042   -0.0197    3.7041 C   0  0  0  0  0  0  0  0  0  0  0  0
    2.2304    0.0232    3.5436 C   0  0  0  0  0  0  0  0  0  0  0  0
    3.4911    0.0154    2.9726 C   0  0  0  0  0  0  0  0  0  0  0  0
    3.3762   -0.0491    1.5707 N   0  0  0  0  0  0  0  0  0  0  0  0
    4.4595    0.1051    0.6165 C   0  0  0  0  0  0  0  0  0  0  0  0
    5.1818    1.4290    0.6668 C   0  0  0  0  0  0  0  0  0  0  0  0
    6.2457    1.6391   -0.2171 C   0  0  0  0  0  0  0  0  0  0  0  0
    7.0011    2.8070   -0.1397 C   0  0  0  0  0  0  0  0  0  0  0  0
    6.7403    3.7503    0.8523 C   0  0  0  0  0  0  0  0  0  0  0  0
    5.6759    3.5395    1.7320 C   0  0  0  0  0  0  0  0  0  0  0  0
    4.8601    2.4123    1.5959 C   0  0  0  0  0  0  0  0  0  0  0  0
    5.4466    4.4372    2.8801 C   0  0  0  0  0  0  0  0  0  0  0  0
    5.6179    5.7744    2.7495 N   0  0  0  0  0  0  0  0  0  0  0  0
    5.5360    6.4157    3.5211 H   0  0  0  0  0  0  0  0  0  0  0  0
    5.8551    6.1792    1.8562 H   0  0  0  0  0  0  0  0  0  0  0  0
    5.0562    3.9147    4.0543 N   0  0  0  0  0  0  0  0  0  0  0  0
    4.7723    0.1084    3.6904 C   0  0  0  0  0  0  0  0  0  0  0  0
    5.1133    1.1205    4.2948 O   0  0  0  0  0  0  0  0  0  0  0  0
    5.5876   -0.9894    3.6780 N   0  0  0  0  0  0  0  0  0  0  0  0
    6.9187   -0.9121    4.2995 C   0  0  0  0  0  0  0  0  0  0  0  0
    7.7373    0.1392    3.5901 C   0  0  0  0  0  0  0  0  0  0  0  0
    7.7711    1.4376    4.1070 C   0  0  0  0  0  0  0  0  0  0  0  0
    8.4152    2.4233    3.3753 C   0  0  0  0  0  0  0  0  0  0  0  0
    9.0837    2.1700    2.1849 C   0  0  0  0  0  0  0  0  0  0  0  0
    9.0277    0.8661    1.7069 C   0  0  0  0  0  0  0  0  0  0  0  0
    8.3748   -0.1573    2.3849 C   0  0  0  0  0  0  0  0  0  0  0  0
    9.7255    0.5317    0.1914 Cl  0  0  0  0  0  0  0  0  0  0  0  0
    8.3019    4.0465    3.9140 Cl  0  0  0  0  0  0  0  0  0  0  0  0
   -0.5417    0.0010   -0.9497 H   0  0  0  0  0  0  0  0  0  0  0  0
    1.9458   -0.0008   -0.9241 H   0  0  0  0  0  0  0  0  0  0  0  0
   -1.8343   -0.0106    1.1325 H   0  0  0  0  0  0  0  0  0  0  0  0
   -1.9919   -0.0440    3.5402 H   0  0  0  0  0  0  0  0  0  0  0  0
   -0.6912    0.8686    4.3182 H   0  0  0  0  0  0  0  0  0  0  0  0
   -0.6529   -0.9027    4.3143 H   0  0  0  0  0  0  0  0  0  0  0  0
    1.9944    0.0309    4.5900 H   0  0  0  0  0  0  0  0  0  0  0  0
    4.0511   -0.0613   -0.4178 H   0  0  0  0  0  0  0  0  0  0  0  0
    5.2050   -0.7177    0.7854 H   0  0  0  0  0  0  0  0  0  0  0  0
    6.4940    0.8851   -0.9703 H   0  0  0  0  0  0  0  0  0  0  0  0
    7.8190    2.9726   -0.8476 H   0  0  0  0  0  0  0  0  0  0  0  0
    7.3839    4.6265    0.9434 H   0  0  0  0  0  0  0  0  0  0  0  0
    3.9730    2.2995    2.2304 H   0  0  0  0  0  0  0  0  0  0  0  0
    4.9680    2.8838    4.1606 H   0  0  0  0  0  0  0  0  0  0  0  0
    4.9334    4.4576    4.8940 H   0  0  0  0  0  0  0  0  0  0  0  0
    5.3472   -1.8262    3.1673 H   0  0  0  0  0  0  0  0  0  0  0  0
    7.4075   -1.9140    4.2547 H   0  0  0  0  0  0  0  0  0  0  0  0
    6.8051   -0.6610    5.3861 H   0  0  0  0  0  0  0  0  0  0  0  0
    7.2713    1.6640    5.0544 H   0  0  0  0  0  0  0  0  0  0  0  0
    9.6223    2.9545    1.6492 H   0  0  0  0  0  0  0  0  0  0  0  0
    8.3560   -1.1717    1.9815 H   0  0  0  0  0  0  0  0  0  0  0  0
  1  6  1  0  0  0  0
  2  1  2  0  0  0  0
  2  3  1  0  0  0  0
  3 10  1  0  0  0  0
  3  4  2  0  0  0  0
  4  8  1  0  0  0  0
  5  4  1  0  0  0  0
  5  7  1  0  0  0  0
  6  5  2  0  0  0  0
  7 40  1  0  0  0  0
  7 39  1  0  0  0  0
  8 41  1  0  0  0  0
  9  8  2  0  0  0  0
  9 23  1  0  0  0  0
 10  9  1  0  0  0  0
 11 12  1  0  0  0  0
 11 43  1  0  0  0  0
 11 10  1  0  0  0  0
 12 17  2  0  0  0  0
 13 14  2  0  0  0  0
 13 12  1  0  0  0  0
 14 15  1  0  0  0  0
 15 46  1  0  0  0  0
 15 16  2  0  0  0  0
 16 18  1  0  0  0  0
 17 16  1  0  0  0  0
 17 47  1  0  0  0  0
 18 22  1  0  0  0  0
 19 18  2  0  0  0  0
 19 20  1  0  0  0  0
 21 19  1  0  0  0  0
 22 48  1  0  0  0  0
 22 49  1  0  0  0  0
 23 24  2  0  0  0  0
 25 23  1  0  0  0  0
 25 26  1  0  0  0  0
 26 52  1  0  0  0  0
 27 28  1  0  0  0  0
 27 26  1  0  0  0  0
 28 53  1  0  0  0  0
 29 34  1  0  0  0  0
 29 28  2  0  0  0  0
 30 29  1  0  0  0  0
 31 30  2  0  0  0  0
 31 32  1  0  0  0  0
 32 27  2  0  0  0  0
 33 31  1  0  0  0  0
 35  1  1  0  0  0  0
 36  2  1  0  0  0  0
 37  6  1  0  0  0  0
 38  7  1  0  0  0  0
 42 11  1  0  0  0  0
 44 13  1  0  0  0  0
 45 14  1  0  0  0  0
 50 25  1  0  0  0  0
 51 26  1  0  0  0  0
 54 30  1  0  0  0  0
 55 32  1  0  0  0  0
M  END
$$$$
