55
rmsd111.gzmat
C          0.00000        0.00000        0.00000
C          1.38080        0.00000        0.00000
C          2.01780        0.00000        1.25060
C          1.27910       -0.00250        2.47560
C         -0.12790       -0.01050        2.43680
C         -0.74550       -0.00340        1.19830
C         -0.90520       -0.03030        3.70330
C          2.23210        0.00780        3.54370
C          3.49180        0.01410        2.97200
N          3.37760       -0.04790        1.56780
C          4.45310        0.17570        0.61810
C          5.08060        1.54770        0.65940
C          6.08170        1.85110       -0.26930
C          6.76460        3.06330       -0.19290
C          6.49640        3.96010        0.83930
C          5.49030        3.65890        1.76050
C          4.74150        2.48570        1.62840
C          5.25700        4.50880        2.94350
N          5.34680        5.85700        2.84610
H          5.25950        6.47130        3.63870
H          5.52500        6.29910        1.95660
N          4.94540        3.93370        4.11680
C          4.77720        0.12000        3.68050
O          5.10850        1.13390        4.28710
N          5.61420       -0.96130        3.64550
C          6.96430       -0.84810        4.21980
C          7.71840        0.23320        3.48390
C          7.74450        1.52720        4.01260
C          8.30790        2.54000        3.25150
C          8.90240        2.31940        2.01620
C          8.85890        1.01840        1.52900
C          8.28870       -0.03210        2.23870
Cl         9.45980        0.72220       -0.03520
Cl         8.17580        4.15440        3.81150
H         -0.54130        0.00100       -0.94970
H          1.94620       -0.00190       -0.92410
H         -1.83350       -0.00380        1.13160
H         -1.99260        0.00540        3.53850
H         -0.64950        0.82370        4.34860
H         -0.69930       -0.94560        4.28250
H          1.99630        0.00140        4.59050
H          4.06400       -0.03290       -0.41570
H          5.25640       -0.58790        0.80180
H          6.33890        1.13620       -1.05700
H          7.53280        3.30060       -0.93500
H          7.09000        4.87130        0.92730
H          3.89240        2.30320        2.29760
H          4.91320        2.89750        4.19740
H          4.82440        4.44660        4.97530
H          5.38160       -1.79860        3.13160
H          7.48180       -1.83370        4.14930
H          6.88330       -0.60670        5.31110
H          7.29770        1.72860        4.99150
H          9.37380        3.12670        1.45220
H          8.28090       -1.04410        1.82930
