rmsd221.gzmat
 OpenBabel08211713363D

 55 58  0  0  0  0  0  0  0  0999 V2000
    0.0000    0.0000    0.0000 C   0  0  0  0  0  0  0  0  0  0  0  0
    1.3806    0.0000    0.0000 C   0  0  0  0  0  0  0  0  0  0  0  0
    2.0180    0.0000    1.2510 C   0  0  0  0  0  0  0  0  0  0  0  0
    1.2783    0.0095    2.4753 C   0  0  0  0  0  0  0  0  0  0  0  0
   -0.1290    0.0037    2.4364 C   0  0  0  0  0  0  0  0  0  0  0  0
   -0.7463    0.0006    1.1983 C   0  0  0  0  0  0  0  0  0  0  0  0
   -0.9055   -0.0099    3.7033 C   0  0  0  0  0  0  0  0  0  0  0  0
    2.2294    0.0179    3.5442 C   0  0  0  0  0  0  0  0  0  0  0  0
    3.4902    0.0043    2.9737 C   0  0  0  0  0  0  0  0  0  0  0  0
    3.3760   -0.0580    1.5708 N   0  0  0  0  0  0  0  0  0  0  0  0
    4.4590    0.1154    0.6192 C   0  0  0  0  0  0  0  0  0  0  0  0
    5.1808    1.4383    0.6959 C   0  0  0  0  0  0  0  0  0  0  0  0
    6.2575    1.6595   -0.1696 C   0  0  0  0  0  0  0  0  0  0  0  0
    7.0079    2.8291   -0.0712 C   0  0  0  0  0  0  0  0  0  0  0  0
    6.7297    3.7630    0.9250 C   0  0  0  0  0  0  0  0  0  0  0  0
    5.6540    3.5396    1.7875 C   0  0  0  0  0  0  0  0  0  0  0  0
    4.8442    2.4108    1.6313 C   0  0  0  0  0  0  0  0  0  0  0  0
    5.4110    4.4239    2.9430 C   0  0  0  0  0  0  0  0  0  0  0  0
    5.5472    5.7655    2.8171 N   0  0  0  0  0  0  0  0  0  0  0  0
    5.4569    6.4011    3.5922 H   0  0  0  0  0  0  0  0  0  0  0  0
    5.7585    6.1798    1.9213 H   0  0  0  0  0  0  0  0  0  0  0  0
    5.0456    3.8845    4.1173 N   0  0  0  0  0  0  0  0  0  0  0  0
    4.7709    0.0861    3.6937 C   0  0  0  0  0  0  0  0  0  0  0  0
    5.1067    1.0857    4.3215 O   0  0  0  0  0  0  0  0  0  0  0  0
    5.5906   -1.0081    3.6594 N   0  0  0  0  0  0  0  0  0  0  0  0
    6.9199   -0.9379    4.2856 C   0  0  0  0  0  0  0  0  0  0  0  0
    7.7348    0.1332    3.6019 C   0  0  0  0  0  0  0  0  0  0  0  0
    8.3729   -0.1318    2.3899 C   0  0  0  0  0  0  0  0  0  0  0  0
    9.0214    0.9097    1.7362 C   0  0  0  0  0  0  0  0  0  0  0  0
    9.0729    2.2022    2.2451 C   0  0  0  0  0  0  0  0  0  0  0  0
    8.4022    2.4254    3.4402 C   0  0  0  0  0  0  0  0  0  0  0  0
    7.7621    1.4199    4.1484 C   0  0  0  0  0  0  0  0  0  0  0  0
    8.2790    4.0355    4.0138 Cl  0  0  0  0  0  0  0  0  0  0  0  0
    9.7169    0.6164    0.2110 Cl  0  0  0  0  0  0  0  0  0  0  0  0
   -0.5413   -0.0038   -0.9498 H   0  0  0  0  0  0  0  0  0  0  0  0
    1.9449   -0.0039   -0.9248 H   0  0  0  0  0  0  0  0  0  0  0  0
   -1.8345   -0.0053    1.1312 H   0  0  0  0  0  0  0  0  0  0  0  0
   -1.9872    0.1085    3.5417 H   0  0  0  0  0  0  0  0  0  0  0  0
   -0.5904    0.7958    4.3830 H   0  0  0  0  0  0  0  0  0  0  0  0
   -0.7648   -0.9612    4.2431 H   0  0  0  0  0  0  0  0  0  0  0  0
    1.9925    0.0235    4.5905 H   0  0  0  0  0  0  0  0  0  0  0  0
    4.0499   -0.0296   -0.4182 H   0  0  0  0  0  0  0  0  0  0  0  0
    5.2036   -0.7112    0.7722 H   0  0  0  0  0  0  0  0  0  0  0  0
    6.5201    0.9126   -0.9250 H   0  0  0  0  0  0  0  0  0  0  0  0
    7.8361    3.0032   -0.7647 H   0  0  0  0  0  0  0  0  0  0  0  0
    7.3696    4.6400    1.0343 H   0  0  0  0  0  0  0  0  0  0  0  0
    3.9503    2.2895    2.2550 H   0  0  0  0  0  0  0  0  0  0  0  0
    4.9737    2.8516    4.2144 H   0  0  0  0  0  0  0  0  0  0  0  0
    4.9265    4.4178    4.9636 H   0  0  0  0  0  0  0  0  0  0  0  0
    5.3552   -1.8343    3.1293 H   0  0  0  0  0  0  0  0  0  0  0  0
    7.4135   -1.9360    4.2199 H   0  0  0  0  0  0  0  0  0  0  0  0
    6.8023   -0.7113    5.3772 H   0  0  0  0  0  0  0  0  0  0  0  0
    8.3584   -1.1370    1.9640 H   0  0  0  0  0  0  0  0  0  0  0  0
    9.6093    3.0006    1.7279 H   0  0  0  0  0  0  0  0  0  0  0  0
    7.2596    1.6213    5.1002 H   0  0  0  0  0  0  0  0  0  0  0  0
  1  6  1  0  0  0  0
  2  1  2  0  0  0  0
  2  3  1  0  0  0  0
  3 10  1  0  0  0  0
  3  4  2  0  0  0  0
  4  8  1  0  0  0  0
  5  4  1  0  0  0  0
  5  7  1  0  0  0  0
  6  5  2  0  0  0  0
  7 40  1  0  0  0  0
  7 39  1  0  0  0  0
  8 41  1  0  0  0  0
  9  8  2  0  0  0  0
  9 23  1  0  0  0  0
 10  9  1  0  0  0  0
 11 12  1  0  0  0  0
 11 43  1  0  0  0  0
 11 10  1  0  0  0  0
 12 17  2  0  0  0  0
 13 14  2  0  0  0  0
 13 12  1  0  0  0  0
 14 15  1  0  0  0  0
 15 46  1  0  0  0  0
 15 16  2  0  0  0  0
 16 18  1  0  0  0  0
 17 16  1  0  0  0  0
 17 47  1  0  0  0  0
 18 22  1  0  0  0  0
 19 18  2  0  0  0  0
 19 20  1  0  0  0  0
 21 19  1  0  0  0  0
 22 48  1  0  0  0  0
 22 49  1  0  0  0  0
 23 24  2  0  0  0  0
 25 23  1  0  0  0  0
 25 26  1  0  0  0  0
 26 52  1  0  0  0  0
 27 32  1  0  0  0  0
 27 26  1  0  0  0  0
 28 27  2  0  0  0  0
 29 30  2  0  0  0  0
 29 28  1  0  0  0  0
 30 31  1  0  0  0  0
 31 33  1  0  0  0  0
 31 32  2  0  0  0  0
 32 55  1  0  0  0  0
 34 29  1  0  0  0  0
 35  1  1  0  0  0  0
 36  2  1  0  0  0  0
 37  6  1  0  0  0  0
 38  7  1  0  0  0  0
 42 11  1  0  0  0  0
 44 13  1  0  0  0  0
 45 14  1  0  0  0  0
 50 25  1  0  0  0  0
 51 26  1  0  0  0  0
 53 28  1  0  0  0  0
 54 30  1  0  0  0  0
M  END
$$$$
