55
rmsd200.gzmat
C          0.00000        0.00000        0.00000
C          1.38100        0.00000        0.00000
C          2.01770        0.00000        1.25070
C          1.27940        0.00510        2.47560
C         -0.12770       -0.00470        2.43710
C         -0.74550       -0.00300        1.19860
C         -0.90530       -0.02340        3.70330
C          2.23260        0.02190        3.54380
C          3.49170        0.02280        2.97180
N          3.37730       -0.05320        1.56820
C          4.45290        0.17130        0.61860
C          5.05430        1.55530        0.63730
C          6.03980        1.86830       -0.30470
C          6.70030        3.09390       -0.24730
C          6.42410        3.99640        0.77770
C          5.43380        3.68480        1.71260
C          4.70810        2.49510        1.60190
C          5.19580        4.54100        2.88980
N          5.24390        5.88990        2.77620
H          5.15050        6.51010        3.56330
H          5.39000        6.32670        1.87830
N          4.92220        3.97080        4.07510
C          4.77970        0.14140        3.67350
O          5.10560        1.16050        4.27430
N          5.62670       -0.93200        3.63330
C          6.98280       -0.80290        4.18920
C          7.71730        0.27830        3.43340
C          7.73120        1.57860        3.94630
C          8.27670        2.58920        3.16970
C          8.86760        2.36130        1.93410
C          8.83740        1.05400        1.46310
C          8.28240        0.00540        2.18760
Cl         9.43870        0.74660       -0.09840
Cl         8.12780        4.20770        3.71320
H         -0.54110        0.00070       -0.94990
H          1.94680       -0.00140       -0.92400
H         -1.83360       -0.00780        1.13250
H         -1.98950        0.07070        3.54080
H         -0.60800        0.79590        4.37500
H         -0.74530       -0.96630        4.25230
H          1.99560        0.02290        4.59030
H          4.07230       -0.06600       -0.41190
H          5.27010       -0.57260        0.82080
H          6.30270        1.15010       -1.08750
H          7.45710        3.33780       -0.99900
H          6.99930        4.92070        0.84970
H          3.87230        2.30210        2.28480
H          4.91580        2.93570        4.16580
H          4.80630        4.48960        4.93080
H          5.39420       -1.77600        3.13010
H          7.50790       -1.78450        4.12020
H          6.91400       -0.55280        5.27930
H          7.28920        1.78610        4.92590
H          9.32720        3.16720        1.35850
H          8.28410       -1.01130        1.79000
