55
rmsd204.gzmat
C          0.00000        0.00000        0.00000
C          1.38110        0.00000        0.00000
C          2.01770        0.00000        1.25050
C          1.28050       -0.00470        2.47590
C         -0.12630       -0.00060        2.43710
C         -0.74440       -0.00100        1.19850
C         -0.90820        0.01570        3.70080
C          2.23520       -0.01640        3.54330
C          3.49400       -0.01700        2.97070
N          3.37780        0.05360        1.56660
C          4.45040       -0.17820        0.61610
C          5.04580       -1.56490        0.63630
C          6.00660       -1.89120       -0.32610
C          6.66590       -3.11740       -0.26990
C          6.41470       -4.00550        0.77370
C          5.44430       -3.68400        1.72590
C          4.71770       -2.49480        1.61660
C          5.22270       -4.53310        2.91150
N          5.29610       -5.88190        2.81000
H          5.21270       -6.49680        3.60230
H          5.45320       -6.32430        1.91660
N          4.93800       -3.95850        4.09220
C          4.78370       -0.13100        3.67040
O          5.11210       -1.14800        4.27350
N          5.63060        0.94250        3.62380
C          6.99020        0.81220        4.17110
C          7.71600       -0.27480        3.41490
C          7.74510       -1.56890        3.94250
C          8.28370       -2.58530        3.16840
C          8.84960       -2.36820        1.91910
C          8.80060       -1.06750        1.43150
C          8.25460       -0.01320        2.15440
Cl         9.36180       -0.77720       -0.14850
Cl         8.15920       -4.19880        3.73250
H         -0.54170        0.00180       -0.94970
H          1.94640        0.00110       -0.92420
H         -1.83270        0.00240        1.13290
H         -0.89750        1.02070        4.15580
H         -0.50180       -0.68170        4.44730
H         -1.96420       -0.25480        3.55130
H          2.00000       -0.01340        4.59020
H          5.27110        0.56280        0.81390
H          4.06860        0.05850       -0.41430
H          6.25000       -1.18280       -1.12410
H          7.40200       -3.37310       -1.03790
H          6.99300       -4.92790        0.84490
H          3.89350       -2.29490        2.31140
H          4.91850       -2.92310        4.17650
H          4.82330       -4.47320        4.95050
H          5.39830        1.78330        3.11510
H          6.92810        0.56700        5.26280
H          7.51770        1.79170        4.09400
H          7.31900       -1.76750        4.93100
H          9.30490       -3.17790        1.34500
H          8.24010        0.99820        1.74360
