rmsd112.gzmat
 OpenBabel08211713363D

 55 58  0  0  0  0  0  0  0  0999 V2000
    0.0000    0.0000    0.0000 C   0  0  0  0  0  0  0  0  0  0  0  0
    1.3812    0.0000    0.0000 C   0  0  0  0  0  0  0  0  0  0  0  0
    2.0177    0.0000    1.2508 C   0  0  0  0  0  0  0  0  0  0  0  0
    1.2787   -0.0072    2.4753 C   0  0  0  0  0  0  0  0  0  0  0  0
   -0.1280   -0.0079    2.4367 C   0  0  0  0  0  0  0  0  0  0  0  0
   -0.7460   -0.0047    1.1984 C   0  0  0  0  0  0  0  0  0  0  0  0
   -0.9060   -0.0014    3.7028 C   0  0  0  0  0  0  0  0  0  0  0  0
    2.2312   -0.0115    3.5439 C   0  0  0  0  0  0  0  0  0  0  0  0
    3.4910   -0.0026    2.9727 C   0  0  0  0  0  0  0  0  0  0  0  0
    3.3772    0.0616    1.5686 N   0  0  0  0  0  0  0  0  0  0  0  0
    4.4527   -0.1662    0.6196 C   0  0  0  0  0  0  0  0  0  0  0  0
    5.0890   -1.5335    0.6750 C   0  0  0  0  0  0  0  0  0  0  0  0
    6.1002   -1.8350   -0.2435 C   0  0  0  0  0  0  0  0  0  0  0  0
    6.7935   -3.0400   -0.1525 C   0  0  0  0  0  0  0  0  0  0  0  0
    6.5254   -3.9303    0.8854 C   0  0  0  0  0  0  0  0  0  0  0  0
    5.5086   -3.6315    1.7956 C   0  0  0  0  0  0  0  0  0  0  0  0
    4.7489   -2.4672    1.6475 C   0  0  0  0  0  0  0  0  0  0  0  0
    5.2771   -4.4721    2.9855 C   0  0  0  0  0  0  0  0  0  0  0  0
    4.9561   -3.8879    4.1516 N   0  0  0  0  0  0  0  0  0  0  0  0
    4.8336   -4.3929    5.0144 H   0  0  0  0  0  0  0  0  0  0  0  0
    4.9166   -2.8506    4.2214 H   0  0  0  0  0  0  0  0  0  0  0  0
    5.3801   -5.8202    2.9027 N   0  0  0  0  0  0  0  0  0  0  0  0
    4.7754   -0.0915    3.6845 C   0  0  0  0  0  0  0  0  0  0  0  0
    5.1074   -1.0934    4.3110 O   0  0  0  0  0  0  0  0  0  0  0  0
    5.6088    0.9919    3.6343 N   0  0  0  0  0  0  0  0  0  0  0  0
    6.9570    0.8907    4.2149 C   0  0  0  0  0  0  0  0  0  0  0  0
    7.7192   -0.1902    3.4869 C   0  0  0  0  0  0  0  0  0  0  0  0
    7.7515   -1.4803    4.0244 C   0  0  0  0  0  0  0  0  0  0  0  0
    8.3300   -2.4932    3.2751 C   0  0  0  0  0  0  0  0  0  0  0  0
    8.9346   -2.2753    2.0442 C   0  0  0  0  0  0  0  0  0  0  0  0
    8.8775   -0.9797    1.5439 C   0  0  0  0  0  0  0  0  0  0  0  0
    8.2893    0.0697    2.2404 C   0  0  0  0  0  0  0  0  0  0  0  0
    9.4867   -0.6886   -0.0179 Cl  0  0  0  0  0  0  0  0  0  0  0  0
    8.2086   -4.1045    3.8461 Cl  0  0  0  0  0  0  0  0  0  0  0  0
   -0.5404    0.0040   -0.9502 H   0  0  0  0  0  0  0  0  0  0  0  0
    1.9462    0.0031   -0.9245 H   0  0  0  0  0  0  0  0  0  0  0  0
   -1.8342   -0.0009    1.1324 H   0  0  0  0  0  0  0  0  0  0  0  0
   -1.9716   -0.2282    3.5494 H   0  0  0  0  0  0  0  0  0  0  0  0
   -0.8551    0.9870    4.1901 H   0  0  0  0  0  0  0  0  0  0  0  0
   -0.5219   -0.7366    4.4251 H   0  0  0  0  0  0  0  0  0  0  0  0
    1.9950   -0.0111    4.5903 H   0  0  0  0  0  0  0  0  0  0  0  0
    5.2513    0.6047    0.7928 H   0  0  0  0  0  0  0  0  0  0  0  0
    4.0597    0.0279   -0.4156 H   0  0  0  0  0  0  0  0  0  0  0  0
    6.3559   -1.1232   -1.0349 H   0  0  0  0  0  0  0  0  0  0  0  0
    7.5696   -3.2765   -0.8865 H   0  0  0  0  0  0  0  0  0  0  0  0
    7.1279   -4.8343    0.9869 H   0  0  0  0  0  0  0  0  0  0  0  0
    3.8917   -2.2878    2.3073 H   0  0  0  0  0  0  0  0  0  0  0  0
    5.5629   -6.2707    2.0184 H   0  0  0  0  0  0  0  0  0  0  0  0
    5.2955   -6.4264    3.7017 H   0  0  0  0  0  0  0  0  0  0  0  0
    5.3760    1.8201    3.1063 H   0  0  0  0  0  0  0  0  0  0  0  0
    6.8728    0.6540    5.3071 H   0  0  0  0  0  0  0  0  0  0  0  0
    7.4687    1.8789    4.1415 H   0  0  0  0  0  0  0  0  0  0  0  0
    7.2989   -1.6782    5.0012 H   0  0  0  0  0  0  0  0  0  0  0  0
    9.4230   -3.0813    1.4927 H   0  0  0  0  0  0  0  0  0  0  0  0
    8.2674    1.0776    1.8210 H   0  0  0  0  0  0  0  0  0  0  0  0
  1  6  1  0  0  0  0
  2  1  2  0  0  0  0
  2  3  1  0  0  0  0
  3 10  1  0  0  0  0
  3  4  2  0  0  0  0
  4  8  1  0  0  0  0
  5  4  1  0  0  0  0
  5  7  1  0  0  0  0
  6  5  2  0  0  0  0
  7 39  1  0  0  0  0
  7 40  1  0  0  0  0
  8 41  1  0  0  0  0
  9  8  2  0  0  0  0
  9 23  1  0  0  0  0
 10  9  1  0  0  0  0
 11 12  1  0  0  0  0
 11 42  1  0  0  0  0
 11 10  1  0  0  0  0
 12 17  2  0  0  0  0
 13 14  2  0  0  0  0
 13 12  1  0  0  0  0
 14 15  1  0  0  0  0
 15 46  1  0  0  0  0
 15 16  2  0  0  0  0
 16 18  1  0  0  0  0
 17 16  1  0  0  0  0
 17 47  1  0  0  0  0
 18 19  1  0  0  0  0
 19 21  1  0  0  0  0
 19 20  1  0  0  0  0
 22 18  2  0  0  0  0
 22 49  1  0  0  0  0
 23 24  2  0  0  0  0
 25 23  1  0  0  0  0
 25 26  1  0  0  0  0
 26 51  1  0  0  0  0
 27 28  1  0  0  0  0
 27 26  1  0  0  0  0
 28 53  1  0  0  0  0
 29 34  1  0  0  0  0
 29 28  2  0  0  0  0
 30 29  1  0  0  0  0
 31 30  2  0  0  0  0
 31 32  1  0  0  0  0
 32 27  2  0  0  0  0
 33 31  1  0  0  0  0
 35  1  1  0  0  0  0
 36  2  1  0  0  0  0
 37  6  1  0  0  0  0
 38  7  1  0  0  0  0
 43 11  1  0  0  0  0
 44 13  1  0  0  0  0
 45 14  1  0  0  0  0
 48 22  1  0  0  0  0
 50 25  1  0  0  0  0
 52 26  1  0  0  0  0
 54 30  1  0  0  0  0
 55 32  1  0  0  0  0
M  END
$$$$
