rmsd11.gzmat
 OpenBabel08211713363D

 55 58  0  0  0  0  0  0  0  0999 V2000
    0.0000    0.0000    0.0000 C   0  0  0  0  0  0  0  0  0  0  0  0
    1.3808    0.0000    0.0000 C   0  0  0  0  0  0  0  0  0  0  0  0
    2.0177    0.0000    1.2510 C   0  0  0  0  0  0  0  0  0  0  0  0
    1.2788    0.0106    2.4759 C   0  0  0  0  0  0  0  0  0  0  0  0
   -0.1285    0.0047    2.4369 C   0  0  0  0  0  0  0  0  0  0  0  0
   -0.7461    0.0015    1.1986 C   0  0  0  0  0  0  0  0  0  0  0  0
   -0.9060   -0.0089    3.7034 C   0  0  0  0  0  0  0  0  0  0  0  0
    2.2313    0.0229    3.5440 C   0  0  0  0  0  0  0  0  0  0  0  0
    3.4913    0.0121    2.9725 C   0  0  0  0  0  0  0  0  0  0  0  0
    3.3760   -0.0566    1.5696 N   0  0  0  0  0  0  0  0  0  0  0  0
    4.4569    0.1220    0.6169 C   0  0  0  0  0  0  0  0  0  0  0  0
    5.1220    1.4766    0.6390 C   0  0  0  0  0  0  0  0  0  0  0  0
    6.1362    1.7351   -0.2893 C   0  0  0  0  0  0  0  0  0  0  0  0
    6.8502    2.9302   -0.2333 C   0  0  0  0  0  0  0  0  0  0  0  0
    6.5985    3.8546    0.7785 C   0  0  0  0  0  0  0  0  0  0  0  0
    5.5807    3.5976    1.7002 C   0  0  0  0  0  0  0  0  0  0  0  0
    4.8028    2.4408    1.5885 C   0  0  0  0  0  0  0  0  0  0  0  0
    5.3670    4.4763    2.8657 C   0  0  0  0  0  0  0  0  0  0  0  0
    5.4898    5.8198    2.7433 N   0  0  0  0  0  0  0  0  0  0  0  0
    5.4179    6.4507    3.5246 H   0  0  0  0  0  0  0  0  0  0  0  0
    5.6766    6.2409    1.8455 H   0  0  0  0  0  0  0  0  0  0  0  0
    5.0427    3.9308    4.0497 N   0  0  0  0  0  0  0  0  0  0  0  0
    4.7771    0.1100    3.6814 C   0  0  0  0  0  0  0  0  0  0  0  0
    5.1285    1.1309    4.2643 O   0  0  0  0  0  0  0  0  0  0  0  0
    5.5907   -0.9893    3.6785 N   0  0  0  0  0  0  0  0  0  0  0  0
    6.9383   -0.8893    4.2606 C   0  0  0  0  0  0  0  0  0  0  0  0
    7.7229    0.1513    3.4977 C   0  0  0  0  0  0  0  0  0  0  0  0
    7.7813    1.4579    3.9916 C   0  0  0  0  0  0  0  0  0  0  0  0
    8.3785    2.4339    3.2083 C   0  0  0  0  0  0  0  0  0  0  0  0
    8.9760    2.1638    1.9844 C   0  0  0  0  0  0  0  0  0  0  0  0
    8.8972    0.8524    1.5304 C   0  0  0  0  0  0  0  0  0  0  0  0
    8.2906   -0.1621    2.2623 C   0  0  0  0  0  0  0  0  0  0  0  0
    9.4995    0.5003   -0.0217 Cl  0  0  0  0  0  0  0  0  0  0  0  0
    8.2874    4.0654    3.7260 Cl  0  0  0  0  0  0  0  0  0  0  0  0
   -0.5415   -0.0027   -0.9498 H   0  0  0  0  0  0  0  0  0  0  0  0
    1.9466   -0.0024   -0.9240 H   0  0  0  0  0  0  0  0  0  0  0  0
   -1.8344   -0.0041    1.1317 H   0  0  0  0  0  0  0  0  0  0  0  0
   -1.9800    0.1716    3.5465 H   0  0  0  0  0  0  0  0  0  0  0  0
   -0.5502    0.7550    4.4109 H   0  0  0  0  0  0  0  0  0  0  0  0
   -0.8160   -0.9848    4.2097 H   0  0  0  0  0  0  0  0  0  0  0  0
    1.9955    0.0295    4.5905 H   0  0  0  0  0  0  0  0  0  0  0  0
    4.0616   -0.0901   -0.4140 H   0  0  0  0  0  0  0  0  0  0  0  0
    5.2381   -0.6616    0.8111 H   0  0  0  0  0  0  0  0  0  0  0  0
    6.3787    0.9971   -1.0604 H   0  0  0  0  0  0  0  0  0  0  0  0
    7.6297    3.1324   -0.9741 H   0  0  0  0  0  0  0  0  0  0  0  0
    7.2143    4.7522    0.8511 H   0  0  0  0  0  0  0  0  0  0  0  0
    3.9477    2.2912    2.2585 H   0  0  0  0  0  0  0  0  0  0  0  0
    4.9837    2.8975    4.1477 H   0  0  0  0  0  0  0  0  0  0  0  0
    4.9317    4.4625    4.8983 H   0  0  0  0  0  0  0  0  0  0  0  0
    5.3432   -1.8357    3.1874 H   0  0  0  0  0  0  0  0  0  0  0  0
    7.4336   -1.8882    4.2260 H   0  0  0  0  0  0  0  0  0  0  0  0
    6.8537   -0.6117    5.3432 H   0  0  0  0  0  0  0  0  0  0  0  0
    7.3326    1.6984    4.9606 H   0  0  0  0  0  0  0  0  0  0  0  0
    9.4767    2.9417    1.4039 H   0  0  0  0  0  0  0  0  0  0  0  0
    8.2516   -1.1834    1.8774 H   0  0  0  0  0  0  0  0  0  0  0  0
  1  6  1  0  0  0  0
  2  1  2  0  0  0  0
  2  3  1  0  0  0  0
  3 10  1  0  0  0  0
  3  4  2  0  0  0  0
  4  8  1  0  0  0  0
  5  4  1  0  0  0  0
  5  7  1  0  0  0  0
  6  5  2  0  0  0  0
  7 40  1  0  0  0  0
  7 39  1  0  0  0  0
  8 41  1  0  0  0  0
  9  8  2  0  0  0  0
  9 23  1  0  0  0  0
 10  9  1  0  0  0  0
 11 12  1  0  0  0  0
 11 43  1  0  0  0  0
 11 10  1  0  0  0  0
 12 17  2  0  0  0  0
 13 14  2  0  0  0  0
 13 12  1  0  0  0  0
 14 15  1  0  0  0  0
 15 46  1  0  0  0  0
 15 16  2  0  0  0  0
 16 18  1  0  0  0  0
 17 16  1  0  0  0  0
 17 47  1  0  0  0  0
 18 22  1  0  0  0  0
 19 18  2  0  0  0  0
 19 20  1  0  0  0  0
 21 19  1  0  0  0  0
 22 48  1  0  0  0  0
 22 49  1  0  0  0  0
 23 24  2  0  0  0  0
 25 23  1  0  0  0  0
 25 26  1  0  0  0  0
 26 52  1  0  0  0  0
 27 28  1  0  0  0  0
 27 26  1  0  0  0  0
 28 53  1  0  0  0  0
 29 34  1  0  0  0  0
 29 28  2  0  0  0  0
 30 29  1  0  0  0  0
 31 30  2  0  0  0  0
 31 32  1  0  0  0  0
 32 27  2  0  0  0  0
 33 31  1  0  0  0  0
 35  1  1  0  0  0  0
 36  2  1  0  0  0  0
 37  6  1  0  0  0  0
 38  7  1  0  0  0  0
 42 11  1  0  0  0  0
 44 13  1  0  0  0  0
 45 14  1  0  0  0  0
 50 25  1  0  0  0  0
 51 26  1  0  0  0  0
 54 30  1  0  0  0  0
 55 32  1  0  0  0  0
M  END
$$$$
