rmsd200.gzmat
 OpenBabel08211713363D

 55 58  0  0  0  0  0  0  0  0999 V2000
    0.0000    0.0000    0.0000 C   0  0  0  0  0  0  0  0  0  0  0  0
    1.3810    0.0000    0.0000 C   0  0  0  0  0  0  0  0  0  0  0  0
    2.0177    0.0000    1.2507 C   0  0  0  0  0  0  0  0  0  0  0  0
    1.2794    0.0051    2.4756 C   0  0  0  0  0  0  0  0  0  0  0  0
   -0.1277   -0.0047    2.4371 C   0  0  0  0  0  0  0  0  0  0  0  0
   -0.7455   -0.0030    1.1986 C   0  0  0  0  0  0  0  0  0  0  0  0
   -0.9053   -0.0234    3.7033 C   0  0  0  0  0  0  0  0  0  0  0  0
    2.2326    0.0219    3.5438 C   0  0  0  0  0  0  0  0  0  0  0  0
    3.4917    0.0228    2.9718 C   0  0  0  0  0  0  0  0  0  0  0  0
    3.3773   -0.0532    1.5682 N   0  0  0  0  0  0  0  0  0  0  0  0
    4.4529    0.1713    0.6186 C   0  0  0  0  0  0  0  0  0  0  0  0
    5.0543    1.5553    0.6373 C   0  0  0  0  0  0  0  0  0  0  0  0
    6.0398    1.8683   -0.3047 C   0  0  0  0  0  0  0  0  0  0  0  0
    6.7003    3.0939   -0.2473 C   0  0  0  0  0  0  0  0  0  0  0  0
    6.4241    3.9964    0.7777 C   0  0  0  0  0  0  0  0  0  0  0  0
    5.4338    3.6848    1.7126 C   0  0  0  0  0  0  0  0  0  0  0  0
    4.7081    2.4951    1.6019 C   0  0  0  0  0  0  0  0  0  0  0  0
    5.1958    4.5410    2.8898 C   0  0  0  0  0  0  0  0  0  0  0  0
    5.2439    5.8899    2.7762 N   0  0  0  0  0  0  0  0  0  0  0  0
    5.1505    6.5101    3.5633 H   0  0  0  0  0  0  0  0  0  0  0  0
    5.3900    6.3267    1.8783 H   0  0  0  0  0  0  0  0  0  0  0  0
    4.9222    3.9708    4.0751 N   0  0  0  0  0  0  0  0  0  0  0  0
    4.7797    0.1414    3.6735 C   0  0  0  0  0  0  0  0  0  0  0  0
    5.1056    1.1605    4.2743 O   0  0  0  0  0  0  0  0  0  0  0  0
    5.6267   -0.9320    3.6333 N   0  0  0  0  0  0  0  0  0  0  0  0
    6.9828   -0.8029    4.1892 C   0  0  0  0  0  0  0  0  0  0  0  0
    7.7173    0.2783    3.4334 C   0  0  0  0  0  0  0  0  0  0  0  0
    7.7312    1.5786    3.9463 C   0  0  0  0  0  0  0  0  0  0  0  0
    8.2767    2.5892    3.1697 C   0  0  0  0  0  0  0  0  0  0  0  0
    8.8676    2.3613    1.9341 C   0  0  0  0  0  0  0  0  0  0  0  0
    8.8374    1.0540    1.4631 C   0  0  0  0  0  0  0  0  0  0  0  0
    8.2824    0.0054    2.1876 C   0  0  0  0  0  0  0  0  0  0  0  0
    9.4387    0.7466   -0.0984 Cl  0  0  0  0  0  0  0  0  0  0  0  0
    8.1278    4.2077    3.7132 Cl  0  0  0  0  0  0  0  0  0  0  0  0
   -0.5411    0.0007   -0.9499 H   0  0  0  0  0  0  0  0  0  0  0  0
    1.9468   -0.0014   -0.9240 H   0  0  0  0  0  0  0  0  0  0  0  0
   -1.8336   -0.0078    1.1325 H   0  0  0  0  0  0  0  0  0  0  0  0
   -1.9895    0.0707    3.5408 H   0  0  0  0  0  0  0  0  0  0  0  0
   -0.6080    0.7959    4.3750 H   0  0  0  0  0  0  0  0  0  0  0  0
   -0.7453   -0.9663    4.2523 H   0  0  0  0  0  0  0  0  0  0  0  0
    1.9956    0.0229    4.5903 H   0  0  0  0  0  0  0  0  0  0  0  0
    4.0723   -0.0660   -0.4119 H   0  0  0  0  0  0  0  0  0  0  0  0
    5.2701   -0.5726    0.8208 H   0  0  0  0  0  0  0  0  0  0  0  0
    6.3027    1.1501   -1.0875 H   0  0  0  0  0  0  0  0  0  0  0  0
    7.4571    3.3378   -0.9990 H   0  0  0  0  0  0  0  0  0  0  0  0
    6.9993    4.9207    0.8497 H   0  0  0  0  0  0  0  0  0  0  0  0
    3.8723    2.3021    2.2848 H   0  0  0  0  0  0  0  0  0  0  0  0
    4.9158    2.9357    4.1658 H   0  0  0  0  0  0  0  0  0  0  0  0
    4.8063    4.4896    4.9308 H   0  0  0  0  0  0  0  0  0  0  0  0
    5.3942   -1.7760    3.1301 H   0  0  0  0  0  0  0  0  0  0  0  0
    7.5079   -1.7845    4.1202 H   0  0  0  0  0  0  0  0  0  0  0  0
    6.9140   -0.5528    5.2793 H   0  0  0  0  0  0  0  0  0  0  0  0
    7.2892    1.7861    4.9259 H   0  0  0  0  0  0  0  0  0  0  0  0
    9.3272    3.1672    1.3585 H   0  0  0  0  0  0  0  0  0  0  0  0
    8.2841   -1.0113    1.7900 H   0  0  0  0  0  0  0  0  0  0  0  0
  1  6  1  0  0  0  0
  2  1  2  0  0  0  0
  2  3  1  0  0  0  0
  3 10  1  0  0  0  0
  3  4  2  0  0  0  0
  4  8  1  0  0  0  0
  5  4  1  0  0  0  0
  5  7  1  0  0  0  0
  6  5  2  0  0  0  0
  7 40  1  0  0  0  0
  7 39  1  0  0  0  0
  8 41  1  0  0  0  0
  9  8  2  0  0  0  0
  9 23  1  0  0  0  0
 10  9  1  0  0  0  0
 11 12  1  0  0  0  0
 11 43  1  0  0  0  0
 11 10  1  0  0  0  0
 12 17  2  0  0  0  0
 13 14  2  0  0  0  0
 13 12  1  0  0  0  0
 14 15  1  0  0  0  0
 15 46  1  0  0  0  0
 15 16  2  0  0  0  0
 16 18  1  0  0  0  0
 17 16  1  0  0  0  0
 17 47  1  0  0  0  0
 18 22  1  0  0  0  0
 19 18  2  0  0  0  0
 19 20  1  0  0  0  0
 21 19  1  0  0  0  0
 22 48  1  0  0  0  0
 22 49  1  0  0  0  0
 23 24  2  0  0  0  0
 25 23  1  0  0  0  0
 25 26  1  0  0  0  0
 26 52  1  0  0  0  0
 27 28  1  0  0  0  0
 27 26  1  0  0  0  0
 28 53  1  0  0  0  0
 29 34  1  0  0  0  0
 29 28  2  0  0  0  0
 30 29  1  0  0  0  0
 31 30  2  0  0  0  0
 31 32  1  0  0  0  0
 32 27  2  0  0  0  0
 33 31  1  0  0  0  0
 35  1  1  0  0  0  0
 36  2  1  0  0  0  0
 37  6  1  0  0  0  0
 38  7  1  0  0  0  0
 42 11  1  0  0  0  0
 44 13  1  0  0  0  0
 45 14  1  0  0  0  0
 50 25  1  0  0  0  0
 51 26  1  0  0  0  0
 54 30  1  0  0  0  0
 55 32  1  0  0  0  0
M  END
$$$$
