50
rmsd243.gzmat
N          0.00000        0.00000        0.00000
C          1.41770        0.00000        0.00000
O          2.12060        0.00000        0.97350
N          1.84610       -0.06420       -1.35210
C          0.76300       -0.02060       -2.25290
O          0.86560        0.01360       -3.44360
C         -0.54280       -0.01020       -1.38920
C         -1.21400       -1.33560       -1.68930
C         -1.37100       -2.32200       -0.71740
C         -1.90900       -3.55960       -1.06710
C         -2.29340       -3.81030       -2.38190
C         -2.15240       -2.81700       -3.35070
C         -1.61560       -1.58110       -3.00670
C         -1.41180        1.17620       -1.69980
C         -0.83500        2.39030       -2.07780
C         -1.64540        3.48580       -2.36780
C         -3.03110        3.37330       -2.27810
C         -3.60790        2.16370       -1.89390
C         -2.80090        1.06750       -1.60350
C          3.16440       -0.57460       -1.72280
C          3.43250       -1.92240       -1.10270
C          4.51900       -2.06570       -0.23380
C          4.79850       -3.29380        0.36230
C          3.97090       -4.37360        0.08000
C          2.87700       -4.27650       -0.77000
C          2.63190       -3.03650       -1.34910
Cl         1.27950       -2.91390       -2.37860
Cl         4.30650       -5.88240        0.80640
C         -0.70030        0.68010        1.07080
C         -0.45960        2.17740        1.08370
O          0.32300        2.82470        0.44550
O         -1.29540        2.75380        1.98320
H         -1.05570       -2.14430        0.31150
H         -2.01890       -4.33340       -0.31040
H         -2.69950       -4.78160       -2.65530
H         -2.45290       -3.01010       -4.37890
H         -1.48810       -0.80930       -3.76970
H          0.25100        2.49500       -2.13530
H         -1.19120        4.43030       -2.66370
H         -3.66330        4.22900       -2.50820
H         -4.68990        2.07510       -1.82460
H         -3.25730        0.12110       -1.31080
H          3.92960        0.17630       -1.39940
H          3.22660       -0.63460       -2.84230
H          5.14860       -1.20300       -0.00430
H          5.64480       -3.39510        1.04260
H          2.23460       -5.13520       -0.97400
H         -0.35150        0.25170        2.05190
H         -1.79760        0.46790        1.00050
H         -1.18800        3.73460        2.05410
