rmsd205.gzmat
 OpenBabel08211713393D

 50 53  0  0  0  0  0  0  0  0999 V2000
    0.0000    0.0000    0.0000 N   0  0  0  0  0  0  0  0  0  0  0  0
    1.4180    0.0000    0.0000 C   0  0  0  0  0  0  0  0  0  0  0  0
    2.1206    0.0000    0.9735 O   0  0  0  0  0  0  0  0  0  0  0  0
    1.8466   -0.0645   -1.3520 N   0  0  0  0  0  0  0  0  0  0  0  0
    0.7637   -0.0201   -2.2525 C   0  0  0  0  0  0  0  0  0  0  0  0
    0.8678    0.0105   -3.4434 O   0  0  0  0  0  0  0  0  0  0  0  0
   -0.5423   -0.0024   -1.3901 C   0  0  0  0  0  0  0  0  0  0  0  0
   -1.2289   -1.3193   -1.6934 C   0  0  0  0  0  0  0  0  0  0  0  0
   -1.4318   -2.2912   -0.7152 C   0  0  0  0  0  0  0  0  0  0  0  0
   -1.9804   -3.5238   -1.0664 C   0  0  0  0  0  0  0  0  0  0  0  0
   -2.3298   -3.7841   -2.3891 C   0  0  0  0  0  0  0  0  0  0  0  0
   -2.1460   -2.8038   -3.3640 C   0  0  0  0  0  0  0  0  0  0  0  0
   -1.6005   -1.5720   -3.0181 C   0  0  0  0  0  0  0  0  0  0  0  0
   -1.4050    1.1906   -1.6916 C   0  0  0  0  0  0  0  0  0  0  0  0
   -0.8288    2.3916   -2.1100 C   0  0  0  0  0  0  0  0  0  0  0  0
   -1.6369    3.4937   -2.3815 C   0  0  0  0  0  0  0  0  0  0  0  0
   -3.0184    3.4026   -2.2268 C   0  0  0  0  0  0  0  0  0  0  0  0
   -3.5944    2.2055   -1.8037 C   0  0  0  0  0  0  0  0  0  0  0  0
   -2.7907    1.1009   -1.5374 C   0  0  0  0  0  0  0  0  0  0  0  0
    3.1644   -0.5765   -1.7222 C   0  0  0  0  0  0  0  0  0  0  0  0
    3.4347   -1.9194   -1.0927 C   0  0  0  0  0  0  0  0  0  0  0  0
    4.5377   -2.0576   -0.2438 C   0  0  0  0  0  0  0  0  0  0  0  0
    4.8169   -3.2774    0.3690 C   0  0  0  0  0  0  0  0  0  0  0  0
    3.9715   -4.3530    0.1256 C   0  0  0  0  0  0  0  0  0  0  0  0
    2.8630   -4.2609   -0.7058 C   0  0  0  0  0  0  0  0  0  0  0  0
    2.6208   -3.0303   -1.3061 C   0  0  0  0  0  0  0  0  0  0  0  0
    1.2544   -2.9137   -2.3181 Cl  0  0  0  0  0  0  0  0  0  0  0  0
    4.3028   -5.8488    0.8810 Cl  0  0  0  0  0  0  0  0  0  0  0  0
   -0.6965    0.6839    1.0715 C   0  0  0  0  0  0  0  0  0  0  0  0
   -0.4468    2.1801    1.0846 C   0  0  0  0  0  0  0  0  0  0  0  0
    0.3435    2.8224    0.4508 O   0  0  0  0  0  0  0  0  0  0  0  0
   -1.2861    2.7623    1.9776 O   0  0  0  0  0  0  0  0  0  0  0  0
   -1.1427   -2.1068    0.3201 H   0  0  0  0  0  0  0  0  0  0  0  0
   -2.1259   -4.2863   -0.3040 H   0  0  0  0  0  0  0  0  0  0  0  0
   -2.7415   -4.7528   -2.6640 H   0  0  0  0  0  0  0  0  0  0  0  0
   -2.4186   -3.0043   -4.3986 H   0  0  0  0  0  0  0  0  0  0  0  0
   -1.4423   -0.8105   -3.7857 H   0  0  0  0  0  0  0  0  0  0  0  0
    0.2548    2.4816   -2.2148 H   0  0  0  0  0  0  0  0  0  0  0  0
   -1.1837    4.4271   -2.7119 H   0  0  0  0  0  0  0  0  0  0  0  0
   -3.6482    4.2654   -2.4355 H   0  0  0  0  0  0  0  0  0  0  0  0
   -4.6734    2.1336   -1.6830 H   0  0  0  0  0  0  0  0  0  0  0  0
   -3.2479    0.1639   -1.2170 H   0  0  0  0  0  0  0  0  0  0  0  0
    3.9296    0.1774   -1.4053 H   0  0  0  0  0  0  0  0  0  0  0  0
    3.2255   -0.6436   -2.8412 H   0  0  0  0  0  0  0  0  0  0  0  0
    5.1808   -1.1976   -0.0433 H   0  0  0  0  0  0  0  0  0  0  0  0
    5.6772   -3.3750    1.0322 H   0  0  0  0  0  0  0  0  0  0  0  0
    2.2070   -5.1165   -0.8787 H   0  0  0  0  0  0  0  0  0  0  0  0
   -0.3504    0.2529    2.0524 H   0  0  0  0  0  0  0  0  0  0  0  0
   -1.7954    0.4794    1.0007 H   0  0  0  0  0  0  0  0  0  0  0  0
   -1.1753    3.7429    2.0452 H   0  0  0  0  0  0  0  0  0  0  0  0
  1  2  1  0  0  0  0
  1 29  1  0  0  0  0
  2  3  2  0  0  0  0
  4  2  1  0  0  0  0
  5  7  1  0  0  0  0
  5  4  1  0  0  0  0
  6  5  2  0  0  0  0
  7  1  1  0  0  0  0
  8  7  1  0  0  0  0
  8  9  2  0  0  0  0
  9 33  1  0  0  0  0
 10  9  1  0  0  0  0
 10 34  1  0  0  0  0
 11 10  2  0  0  0  0
 12 13  2  0  0  0  0
 12 11  1  0  0  0  0
 13  8  1  0  0  0  0
 14 19  1  0  0  0  0
 14  7  1  0  0  0  0
 15 14  2  0  0  0  0
 16 17  2  0  0  0  0
 16 15  1  0  0  0  0
 17 18  1  0  0  0  0
 18 41  1  0  0  0  0
 18 19  2  0  0  0  0
 19 42  1  0  0  0  0
 20 43  1  0  0  0  0
 20  4  1  0  0  0  0
 20 21  1  0  0  0  0
 21 22  1  0  0  0  0
 22 45  1  0  0  0  0
 22 23  2  0  0  0  0
 23 46  1  0  0  0  0
 24 23  1  0  0  0  0
 24 28  1  0  0  0  0
 25 24  2  0  0  0  0
 26 21  2  0  0  0  0
 26 25  1  0  0  0  0
 27 26  1  0  0  0  0
 29 30  1  0  0  0  0
 29 48  1  0  0  0  0
 30 32  1  0  0  0  0
 31 30  2  0  0  0  0
 32 50  1  0  0  0  0
 35 11  1  0  0  0  0
 36 12  1  0  0  0  0
 37 13  1  0  0  0  0
 38 15  1  0  0  0  0
 39 16  1  0  0  0  0
 40 17  1  0  0  0  0
 44 20  1  0  0  0  0
 47 25  1  0  0  0  0
 49 29  1  0  0  0  0
M  END
$$$$
