rmsd31.gzmat
 OpenBabel08211713393D

 50 53  0  0  0  0  0  0  0  0999 V2000
    0.0000    0.0000    0.0000 N   0  0  0  0  0  0  0  0  0  0  0  0
    1.4169    0.0000    0.0000 C   0  0  0  0  0  0  0  0  0  0  0  0
    2.1203    0.0000    0.9731 O   0  0  0  0  0  0  0  0  0  0  0  0
    1.8448   -0.0669   -1.3530 N   0  0  0  0  0  0  0  0  0  0  0  0
    0.7607   -0.0217   -2.2531 C   0  0  0  0  0  0  0  0  0  0  0  0
    0.8621    0.0160   -3.4438 O   0  0  0  0  0  0  0  0  0  0  0  0
   -0.5436   -0.0146   -1.3892 C   0  0  0  0  0  0  0  0  0  0  0  0
   -1.2118   -1.3424   -1.6851 C   0  0  0  0  0  0  0  0  0  0  0  0
   -1.6252   -1.5905   -2.9980 C   0  0  0  0  0  0  0  0  0  0  0  0
   -2.1610   -2.8290   -3.3350 C   0  0  0  0  0  0  0  0  0  0  0  0
   -2.2907   -3.8217   -2.3636 C   0  0  0  0  0  0  0  0  0  0  0  0
   -1.8954   -3.5683   -1.0528 C   0  0  0  0  0  0  0  0  0  0  0  0
   -1.3562   -2.3285   -0.7109 C   0  0  0  0  0  0  0  0  0  0  0  0
   -1.4198    1.1684   -1.6897 C   0  0  0  0  0  0  0  0  0  0  0  0
   -0.8535    2.3845   -2.0768 C   0  0  0  0  0  0  0  0  0  0  0  0
   -1.6721    3.4825   -2.3323 C   0  0  0  0  0  0  0  0  0  0  0  0
   -3.0545    3.3706   -2.1996 C   0  0  0  0  0  0  0  0  0  0  0  0
   -3.6210    2.1564   -1.8145 C   0  0  0  0  0  0  0  0  0  0  0  0
   -2.8061    1.0570   -1.5596 C   0  0  0  0  0  0  0  0  0  0  0  0
    3.1571   -0.5953   -1.7206 C   0  0  0  0  0  0  0  0  0  0  0  0
    3.3966   -1.9510   -1.1054 C   0  0  0  0  0  0  0  0  0  0  0  0
    4.4557   -2.1100   -0.2062 C   0  0  0  0  0  0  0  0  0  0  0  0
    4.7035   -3.3441    0.3914 C   0  0  0  0  0  0  0  0  0  0  0  0
    3.8710   -4.4126    0.0823 C   0  0  0  0  0  0  0  0  0  0  0  0
    2.8039   -4.2993   -0.7991 C   0  0  0  0  0  0  0  0  0  0  0  0
    2.5909   -3.0544   -1.3799 C   0  0  0  0  0  0  0  0  0  0  0  0
    1.2690   -2.9090   -2.4449 Cl  0  0  0  0  0  0  0  0  0  0  0  0
    4.1654   -5.9263    0.8164 Cl  0  0  0  0  0  0  0  0  0  0  0  0
   -0.7071    0.6728    1.0709 C   0  0  0  0  0  0  0  0  0  0  0  0
   -0.4949    2.1747    1.0739 C   0  0  0  0  0  0  0  0  0  0  0  0
    0.3129    2.8273    0.4738 O   0  0  0  0  0  0  0  0  0  0  0  0
   -1.3930    2.7478    1.9142 O   0  0  0  0  0  0  0  0  0  0  0  0
   -1.5071   -0.8187   -3.7625 H   0  0  0  0  0  0  0  0  0  0  0  0
   -2.4713   -3.0247   -4.3596 H   0  0  0  0  0  0  0  0  0  0  0  0
   -2.6967   -4.7945   -2.6321 H   0  0  0  0  0  0  0  0  0  0  0  0
   -1.9970   -4.3401   -0.2927 H   0  0  0  0  0  0  0  0  0  0  0  0
   -1.0305   -2.1493    0.3144 H   0  0  0  0  0  0  0  0  0  0  0  0
    0.2302    2.4889   -2.1681 H   0  0  0  0  0  0  0  0  0  0  0  0
   -1.2260    4.4299   -2.6313 H   0  0  0  0  0  0  0  0  0  0  0  0
   -3.6922    4.2307   -2.3960 H   0  0  0  0  0  0  0  0  0  0  0  0
   -4.7006    2.0669   -1.7136 H   0  0  0  0  0  0  0  0  0  0  0  0
   -3.2547    0.1071   -1.2657 H   0  0  0  0  0  0  0  0  0  0  0  0
    3.9327    0.1407   -1.3873 H   0  0  0  0  0  0  0  0  0  0  0  0
    3.2254   -0.6485   -2.8396 H   0  0  0  0  0  0  0  0  0  0  0  0
    5.0871   -1.2547    0.0458 H   0  0  0  0  0  0  0  0  0  0  0  0
    5.5300   -3.4587    1.0930 H   0  0  0  0  0  0  0  0  0  0  0  0
    2.1573   -5.1493   -1.0258 H   0  0  0  0  0  0  0  0  0  0  0  0
   -0.3463    0.2586    2.0533 H   0  0  0  0  0  0  0  0  0  0  0  0
   -1.8005    0.4388    1.0062 H   0  0  0  0  0  0  0  0  0  0  0  0
   -1.3104    3.7317    1.9735 H   0  0  0  0  0  0  0  0  0  0  0  0
  1  2  1  0  0  0  0
  1 29  1  0  0  0  0
  2  3  2  0  0  0  0
  4  2  1  0  0  0  0
  5  7  1  0  0  0  0
  5  4  1  0  0  0  0
  6  5  2  0  0  0  0
  7  1  1  0  0  0  0
  8  7  1  0  0  0  0
  8 13  2  0  0  0  0
  9  8  1  0  0  0  0
 10  9  2  0  0  0  0
 10 11  1  0  0  0  0
 11 12  2  0  0  0  0
 12 13  1  0  0  0  0
 12 36  1  0  0  0  0
 13 37  1  0  0  0  0
 14 19  1  0  0  0  0
 14  7  1  0  0  0  0
 15 14  2  0  0  0  0
 16 17  2  0  0  0  0
 16 15  1  0  0  0  0
 17 18  1  0  0  0  0
 18 41  1  0  0  0  0
 18 19  2  0  0  0  0
 19 42  1  0  0  0  0
 20 43  1  0  0  0  0
 20  4  1  0  0  0  0
 20 21  1  0  0  0  0
 21 22  1  0  0  0  0
 22 45  1  0  0  0  0
 22 23  2  0  0  0  0
 23 46  1  0  0  0  0
 24 23  1  0  0  0  0
 24 28  1  0  0  0  0
 25 24  2  0  0  0  0
 26 21  2  0  0  0  0
 26 25  1  0  0  0  0
 27 26  1  0  0  0  0
 29 30  1  0  0  0  0
 29 48  1  0  0  0  0
 30 32  1  0  0  0  0
 31 30  2  0  0  0  0
 32 50  1  0  0  0  0
 33  9  1  0  0  0  0
 34 10  1  0  0  0  0
 35 11  1  0  0  0  0
 38 15  1  0  0  0  0
 39 16  1  0  0  0  0
 40 17  1  0  0  0  0
 44 20  1  0  0  0  0
 47 25  1  0  0  0  0
 49 29  1  0  0  0  0
M  END
$$$$
