rmsd56.gzmat
 OpenBabel08211713393D

 50 53  0  0  0  0  0  0  0  0999 V2000
    0.0000    0.0000    0.0000 N   0  0  0  0  0  0  0  0  0  0  0  0
    1.4178    0.0000    0.0000 C   0  0  0  0  0  0  0  0  0  0  0  0
    2.1211    0.0000    0.9733 O   0  0  0  0  0  0  0  0  0  0  0  0
    1.8460   -0.0630   -1.3518 N   0  0  0  0  0  0  0  0  0  0  0  0
    0.7637   -0.0061   -2.2526 C   0  0  0  0  0  0  0  0  0  0  0  0
    0.8651    0.0570   -3.4422 O   0  0  0  0  0  0  0  0  0  0  0  0
   -0.5419   -0.0213   -1.3889 C   0  0  0  0  0  0  0  0  0  0  0  0
   -1.1830   -1.3623   -1.6896 C   0  0  0  0  0  0  0  0  0  0  0  0
   -1.6096   -1.6037   -2.9995 C   0  0  0  0  0  0  0  0  0  0  0  0
   -2.1110   -2.8537   -3.3468 C   0  0  0  0  0  0  0  0  0  0  0  0
   -2.1920   -3.8642   -2.3886 C   0  0  0  0  0  0  0  0  0  0  0  0
   -1.7861   -3.6166   -1.0801 C   0  0  0  0  0  0  0  0  0  0  0  0
   -1.2831   -2.3655   -0.7276 C   0  0  0  0  0  0  0  0  0  0  0  0
   -1.4441    1.1382   -1.7044 C   0  0  0  0  0  0  0  0  0  0  0  0
   -0.9139    2.3418   -2.1725 C   0  0  0  0  0  0  0  0  0  0  0  0
   -1.7632    3.4016   -2.4840 C   0  0  0  0  0  0  0  0  0  0  0  0
   -3.1398    3.2662   -2.3195 C   0  0  0  0  0  0  0  0  0  0  0  0
   -3.6695    2.0696   -1.8385 C   0  0  0  0  0  0  0  0  0  0  0  0
   -2.8244    1.0068   -1.5327 C   0  0  0  0  0  0  0  0  0  0  0  0
    3.1680   -0.5601   -1.7249 C   0  0  0  0  0  0  0  0  0  0  0  0
    3.4237   -1.9403   -1.1738 C   0  0  0  0  0  0  0  0  0  0  0  0
    4.4977   -2.1320   -0.2984 C   0  0  0  0  0  0  0  0  0  0  0  0
    4.7715   -3.3921    0.2294 C   0  0  0  0  0  0  0  0  0  0  0  0
    3.9508   -4.4555   -0.1268 C   0  0  0  0  0  0  0  0  0  0  0  0
    2.8700   -4.3110   -0.9863 C   0  0  0  0  0  0  0  0  0  0  0  0
    2.6305   -3.0398   -1.4963 C   0  0  0  0  0  0  0  0  0  0  0  0
    1.2967   -2.8647   -2.5412 Cl  0  0  0  0  0  0  0  0  0  0  0  0
    4.2781   -6.0021    0.5203 Cl  0  0  0  0  0  0  0  0  0  0  0  0
   -0.7028    0.6814    1.0679 C   0  0  0  0  0  0  0  0  0  0  0  0
   -0.5129    2.1859    1.0399 C   0  0  0  0  0  0  0  0  0  0  0  0
    0.2732    2.8390    0.4120 O   0  0  0  0  0  0  0  0  0  0  0  0
   -1.4047    2.7619    1.8849 O   0  0  0  0  0  0  0  0  0  0  0  0
   -1.5288   -0.8171   -3.7536 H   0  0  0  0  0  0  0  0  0  0  0  0
   -2.4310   -3.0441   -4.3694 H   0  0  0  0  0  0  0  0  0  0  0  0
   -2.5687   -4.8465   -2.6648 H   0  0  0  0  0  0  0  0  0  0  0  0
   -1.8511   -4.4023   -0.3304 H   0  0  0  0  0  0  0  0  0  0  0  0
   -0.9502   -2.1899    0.2961 H   0  0  0  0  0  0  0  0  0  0  0  0
    0.1648    2.4666   -2.2905 H   0  0  0  0  0  0  0  0  0  0  0  0
   -1.3461    4.3363   -2.8561 H   0  0  0  0  0  0  0  0  0  0  0  0
   -3.8018    4.0935   -2.5682 H   0  0  0  0  0  0  0  0  0  0  0  0
   -4.7441    1.9635   -1.7065 H   0  0  0  0  0  0  0  0  0  0  0  0
   -3.2449    0.0675   -1.1711 H   0  0  0  0  0  0  0  0  0  0  0  0
    3.9308    0.1691   -1.3496 H   0  0  0  0  0  0  0  0  0  0  0  0
    3.2492   -0.5620   -2.8446 H   0  0  0  0  0  0  0  0  0  0  0  0
    5.1232   -1.2832   -0.0118 H   0  0  0  0  0  0  0  0  0  0  0  0
    5.6095   -3.5311    0.9133 H   0  0  0  0  0  0  0  0  0  0  0  0
    2.2337   -5.1578   -1.2512 H   0  0  0  0  0  0  0  0  0  0  0  0
   -0.3234    0.2893    2.0527 H   0  0  0  0  0  0  0  0  0  0  0  0
   -1.7933    0.4303    1.0229 H   0  0  0  0  0  0  0  0  0  0  0  0
   -1.3390    3.7482    1.9193 H   0  0  0  0  0  0  0  0  0  0  0  0
  1  2  1  0  0  0  0
  1 29  1  0  0  0  0
  2  3  2  0  0  0  0
  4  2  1  0  0  0  0
  5  7  1  0  0  0  0
  5  4  1  0  0  0  0
  6  5  2  0  0  0  0
  7  1  1  0  0  0  0
  8  7  1  0  0  0  0
  8 13  2  0  0  0  0
  9  8  1  0  0  0  0
 10  9  2  0  0  0  0
 10 11  1  0  0  0  0
 11 12  2  0  0  0  0
 12 13  1  0  0  0  0
 12 36  1  0  0  0  0
 13 37  1  0  0  0  0
 14 19  1  0  0  0  0
 14  7  1  0  0  0  0
 15 14  2  0  0  0  0
 16 17  2  0  0  0  0
 16 15  1  0  0  0  0
 17 18  1  0  0  0  0
 18 41  1  0  0  0  0
 18 19  2  0  0  0  0
 19 42  1  0  0  0  0
 20  4  1  0  0  0  0
 20 43  1  0  0  0  0
 20 21  1  0  0  0  0
 21 22  1  0  0  0  0
 22 45  1  0  0  0  0
 22 23  2  0  0  0  0
 23 46  1  0  0  0  0
 24 23  1  0  0  0  0
 24 28  1  0  0  0  0
 25 24  2  0  0  0  0
 26 21  2  0  0  0  0
 26 25  1  0  0  0  0
 27 26  1  0  0  0  0
 29 48  1  0  0  0  0
 30 29  1  0  0  0  0
 30 32  1  0  0  0  0
 31 30  2  0  0  0  0
 32 50  1  0  0  0  0
 33  9  1  0  0  0  0
 34 10  1  0  0  0  0
 35 11  1  0  0  0  0
 38 15  1  0  0  0  0
 39 16  1  0  0  0  0
 40 17  1  0  0  0  0
 44 20  1  0  0  0  0
 47 25  1  0  0  0  0
 49 29  1  0  0  0  0
M  END
$$$$
