
     RDKit          3D

 50 53  0  0  0  0  0  0  0  0999 V2000
   -0.0061    0.1543   -0.0859 N   0  0  0  0  0  0  0  0  0  0  0  0
    1.3506   -0.0370   -0.0320 C   0  0  0  0  0  0  0  0  0  0  0  0
    2.0615   -0.0372    0.9468 O   0  0  0  0  0  0  0  0  0  0  0  0
    1.7795   -0.2538   -1.3547 N   0  0  0  0  0  0  0  0  0  0  0  0
    0.7670   -0.0817   -2.2724 C   0  0  0  0  0  0  0  0  0  0  0  0
    0.8693   -0.0949   -3.4733 O   0  0  0  0  0  0  0  0  0  0  0  0
   -0.5391    0.0807   -1.4511 C   0  0  0  0  0  0  0  0  0  0  0  0
   -1.3304   -1.2108   -1.6886 C   0  0  0  0  0  0  0  0  0  0  0  0
   -1.3238   -2.2509   -0.7541 C   0  0  0  0  0  0  0  0  0  0  0  0
   -1.9822   -3.4530   -1.0298 C   0  0  0  0  0  0  0  0  0  0  0  0
   -2.6409   -3.6286   -2.2474 C   0  0  0  0  0  0  0  0  0  0  0  0
   -2.6374   -2.5955   -3.1910 C   0  0  0  0  0  0  0  0  0  0  0  0
   -1.9860   -1.3940   -2.9146 C   0  0  0  0  0  0  0  0  0  0  0  0
   -1.3162    1.3425   -1.8118 C   0  0  0  0  0  0  0  0  0  0  0  0
   -0.6729    2.4572   -2.3625 C   0  0  0  0  0  0  0  0  0  0  0  0
   -1.3728    3.6453   -2.5728 C   0  0  0  0  0  0  0  0  0  0  0  0
   -2.7244    3.7370   -2.2294 C   0  0  0  0  0  0  0  0  0  0  0  0
   -3.3745    2.6292   -1.6806 C   0  0  0  0  0  0  0  0  0  0  0  0
   -2.6739    1.4380   -1.4785 C   0  0  0  0  0  0  0  0  0  0  0  0
    3.1328   -0.6686   -1.6852 C   0  0  0  0  0  0  0  0  0  0  0  0
    3.4973   -1.9849   -1.0352 C   0  0  0  0  0  0  0  0  0  0  0  0
    4.4362   -2.0235    0.0031 C   0  0  0  0  0  0  0  0  0  0  0  0
    4.7866   -3.2129    0.6390 C   0  0  0  0  0  0  0  0  0  0  0  0
    4.1722   -4.4002    0.2354 C   0  0  0  0  0  0  0  0  0  0  0  0
    3.2221   -4.4048   -0.7865 C   0  0  0  0  0  0  0  0  0  0  0  0
    2.8945   -3.1978   -1.4081 C   0  0  0  0  0  0  0  0  0  0  0  0
    1.6943   -3.2320   -2.6787 Cl  0  0  0  0  0  0  0  0  0  0  0  0
    4.5882   -5.9029    1.0200 Cl  0  0  0  0  0  0  0  0  0  0  0  0
   -0.7458    0.6048    1.0547 C   0  0  0  0  0  0  0  0  0  0  0  0
   -0.7696    2.1240    1.1817 C   0  0  0  0  0  0  0  0  0  0  0  0
    0.0178    2.8736    0.6695 O   0  0  0  0  0  0  0  0  0  0  0  0
   -1.7699    2.5223    1.9867 O   0  0  0  0  0  0  0  0  0  0  0  0
   -0.7893   -2.1291    0.1886 H   0  0  0  0  0  0  0  0  0  0  0  0
   -1.9707   -4.2569   -0.2900 H   0  0  0  0  0  0  0  0  0  0  0  0
   -3.1521   -4.5693   -2.4653 H   0  0  0  0  0  0  0  0  0  0  0  0
   -3.1418   -2.7285   -4.1509 H   0  0  0  0  0  0  0  0  0  0  0  0
   -1.9673   -0.5953   -3.6571 H   0  0  0  0  0  0  0  0  0  0  0  0
    0.3842    2.4054   -2.6239 H   0  0  0  0  0  0  0  0  0  0  0  0
   -0.8568    4.5066   -3.0029 H   0  0  0  0  0  0  0  0  0  0  0  0
   -3.2703    4.6692   -2.3930 H   0  0  0  0  0  0  0  0  0  0  0  0
   -4.4319    2.6883   -1.4124 H   0  0  0  0  0  0  0  0  0  0  0  0
   -3.1898    0.5705   -1.0626 H   0  0  0  0  0  0  0  0  0  0  0  0
    3.8423    0.1070   -1.3635 H   0  0  0  0  0  0  0  0  0  0  0  0
    3.1607   -0.7397   -2.7818 H   0  0  0  0  0  0  0  0  0  0  0  0
    4.8888   -1.0863    0.3324 H   0  0  0  0  0  0  0  0  0  0  0  0
    5.5182   -3.2239    1.4472 H   0  0  0  0  0  0  0  0  0  0  0  0
    2.7415   -5.3314   -1.0978 H   0  0  0  0  0  0  0  0  0  0  0  0
   -0.2528    0.2150    1.9603 H   0  0  0  0  0  0  0  0  0  0  0  0
   -1.7720    0.2133    1.0404 H   0  0  0  0  0  0  0  0  0  0  0  0
   -1.7102    3.4908    2.0558 H   0  0  0  0  0  0  0  0  0  0  0  0
  1  2  1  0
  1  7  1  0
  1 29  1  0
  2  3  2  0
  2  4  1  0
  4  5  1  0
  4 20  1  0
  5  6  2  0
  5  7  1  0
  7  8  1  0
  7 14  1  0
  8  9  2  0
  8 13  1  0
  9 10  1  0
  9 33  1  0
 10 11  2  0
 10 34  1  0
 11 12  1  0
 11 35  1  0
 12 13  2  0
 12 36  1  0
 13 37  1  0
 14 15  2  0
 14 19  1  0
 15 16  1  0
 15 38  1  0
 16 17  2  0
 16 39  1  0
 17 18  1  0
 17 40  1  0
 18 19  2  0
 18 41  1  0
 19 42  1  0
 20 21  1  0
 20 43  1  0
 20 44  1  0
 21 22  2  0
 21 26  1  0
 22 23  1  0
 22 45  1  0
 23 24  2  0
 23 46  1  0
 24 25  1  0
 24 28  1  0
 25 26  2  0
 25 47  1  0
 26 27  1  0
 29 30  1  0
 29 48  1  0
 29 49  1  0
 30 31  2  0
 30 32  1  0
 32 50  1  0
M  END

