rmsd59.gzmat
 OpenBabel08211713393D

 50 53  0  0  0  0  0  0  0  0999 V2000
    0.0000    0.0000    0.0000 N   0  0  0  0  0  0  0  0  0  0  0  0
    1.4168    0.0000    0.0000 C   0  0  0  0  0  0  0  0  0  0  0  0
    2.1201    0.0000    0.9730 O   0  0  0  0  0  0  0  0  0  0  0  0
    1.8443   -0.0697   -1.3534 N   0  0  0  0  0  0  0  0  0  0  0  0
    0.7585   -0.0379   -2.2518 C   0  0  0  0  0  0  0  0  0  0  0  0
    0.8580   -0.0439   -3.4434 O   0  0  0  0  0  0  0  0  0  0  0  0
   -0.5441    0.0259   -1.3881 C   0  0  0  0  0  0  0  0  0  0  0  0
   -1.2895   -1.2542   -1.7031 C   0  0  0  0  0  0  0  0  0  0  0  0
   -1.4716   -2.2600   -0.7556 C   0  0  0  0  0  0  0  0  0  0  0  0
   -2.0967   -3.4513   -1.1214 C   0  0  0  0  0  0  0  0  0  0  0  0
   -2.5436   -3.6361   -2.4275 C   0  0  0  0  0  0  0  0  0  0  0  0
   -2.3716   -2.6249   -3.3726 C   0  0  0  0  0  0  0  0  0  0  0  0
   -1.7439   -1.4370   -3.0133 C   0  0  0  0  0  0  0  0  0  0  0  0
   -1.3510    1.2608   -1.6816 C   0  0  0  0  0  0  0  0  0  0  0  0
   -0.7200    2.4333   -2.1009 C   0  0  0  0  0  0  0  0  0  0  0  0
   -1.4767    3.5708   -2.3748 C   0  0  0  0  0  0  0  0  0  0  0  0
   -2.8612    3.5430   -2.2217 C   0  0  0  0  0  0  0  0  0  0  0  0
   -3.4906    2.3776   -1.7858 C   0  0  0  0  0  0  0  0  0  0  0  0
   -2.7381    1.2374   -1.5189 C   0  0  0  0  0  0  0  0  0  0  0  0
    3.1557   -0.6018   -1.7209 C   0  0  0  0  0  0  0  0  0  0  0  0
    3.4329   -1.9194   -1.0433 C   0  0  0  0  0  0  0  0  0  0  0  0
    4.5609   -2.0353   -0.2247 C   0  0  0  0  0  0  0  0  0  0  0  0
    4.8451   -3.2312    0.4311 C   0  0  0  0  0  0  0  0  0  0  0  0
    3.9816   -4.3062    0.2585 C   0  0  0  0  0  0  0  0  0  0  0  0
    2.8485   -4.2358   -0.5412 C   0  0  0  0  0  0  0  0  0  0  0  0
    2.6002   -3.0281   -1.1837 C   0  0  0  0  0  0  0  0  0  0  0  0
    1.2020   -2.9354   -2.1548 Cl  0  0  0  0  0  0  0  0  0  0  0  0
    4.3231   -5.7729    1.0644 Cl  0  0  0  0  0  0  0  0  0  0  0  0
   -0.7028    0.6493    1.0883 C   0  0  0  0  0  0  0  0  0  0  0  0
   -0.4670    2.1467    1.1419 C   0  0  0  0  0  0  0  0  0  0  0  0
    0.3207    2.8136    0.5312 O   0  0  0  0  0  0  0  0  0  0  0  0
   -1.3152    2.6953    2.0486 O   0  0  0  0  0  0  0  0  0  0  0  0
   -1.1071   -2.1356    0.2649 H   0  0  0  0  0  0  0  0  0  0  0  0
   -2.2256   -4.2409   -0.3844 H   0  0  0  0  0  0  0  0  0  0  0  0
   -3.0208   -4.5706   -2.7134 H   0  0  0  0  0  0  0  0  0  0  0  0
   -2.7195   -2.7657   -4.3941 H   0  0  0  0  0  0  0  0  0  0  0  0
   -1.5887   -0.6534   -3.7590 H   0  0  0  0  0  0  0  0  0  0  0  0
    0.3665    2.4743   -2.2052 H   0  0  0  0  0  0  0  0  0  0  0  0
   -0.9798    4.4821   -2.7042 H   0  0  0  0  0  0  0  0  0  0  0  0
   -3.4509    4.4309   -2.4425 H   0  0  0  0  0  0  0  0  0  0  0  0
   -4.5705    2.3571   -1.6550 H   0  0  0  0  0  0  0  0  0  0  0  0
   -3.2358    0.3236   -1.1919 H   0  0  0  0  0  0  0  0  0  0  0  0
    3.9267    0.1621   -1.4459 H   0  0  0  0  0  0  0  0  0  0  0  0
    3.1997   -0.7160   -2.8371 H   0  0  0  0  0  0  0  0  0  0  0  0
    5.2193   -1.1754   -0.0821 H   0  0  0  0  0  0  0  0  0  0  0  0
    5.7229   -3.3109    1.0734 H   0  0  0  0  0  0  0  0  0  0  0  0
    2.1789   -5.0901   -0.6588 H   0  0  0  0  0  0  0  0  0  0  0  0
   -0.3538    0.1959    2.0581 H   0  0  0  0  0  0  0  0  0  0  0  0
   -1.7994    0.4360    1.0111 H   0  0  0  0  0  0  0  0  0  0  0  0
   -1.2123    3.6737    2.1477 H   0  0  0  0  0  0  0  0  0  0  0  0
  1  2  1  0  0  0  0
  1 29  1  0  0  0  0
  2  3  2  0  0  0  0
  4  2  1  0  0  0  0
  5  7  1  0  0  0  0
  5  4  1  0  0  0  0
  6  5  2  0  0  0  0
  7  1  1  0  0  0  0
  8  7  1  0  0  0  0
  8  9  2  0  0  0  0
  9 33  1  0  0  0  0
 10  9  1  0  0  0  0
 10 34  1  0  0  0  0
 11 10  2  0  0  0  0
 12 13  2  0  0  0  0
 12 11  1  0  0  0  0
 13  8  1  0  0  0  0
 14 19  1  0  0  0  0
 14  7  1  0  0  0  0
 15 14  2  0  0  0  0
 16 17  2  0  0  0  0
 16 15  1  0  0  0  0
 17 18  1  0  0  0  0
 18 41  1  0  0  0  0
 18 19  2  0  0  0  0
 19 42  1  0  0  0  0
 20 43  1  0  0  0  0
 20  4  1  0  0  0  0
 20 21  1  0  0  0  0
 21 22  1  0  0  0  0
 22 45  1  0  0  0  0
 22 23  2  0  0  0  0
 23 46  1  0  0  0  0
 24 23  1  0  0  0  0
 24 28  1  0  0  0  0
 25 24  2  0  0  0  0
 26 21  2  0  0  0  0
 26 25  1  0  0  0  0
 27 26  1  0  0  0  0
 29 30  1  0  0  0  0
 29 48  1  0  0  0  0
 30 32  1  0  0  0  0
 31 30  2  0  0  0  0
 32 50  1  0  0  0  0
 35 11  1  0  0  0  0
 36 12  1  0  0  0  0
 37 13  1  0  0  0  0
 38 15  1  0  0  0  0
 39 16  1  0  0  0  0
 40 17  1  0  0  0  0
 44 20  1  0  0  0  0
 47 25  1  0  0  0  0
 49 29  1  0  0  0  0
M  END
$$$$
