50
rmsd145.gzmat
N          0.00000        0.00000        0.00000
C          1.41740        0.00000        0.00000
O          2.12030        0.00000        0.97350
N          1.84520       -0.06710       -1.35260
C          0.76040       -0.03000       -2.25160
O          0.86220       -0.01550       -3.44310
C         -0.54380        0.00530       -1.38900
C         -1.25550       -1.29690       -1.69510
C         -1.44360       -2.28550       -0.73110
C         -2.03900       -3.49490       -1.08690
C         -2.45000       -3.71480       -2.39900
C         -2.26900       -2.72160       -3.36120
C         -1.67450       -1.51420       -3.01150
C         -1.38940        1.21200       -1.68950
C         -0.79930        2.40020       -2.12350
C         -1.59170        3.51660       -2.38280
C         -2.97180        3.45080       -2.20560
C         -3.56250        2.26430       -1.77270
C         -2.77410        1.14640       -1.51610
C          3.16240       -0.58110       -1.72390
C          3.44290       -1.91540       -1.08110
C          4.56210       -2.04630       -0.25260
C          4.84870       -3.25810        0.37230
C          3.99520       -4.33390        0.16070
C          2.87310       -4.25040       -0.65320
C          2.62270       -3.02750       -1.26540
Cl         1.23750       -2.92290       -2.25390
Cl         4.33260       -5.81780        0.93570
C         -0.70040        0.66860        1.07830
C         -0.50220        2.17260        1.07840
O          0.27630        2.83490        0.45100
O         -1.37680        2.73430        1.95080
H         -1.10950       -2.13220        0.29580
H         -2.17290       -4.27120       -0.33690
H         -2.90820       -4.66150       -2.67680
H         -2.58450       -2.89280       -4.38850
H         -1.51700       -0.74270       -3.76970
H          0.28320        2.47040       -2.25000
H         -1.12610        4.44180       -2.71880
H         -3.58960        4.32460       -2.40520
H         -4.64060        2.21050       -1.63660
H         -3.24230        0.21730       -1.18900
H          3.92680        0.17950       -1.42220
H          3.21570       -0.66340       -2.84240
H          5.21310       -1.18640       -0.07860
H          5.72100       -3.34920        1.02050
H          2.21300       -5.10670       -0.80430
H         -0.32450        0.25710        2.05650
H         -1.79250        0.42570        1.02560
H         -1.30340        3.71880        2.00850
