50
rmsd16.gzmat
N          0.00000        0.00000        0.00000
C          1.41500        0.00000        0.00000
O          2.12030        0.00000        0.97150
N          1.84080        0.07340       -1.35500
C          0.75150        0.06880       -2.25020
O          0.84850        0.11440       -3.44110
C         -0.54910       -0.02980       -1.38590
C         -1.31140       -1.29210       -1.68600
C         -2.70600       -1.30270       -1.61940
C         -3.40840       -2.47380       -1.89060
C         -2.72040       -3.64000       -2.22250
C         -1.32820       -3.63380       -2.28100
C         -0.62320       -2.46270       -2.01370
C         -1.33520        1.22860       -1.68700
C         -1.59200        2.19280       -0.71390
C         -2.26830        3.36250       -1.05730
C         -2.69010        3.56910       -2.36820
C         -2.43590        2.60320       -3.34160
C         -1.76000        1.43550       -3.00350
C          3.15270        0.60540       -1.72030
C          3.47350        1.88590       -0.99320
C          4.66850        1.96760       -0.27050
C          5.00860        3.13050        0.41680
C          4.13240        4.20840        0.37540
C          2.93530        4.17220       -0.32710
C          2.63130        2.99620       -1.00380
Cl         1.15180        2.95040       -1.85190
Cl         4.53800        5.63380        1.22400
C         -0.71040       -0.61960        1.09970
C         -0.51660       -2.12210        1.17060
O          0.28110       -2.81420        0.60290
O         -1.42500       -2.64210        2.03510
H         -3.25070       -0.39330       -1.36260
H         -4.49550       -2.47660       -1.84500
H         -3.27050       -4.55460       -2.43630
H         -0.78580       -4.54490       -2.52970
H          0.46860       -2.47490       -2.04620
H         -1.24720        2.05450        0.31160
H         -2.45780        4.11830       -0.29830
H         -3.21330        4.48490       -2.63450
H         -2.75850        2.76430       -4.36850
H         -1.54750        0.68680       -3.77100
H          3.17870        0.77150       -2.83090
H          3.91530       -0.18410       -1.49740
H          5.33870        1.10610       -0.23030
H          5.94110        3.18260        0.98000
H          2.25910        5.02930       -0.34700
H         -1.80140       -0.37750        1.02620
H         -0.34100       -0.16730        2.06260
H         -1.35820       -3.62300        2.13910
