50
rmsd205.gzmat
N          0.00000        0.00000        0.00000
C          1.41800        0.00000        0.00000
O          2.12060        0.00000        0.97350
N          1.84660       -0.06450       -1.35200
C          0.76370       -0.02010       -2.25250
O          0.86780        0.01050       -3.44340
C         -0.54230       -0.00240       -1.39010
C         -1.22890       -1.31930       -1.69340
C         -1.43180       -2.29120       -0.71520
C         -1.98040       -3.52380       -1.06640
C         -2.32980       -3.78410       -2.38910
C         -2.14600       -2.80380       -3.36400
C         -1.60050       -1.57200       -3.01810
C         -1.40500        1.19060       -1.69160
C         -0.82880        2.39160       -2.11000
C         -1.63690        3.49370       -2.38150
C         -3.01840        3.40260       -2.22680
C         -3.59440        2.20550       -1.80370
C         -2.79070        1.10090       -1.53740
C          3.16440       -0.57650       -1.72220
C          3.43470       -1.91940       -1.09270
C          4.53770       -2.05760       -0.24380
C          4.81690       -3.27740        0.36900
C          3.97150       -4.35300        0.12560
C          2.86300       -4.26090       -0.70580
C          2.62080       -3.03030       -1.30610
Cl         1.25440       -2.91370       -2.31810
Cl         4.30280       -5.84880        0.88100
C         -0.69650        0.68390        1.07150
C         -0.44680        2.18010        1.08460
O          0.34350        2.82240        0.45080
O         -1.28610        2.76230        1.97760
H         -1.14270       -2.10680        0.32010
H         -2.12590       -4.28630       -0.30400
H         -2.74150       -4.75280       -2.66400
H         -2.41860       -3.00430       -4.39860
H         -1.44230       -0.81050       -3.78570
H          0.25480        2.48160       -2.21480
H         -1.18370        4.42710       -2.71190
H         -3.64820        4.26540       -2.43550
H         -4.67340        2.13360       -1.68300
H         -3.24790        0.16390       -1.21700
H          3.92960        0.17740       -1.40530
H          3.22550       -0.64360       -2.84120
H          5.18080       -1.19760       -0.04330
H          5.67720       -3.37500        1.03220
H          2.20700       -5.11650       -0.87870
H         -0.35040        0.25290        2.05240
H         -1.79540        0.47940        1.00070
H         -1.17530        3.74290        2.04520
