50
rmsd31.gzmat
N          0.00000        0.00000        0.00000
C          1.41690        0.00000        0.00000
O          2.12030        0.00000        0.97310
N          1.84480       -0.06690       -1.35300
C          0.76070       -0.02170       -2.25310
O          0.86210        0.01600       -3.44380
C         -0.54360       -0.01460       -1.38920
C         -1.21180       -1.34240       -1.68510
C         -1.62520       -1.59050       -2.99800
C         -2.16100       -2.82900       -3.33500
C         -2.29070       -3.82170       -2.36360
C         -1.89540       -3.56830       -1.05280
C         -1.35620       -2.32850       -0.71090
C         -1.41980        1.16840       -1.68970
C         -0.85350        2.38450       -2.07680
C         -1.67210        3.48250       -2.33230
C         -3.05450        3.37060       -2.19960
C         -3.62100        2.15640       -1.81450
C         -2.80610        1.05700       -1.55960
C          3.15710       -0.59530       -1.72060
C          3.39660       -1.95100       -1.10540
C          4.45570       -2.11000       -0.20620
C          4.70350       -3.34410        0.39140
C          3.87100       -4.41260        0.08230
C          2.80390       -4.29930       -0.79910
C          2.59090       -3.05440       -1.37990
Cl         1.26900       -2.90900       -2.44490
Cl         4.16540       -5.92630        0.81640
C         -0.70710        0.67280        1.07090
C         -0.49490        2.17470        1.07390
O          0.31290        2.82730        0.47380
O         -1.39300        2.74780        1.91420
H         -1.50710       -0.81870       -3.76250
H         -2.47130       -3.02470       -4.35960
H         -2.69670       -4.79450       -2.63210
H         -1.99700       -4.34010       -0.29270
H         -1.03050       -2.14930        0.31440
H          0.23020        2.48890       -2.16810
H         -1.22600        4.42990       -2.63130
H         -3.69220        4.23070       -2.39600
H         -4.70060        2.06690       -1.71360
H         -3.25470        0.10710       -1.26570
H          3.93270        0.14070       -1.38730
H          3.22540       -0.64850       -2.83960
H          5.08710       -1.25470        0.04580
H          5.53000       -3.45870        1.09300
H          2.15730       -5.14930       -1.02580
H         -0.34630        0.25860        2.05330
H         -1.80050        0.43880        1.00620
H         -1.31040        3.73170        1.97350
