rmsd145.gzmat
 OpenBabel08211713393D

 50 53  0  0  0  0  0  0  0  0999 V2000
    0.0000    0.0000    0.0000 N   0  0  0  0  0  0  0  0  0  0  0  0
    1.4174    0.0000    0.0000 C   0  0  0  0  0  0  0  0  0  0  0  0
    2.1203    0.0000    0.9735 O   0  0  0  0  0  0  0  0  0  0  0  0
    1.8452   -0.0671   -1.3526 N   0  0  0  0  0  0  0  0  0  0  0  0
    0.7604   -0.0300   -2.2516 C   0  0  0  0  0  0  0  0  0  0  0  0
    0.8622   -0.0155   -3.4431 O   0  0  0  0  0  0  0  0  0  0  0  0
   -0.5438    0.0053   -1.3890 C   0  0  0  0  0  0  0  0  0  0  0  0
   -1.2555   -1.2969   -1.6951 C   0  0  0  0  0  0  0  0  0  0  0  0
   -1.4436   -2.2855   -0.7311 C   0  0  0  0  0  0  0  0  0  0  0  0
   -2.0390   -3.4949   -1.0869 C   0  0  0  0  0  0  0  0  0  0  0  0
   -2.4500   -3.7148   -2.3990 C   0  0  0  0  0  0  0  0  0  0  0  0
   -2.2690   -2.7216   -3.3612 C   0  0  0  0  0  0  0  0  0  0  0  0
   -1.6745   -1.5142   -3.0115 C   0  0  0  0  0  0  0  0  0  0  0  0
   -1.3894    1.2120   -1.6895 C   0  0  0  0  0  0  0  0  0  0  0  0
   -0.7993    2.4002   -2.1235 C   0  0  0  0  0  0  0  0  0  0  0  0
   -1.5917    3.5166   -2.3828 C   0  0  0  0  0  0  0  0  0  0  0  0
   -2.9718    3.4508   -2.2056 C   0  0  0  0  0  0  0  0  0  0  0  0
   -3.5625    2.2643   -1.7727 C   0  0  0  0  0  0  0  0  0  0  0  0
   -2.7741    1.1464   -1.5161 C   0  0  0  0  0  0  0  0  0  0  0  0
    3.1624   -0.5811   -1.7239 C   0  0  0  0  0  0  0  0  0  0  0  0
    3.4429   -1.9154   -1.0811 C   0  0  0  0  0  0  0  0  0  0  0  0
    4.5621   -2.0463   -0.2526 C   0  0  0  0  0  0  0  0  0  0  0  0
    4.8487   -3.2581    0.3723 C   0  0  0  0  0  0  0  0  0  0  0  0
    3.9952   -4.3339    0.1607 C   0  0  0  0  0  0  0  0  0  0  0  0
    2.8731   -4.2504   -0.6532 C   0  0  0  0  0  0  0  0  0  0  0  0
    2.6227   -3.0275   -1.2654 C   0  0  0  0  0  0  0  0  0  0  0  0
    1.2375   -2.9229   -2.2539 Cl  0  0  0  0  0  0  0  0  0  0  0  0
    4.3326   -5.8178    0.9357 Cl  0  0  0  0  0  0  0  0  0  0  0  0
   -0.7004    0.6686    1.0783 C   0  0  0  0  0  0  0  0  0  0  0  0
   -0.5022    2.1726    1.0784 C   0  0  0  0  0  0  0  0  0  0  0  0
    0.2763    2.8349    0.4510 O   0  0  0  0  0  0  0  0  0  0  0  0
   -1.3768    2.7343    1.9508 O   0  0  0  0  0  0  0  0  0  0  0  0
   -1.1095   -2.1322    0.2958 H   0  0  0  0  0  0  0  0  0  0  0  0
   -2.1729   -4.2712   -0.3369 H   0  0  0  0  0  0  0  0  0  0  0  0
   -2.9082   -4.6615   -2.6768 H   0  0  0  0  0  0  0  0  0  0  0  0
   -2.5845   -2.8928   -4.3885 H   0  0  0  0  0  0  0  0  0  0  0  0
   -1.5170   -0.7427   -3.7697 H   0  0  0  0  0  0  0  0  0  0  0  0
    0.2832    2.4704   -2.2500 H   0  0  0  0  0  0  0  0  0  0  0  0
   -1.1261    4.4418   -2.7188 H   0  0  0  0  0  0  0  0  0  0  0  0
   -3.5896    4.3246   -2.4052 H   0  0  0  0  0  0  0  0  0  0  0  0
   -4.6406    2.2105   -1.6366 H   0  0  0  0  0  0  0  0  0  0  0  0
   -3.2423    0.2173   -1.1890 H   0  0  0  0  0  0  0  0  0  0  0  0
    3.9268    0.1795   -1.4222 H   0  0  0  0  0  0  0  0  0  0  0  0
    3.2157   -0.6634   -2.8424 H   0  0  0  0  0  0  0  0  0  0  0  0
    5.2131   -1.1864   -0.0786 H   0  0  0  0  0  0  0  0  0  0  0  0
    5.7210   -3.3492    1.0205 H   0  0  0  0  0  0  0  0  0  0  0  0
    2.2130   -5.1067   -0.8043 H   0  0  0  0  0  0  0  0  0  0  0  0
   -0.3245    0.2571    2.0565 H   0  0  0  0  0  0  0  0  0  0  0  0
   -1.7925    0.4257    1.0256 H   0  0  0  0  0  0  0  0  0  0  0  0
   -1.3034    3.7188    2.0085 H   0  0  0  0  0  0  0  0  0  0  0  0
  1  2  1  0  0  0  0
  1 29  1  0  0  0  0
  2  3  2  0  0  0  0
  4  2  1  0  0  0  0
  5  7  1  0  0  0  0
  5  4  1  0  0  0  0
  6  5  2  0  0  0  0
  7  1  1  0  0  0  0
  8  7  1  0  0  0  0
  8  9  2  0  0  0  0
  9 33  1  0  0  0  0
 10  9  1  0  0  0  0
 10 34  1  0  0  0  0
 11 10  2  0  0  0  0
 12 13  2  0  0  0  0
 12 11  1  0  0  0  0
 13  8  1  0  0  0  0
 14 19  1  0  0  0  0
 14  7  1  0  0  0  0
 15 14  2  0  0  0  0
 16 17  2  0  0  0  0
 16 15  1  0  0  0  0
 17 18  1  0  0  0  0
 18 41  1  0  0  0  0
 18 19  2  0  0  0  0
 19 42  1  0  0  0  0
 20 43  1  0  0  0  0
 20  4  1  0  0  0  0
 20 21  1  0  0  0  0
 21 22  1  0  0  0  0
 22 45  1  0  0  0  0
 22 23  2  0  0  0  0
 23 46  1  0  0  0  0
 24 23  1  0  0  0  0
 24 28  1  0  0  0  0
 25 24  2  0  0  0  0
 26 21  2  0  0  0  0
 26 25  1  0  0  0  0
 27 26  1  0  0  0  0
 29 30  1  0  0  0  0
 29 48  1  0  0  0  0
 30 32  1  0  0  0  0
 31 30  2  0  0  0  0
 32 50  1  0  0  0  0
 35 11  1  0  0  0  0
 36 12  1  0  0  0  0
 37 13  1  0  0  0  0
 38 15  1  0  0  0  0
 39 16  1  0  0  0  0
 40 17  1  0  0  0  0
 44 20  1  0  0  0  0
 47 25  1  0  0  0  0
 49 29  1  0  0  0  0
M  END
$$$$
