rmsd115.gzmat
 OpenBabel08211713393D

 50 53  0  0  0  0  0  0  0  0999 V2000
    0.0000    0.0000    0.0000 N   0  0  0  0  0  0  0  0  0  0  0  0
    1.4173    0.0000    0.0000 C   0  0  0  0  0  0  0  0  0  0  0  0
    2.1204    0.0000    0.9738 O   0  0  0  0  0  0  0  0  0  0  0  0
    1.8484    0.0614   -1.3519 N   0  0  0  0  0  0  0  0  0  0  0  0
    0.7659   -0.0009   -2.2532 C   0  0  0  0  0  0  0  0  0  0  0  0
    0.8686   -0.0616   -3.4427 O   0  0  0  0  0  0  0  0  0  0  0  0
   -0.5406    0.0092   -1.3902 C   0  0  0  0  0  0  0  0  0  0  0  0
   -1.4357   -1.1597   -1.6888 C   0  0  0  0  0  0  0  0  0  0  0  0
   -2.8162   -1.0345   -1.5137 C   0  0  0  0  0  0  0  0  0  0  0  0
   -3.6535   -2.1137   -1.7807 C   0  0  0  0  0  0  0  0  0  0  0  0
   -3.1150   -3.3211   -2.2239 C   0  0  0  0  0  0  0  0  0  0  0  0
   -1.7387   -3.4480   -2.3975 C   0  0  0  0  0  0  0  0  0  0  0  0
   -0.8973   -2.3705   -2.1273 C   0  0  0  0  0  0  0  0  0  0  0  0
   -1.1888    1.3438   -1.7028 C   0  0  0  0  0  0  0  0  0  0  0  0
   -1.3094    2.3506   -0.7473 C   0  0  0  0  0  0  0  0  0  0  0  0
   -1.8203    3.5949   -1.1126 C   0  0  0  0  0  0  0  0  0  0  0  0
   -2.2140    3.8320   -2.4270 C   0  0  0  0  0  0  0  0  0  0  0  0
   -2.1112    2.8178   -3.3791 C   0  0  0  0  0  0  0  0  0  0  0  0
   -1.6024    1.5749   -3.0191 C   0  0  0  0  0  0  0  0  0  0  0  0
    3.1529    0.6141   -1.7132 C   0  0  0  0  0  0  0  0  0  0  0  0
    3.3448    1.9841   -1.1132 C   0  0  0  0  0  0  0  0  0  0  0  0
    4.3437    2.1741   -0.1532 C   0  0  0  0  0  0  0  0  0  0  0  0
    4.5385    3.4227    0.4341 C   0  0  0  0  0  0  0  0  0  0  0  0
    3.7147    4.4740    0.0510 C   0  0  0  0  0  0  0  0  0  0  0  0
    2.7041    4.3290   -0.8901 C   0  0  0  0  0  0  0  0  0  0  0  0
    2.5419    3.0699   -1.4566 C   0  0  0  0  0  0  0  0  0  0  0  0
    1.2839    2.8845   -2.5894 Cl  0  0  0  0  0  0  0  0  0  0  0  0
    3.9449    6.0057    0.7709 Cl  0  0  0  0  0  0  0  0  0  0  0  0
   -0.6992   -0.6791    1.0722 C   0  0  0  0  0  0  0  0  0  0  0  0
   -0.4824   -2.1802    1.0663 C   0  0  0  0  0  0  0  0  0  0  0  0
    0.2728   -2.8344    0.4025 O   0  0  0  0  0  0  0  0  0  0  0  0
   -1.3045   -2.7508    1.9822 O   0  0  0  0  0  0  0  0  0  0  0  0
   -3.2412   -0.0878   -1.1778 H   0  0  0  0  0  0  0  0  0  0  0  0
   -4.7284   -2.0130   -1.6470 H   0  0  0  0  0  0  0  0  0  0  0  0
   -3.7708   -4.1638   -2.4350 H   0  0  0  0  0  0  0  0  0  0  0  0
   -1.3149   -4.3904   -2.7410 H   0  0  0  0  0  0  0  0  0  0  0  0
    0.1820   -2.4876   -2.2495 H   0  0  0  0  0  0  0  0  0  0  0  0
   -0.9879    2.1822    0.2812 H   0  0  0  0  0  0  0  0  0  0  0  0
   -1.9017    4.3837   -0.3678 H   0  0  0  0  0  0  0  0  0  0  0  0
   -2.5989    4.8081   -2.7133 H   0  0  0  0  0  0  0  0  0  0  0  0
   -2.4206    2.9997   -4.4067 H   0  0  0  0  0  0  0  0  0  0  0  0
   -1.5046    0.7860   -3.7691 H   0  0  0  0  0  0  0  0  0  0  0  0
    3.2348    0.6496   -2.8313 H   0  0  0  0  0  0  0  0  0  0  0  0
    3.9422   -0.0962   -1.3583 H   0  0  0  0  0  0  0  0  0  0  0  0
    4.9668    1.3318    0.1572 H   0  0  0  0  0  0  0  0  0  0  0  0
    5.3171    3.5609    1.1850 H   0  0  0  0  0  0  0  0  0  0  0  0
    2.0610    5.1652   -1.1711 H   0  0  0  0  0  0  0  0  0  0  0  0
   -1.7939   -0.4492    1.0166 H   0  0  0  0  0  0  0  0  0  0  0  0
   -0.3340   -0.2657    2.0537 H   0  0  0  0  0  0  0  0  0  0  0  0
   -1.2123   -3.7341    2.0399 H   0  0  0  0  0  0  0  0  0  0  0  0
  1  2  1  0  0  0  0
  1 29  1  0  0  0  0
  2  3  2  0  0  0  0
  4  2  1  0  0  0  0
  5  7  1  0  0  0  0
  5  4  1  0  0  0  0
  6  5  2  0  0  0  0
  7  1  1  0  0  0  0
  8  9  1  0  0  0  0
  8  7  1  0  0  0  0
  9 33  1  0  0  0  0
 10 34  1  0  0  0  0
 10  9  2  0  0  0  0
 11 10  1  0  0  0  0
 12 11  2  0  0  0  0
 12 13  1  0  0  0  0
 13  8  2  0  0  0  0
 14  7  1  0  0  0  0
 14 15  2  0  0  0  0
 15 38  1  0  0  0  0
 16 15  1  0  0  0  0
 16 39  1  0  0  0  0
 17 16  2  0  0  0  0
 18 19  2  0  0  0  0
 18 17  1  0  0  0  0
 19 14  1  0  0  0  0
 20 44  1  0  0  0  0
 20  4  1  0  0  0  0
 20 21  1  0  0  0  0
 21 22  1  0  0  0  0
 22 45  1  0  0  0  0
 22 23  2  0  0  0  0
 23 46  1  0  0  0  0
 24 23  1  0  0  0  0
 24 28  1  0  0  0  0
 25 24  2  0  0  0  0
 26 21  2  0  0  0  0
 26 25  1  0  0  0  0
 27 26  1  0  0  0  0
 29 49  1  0  0  0  0
 30 29  1  0  0  0  0
 30 32  1  0  0  0  0
 31 30  2  0  0  0  0
 32 50  1  0  0  0  0
 35 11  1  0  0  0  0
 36 12  1  0  0  0  0
 37 13  1  0  0  0  0
 40 17  1  0  0  0  0
 41 18  1  0  0  0  0
 42 19  1  0  0  0  0
 43 20  1  0  0  0  0
 47 25  1  0  0  0  0
 48 29  1  0  0  0  0
M  END
$$$$
