38
rmsd86.gzmat
S          0.00000        0.00000        0.00000
C          1.80410        0.00000        0.00000
N          2.32910        0.00000        1.23430
C          1.34640       -0.01860        2.20960
C          0.03850       -0.02280        1.74830
C         -1.14030       -0.03580        2.58090
O         -1.07940        0.01930        3.79060
C         -2.46250       -0.12150        1.89610
C         -3.21810        1.03550        1.71930
C         -4.46590        0.95240        1.10420
C         -4.95300       -0.28260        0.67820
C         -4.19280       -1.43700        0.86160
C         -2.94210       -1.35890        1.47110
C          1.76600       -0.02400        3.62520
N          2.55400       -0.08880       -1.12780
C          4.01300        0.06890       -1.03010
C          1.96480        0.20810       -2.40130
C          1.27980       -0.81260       -3.06800
C          0.71960       -0.54740       -4.31480
C          0.84620        0.71710       -4.88790
C          1.53520        1.72670       -4.21630
C          2.09910        1.48000       -2.96790
H         -2.83680        1.99650        2.06280
H         -5.06030        1.85140        0.95970
H         -5.92950       -0.34620        0.20330
H         -4.57570       -2.39980        0.52990
H         -2.34720       -2.25960        1.61870
H          1.46740        0.91420        4.12750
H          2.85350       -0.14200        3.74530
H          1.26280       -0.83180        4.18830
H          4.38850       -0.50470       -0.15640
H          4.30770        1.12260       -0.88810
H          4.49130       -0.32800       -1.94050
H          1.18900       -1.80120       -2.61660
H          0.17890       -1.33250       -4.84200
H          0.40450        0.91830       -5.86240
H          1.62940        2.71390       -4.66670
H          2.63040        2.26750       -2.43700
