
     RDKit          3D

 38 40  0  0  0  0  0  0  0  0999 V2000
    0.0574    0.1746   -0.0927 S   0  0  0  0  0  0  0  0  0  0  0  0
    1.8133    0.1975   -0.0227 C   0  0  0  0  0  0  0  0  0  0  0  0
    2.3155    0.0202    1.1793 N   0  0  0  0  0  0  0  0  0  0  0  0
    1.3467   -0.1489    2.1235 C   0  0  0  0  0  0  0  0  0  0  0  0
    0.0364   -0.0864    1.6575 C   0  0  0  0  0  0  0  0  0  0  0  0
   -1.1723   -0.3074    2.4552 C   0  0  0  0  0  0  0  0  0  0  0  0
   -1.0935   -0.7546    3.5954 O   0  0  0  0  0  0  0  0  0  0  0  0
   -2.5287   -0.0164    1.8729 C   0  0  0  0  0  0  0  0  0  0  0  0
   -2.7820    1.0520    0.9988 C   0  0  0  0  0  0  0  0  0  0  0  0
   -4.0780    1.2929    0.5356 C   0  0  0  0  0  0  0  0  0  0  0  0
   -5.1303    0.4649    0.9334 C   0  0  0  0  0  0  0  0  0  0  0  0
   -4.8878   -0.5945    1.8154 C   0  0  0  0  0  0  0  0  0  0  0  0
   -3.5986   -0.8240    2.2919 C   0  0  0  0  0  0  0  0  0  0  0  0
    1.7546   -0.3893    3.5428 C   0  0  0  0  0  0  0  0  0  0  0  0
    2.5999    0.3364   -1.1316 N   0  0  0  0  0  0  0  0  0  0  0  0
    4.0306    0.0805   -0.9802 C   0  0  0  0  0  0  0  0  0  0  0  0
    2.0561    0.5090   -2.4322 C   0  0  0  0  0  0  0  0  0  0  0  0
    1.1580    1.5542   -2.6983 C   0  0  0  0  0  0  0  0  0  0  0  0
    0.6319    1.7150   -3.9805 C   0  0  0  0  0  0  0  0  0  0  0  0
    1.0122    0.8553   -5.0150 C   0  0  0  0  0  0  0  0  0  0  0  0
    1.9238   -0.1717   -4.7567 C   0  0  0  0  0  0  0  0  0  0  0  0
    2.4402   -0.3508   -3.4724 C   0  0  0  0  0  0  0  0  0  0  0  0
   -1.9725    1.7187    0.6987 H   0  0  0  0  0  0  0  0  0  0  0  0
   -4.2664    2.1351   -0.1345 H   0  0  0  0  0  0  0  0  0  0  0  0
   -6.1419    0.6492    0.5635 H   0  0  0  0  0  0  0  0  0  0  0  0
   -5.7103   -1.2387    2.1355 H   0  0  0  0  0  0  0  0  0  0  0  0
   -3.3927   -1.6294    2.9990 H   0  0  0  0  0  0  0  0  0  0  0  0
    1.1613    0.2179    4.2399 H   0  0  0  0  0  0  0  0  0  0  0  0
    2.8253   -0.1727    3.6536 H   0  0  0  0  0  0  0  0  0  0  0  0
    1.5630   -1.4369    3.8240 H   0  0  0  0  0  0  0  0  0  0  0  0
    4.5610    0.5349   -1.8263 H   0  0  0  0  0  0  0  0  0  0  0  0
    4.2537   -1.0000   -0.9445 H   0  0  0  0  0  0  0  0  0  0  0  0
    4.3764    0.5235   -0.0383 H   0  0  0  0  0  0  0  0  0  0  0  0
    0.8827    2.2448   -1.9004 H   0  0  0  0  0  0  0  0  0  0  0  0
   -0.0678    2.5311   -4.1750 H   0  0  0  0  0  0  0  0  0  0  0  0
    0.6040    0.9887   -6.0192 H   0  0  0  0  0  0  0  0  0  0  0  0
    2.2284   -0.8489   -5.5581 H   0  0  0  0  0  0  0  0  0  0  0  0
    3.1353   -1.1673   -3.2704 H   0  0  0  0  0  0  0  0  0  0  0  0
  1  2  1  0
  1  5  1  0
  2  3  2  0
  2 15  1  0
  3  4  1  0
  4  5  2  0
  4 14  1  0
  5  6  1  0
  6  7  2  0
  6  8  1  0
  8  9  2  0
  8 13  1  0
  9 10  1  0
  9 23  1  0
 10 11  2  0
 10 24  1  0
 11 12  1  0
 11 25  1  0
 12 13  2  0
 12 26  1  0
 13 27  1  0
 14 28  1  0
 14 29  1  0
 14 30  1  0
 15 16  1  0
 15 17  1  0
 16 31  1  0
 16 32  1  0
 16 33  1  0
 17 18  2  0
 17 22  1  0
 18 19  1  0
 18 34  1  0
 19 20  2  0
 19 35  1  0
 20 21  1  0
 20 36  1  0
 21 22  2  0
 21 37  1  0
 22 38  1  0
M  END

