38
rmsd37.gzmat
S          0.00000        0.00000        0.00000
C          1.80470        0.00000        0.00000
N          2.33110        0.00000        1.23290
C          1.34790       -0.01730        2.20870
C          0.03960       -0.01620        1.74830
C         -1.14030       -0.03090        2.57950
O         -1.08050       -0.02670        3.79040
C         -2.46340       -0.06050        1.89120
C         -3.07140        1.13300        1.50860
C         -4.32150        1.09900        0.89330
C         -4.95560       -0.12210        0.66820
C         -4.34140       -1.31250        1.05470
C         -3.09130       -1.28440        1.67020
C          1.76600       -0.02300        3.62460
N          2.54110       -0.09760       -1.13590
C          4.00220        0.05000       -1.06790
C          1.92750        0.21700       -2.39540
C          1.91050        1.53090       -2.87350
C          1.31500        1.79360       -4.10380
C          0.74050        0.75870       -4.84100
C          0.76240       -0.54740       -4.35450
C          1.36010       -0.82950       -3.12880
H         -2.57530        2.08520        1.69200
H         -4.80340        2.02550        0.58940
H         -5.93330       -0.14600        0.19210
H         -4.83840       -2.26370        0.87800
H         -2.61190       -2.21140        1.98150
H          1.50180        0.93060        4.11620
H          2.84820       -0.17860        3.74730
H          1.23410       -0.80620        4.19600
H          4.39010       -0.49780       -0.18310
H          4.31000        1.10500       -0.96980
H          4.45950       -0.38230       -1.97360
H          2.34820        2.33700       -2.28730
H          1.29570        2.81240       -4.48930
H          0.27060        0.97250       -5.79970
H          0.30840       -1.35180       -4.93190
H          1.38380       -1.84780       -2.74040
