38
rmsd40.gzmat
S          0.00000        0.00000        0.00000
C          1.80470        0.00000        0.00000
N          2.33090        0.00000        1.23380
C          1.34790       -0.01980        2.20870
C          0.03980       -0.02040        1.74770
C         -1.13960       -0.02140        2.57920
O         -1.08040       -0.00140        3.79020
C         -2.45960       -0.03610        1.88520
C         -3.15780        1.15900        1.72520
C         -4.40100        1.14800        1.09550
C         -4.93810       -0.05270        0.63330
C         -4.23450       -1.24510        0.79860
C         -2.99080       -1.24000        1.42790
C          1.75880       -0.02860        3.62660
N          2.54460       -0.08710       -1.13380
C          4.00180        0.09500       -1.06470
C          1.92980        0.18450       -2.40170
C          1.99660        1.46270       -2.96570
C          1.41040        1.68400       -4.20850
C          0.76540        0.64340       -4.87620
C          0.70120       -0.62610       -4.30340
C          1.28530       -0.86660       -3.06250
H         -2.73560        2.09330        2.09300
H         -4.95380        2.07620        0.96870
H         -5.90970       -0.05960        0.14410
H         -4.65580       -2.18030        0.43750
H         -2.44130       -2.17050        1.56330
H          1.39590        0.87690        4.14770
H          2.84990       -0.08310        3.75460
H          1.30200       -0.87860        4.16720
H          4.39890       -0.40230       -0.15490
H          4.28280        1.16040       -1.01410
H          4.47420       -0.36730       -1.94750
H          2.49300        2.27410       -2.43640
H          1.45340        2.67520       -4.65810
H          0.30890        0.82370       -5.84780
H          0.19110       -1.43440       -4.82630
H          1.24270       -1.85760       -2.60980
