rmsd98.gzmat
 OpenBabel08211713393D

 38 40  0  0  1  0  0  0  0  0999 V2000
    0.0000    0.0000    0.0000 S   0  0  0  0  0  0  0  0  0  0  0  0
    1.8044    0.0000    0.0000 C   0  0  0  0  0  0  0  0  0  0  0  0
    2.3307    0.0000    1.2328 N   0  0  0  0  0  0  0  0  0  0  0  0
    1.3476    0.0211    2.2084 C   0  0  0  0  0  0  0  0  0  0  0  0
    0.0394    0.0231    1.7481 C   0  0  2  0  0  0  0  0  0  0  0  0
   -1.1377    0.0263    2.5838 C   0  0  0  0  0  0  0  0  0  0  0  0
   -1.0728   -0.0120    3.7940 O   0  0  0  0  0  0  0  0  0  0  0  0
   -2.4638    0.0731    1.9039 C   0  0  0  0  0  0  0  0  0  0  0  0
   -2.9504    1.2829    1.4130 C   0  0  0  0  0  0  0  0  0  0  0  0
   -4.2054    1.3222    0.8084 C   0  0  0  0  0  0  0  0  0  0  0  0
   -4.9624    0.1568    0.6952 C   0  0  0  0  0  0  0  0  0  0  0  0
   -4.4699   -1.0500    1.1900 C   0  0  0  0  0  0  0  0  0  0  0  0
   -3.2180   -1.0939    1.8007 C   0  0  0  0  0  0  0  0  0  0  0  0
    1.7609    0.0365    3.6255 C   0  0  0  0  0  0  0  0  0  0  0  0
    2.5438    0.0989   -1.1355 N   0  0  0  0  0  0  0  0  0  0  0  0
    4.0034   -0.0627   -1.0573 C   0  0  0  0  0  0  0  0  0  0  0  0
    1.9377   -0.2345   -2.3940 C   0  0  0  0  0  0  0  0  0  0  0  0
    1.3208    0.7890   -3.1195 C   0  0  0  0  0  0  0  0  0  0  0  0
    0.7324    0.4863   -4.3447 C   0  0  0  0  0  0  0  0  0  0  0  0
    0.7653   -0.8172   -4.8372 C   0  0  0  0  0  0  0  0  0  0  0  0
    1.3919   -1.8285   -4.1094 C   0  0  0  0  0  0  0  0  0  0  0  0
    1.9820   -1.5446   -2.8815 C   0  0  0  0  0  0  0  0  0  0  0  0
   -2.3578    2.1919    1.5070 H   0  0  0  0  0  0  0  0  0  0  0  0
   -4.5956    2.2631    0.4278 H   0  0  0  0  0  0  0  0  0  0  0  0
   -5.9419    0.1900    0.2231 H   0  0  0  0  0  0  0  0  0  0  0  0
   -5.0640   -1.9570    1.1036 H   0  0  0  0  0  0  0  0  0  0  0  0
   -2.8327   -2.0318    2.1991 H   0  0  0  0  0  0  0  0  0  0  0  0
    1.4351    0.9696    4.1204 H   0  0  0  0  0  0  0  0  0  0  0  0
    2.8497   -0.0567    3.7525 H   0  0  0  0  0  0  0  0  0  0  0  0
    1.2714   -0.7792    4.1909 H   0  0  0  0  0  0  0  0  0  0  0  0
    4.3934    0.5084   -0.1890 H   0  0  0  0  0  0  0  0  0  0  0  0
    4.4688    0.3346   -1.9744 H   0  0  0  0  0  0  0  0  0  0  0  0
    4.2989   -1.1170   -0.9232 H   0  0  0  0  0  0  0  0  0  0  0  0
    1.3004    1.8060   -2.7275 H   0  0  0  0  0  0  0  0  0  0  0  0
    0.2421    1.2725   -4.9175 H   0  0  0  0  0  0  0  0  0  0  0  0
    0.2969   -1.0481   -5.7924 H   0  0  0  0  0  0  0  0  0  0  0  0
    1.4157   -2.8453   -4.4992 H   0  0  0  0  0  0  0  0  0  0  0  0
    2.4623   -2.3320   -2.3035 H   0  0  0  0  0  0  0  0  0  0  0  0
  1  2  1  0  0  0  0
  1  5  1  0  0  0  0
  2  3  2  0  0  0  0
  3  4  2  0  0  0  0
  4 14  1  0  0  0  0
  5  4  1  0  0  0  0
  5  6  1  1  0  0  0
  6  7  2  0  0  0  0
  8  6  1  0  0  0  0
  9 23  1  0  0  0  0
  9  8  2  0  0  0  0
 10  9  1  0  0  0  0
 11 10  2  0  0  0  0
 11 12  1  0  0  0  0
 12 13  2  0  0  0  0
 13  8  1  0  0  0  0
 13 27  1  0  0  0  0
 14 29  1  0  0  0  0
 14 28  1  0  0  0  0
 14 30  1  0  0  0  0
 15 16  1  0  0  0  0
 15  2  1  0  0  0  0
 16 33  1  0  0  0  0
 16 31  1  0  0  0  0
 17 15  1  0  0  0  0
 18 34  1  0  0  0  0
 18 17  2  0  0  0  0
 19 18  1  0  0  0  0
 20 19  2  0  0  0  0
 20 21  1  0  0  0  0
 21 22  2  0  0  0  0
 22 17  1  0  0  0  0
 22 38  1  0  0  0  0
 24 10  1  0  0  0  0
 25 11  1  0  0  0  0
 26 12  1  0  0  0  0
 32 16  1  0  0  0  0
 35 19  1  0  0  0  0
 36 20  1  0  0  0  0
 37 21  1  0  0  0  0
M  RAD  1   5   2
M  END
$$$$
