38
rmsd1.gzmat
S          0.00000        0.00000        0.00000
C          1.80300        0.00000        0.00000
N          2.33110        0.00000        1.23160
C          1.34910        0.01240        2.20920
C          0.04140        0.01190        1.74850
C         -1.14080        0.01280        2.57700
O         -1.08690       -0.00130        3.78790
C         -2.45790        0.02480        1.87820
C         -2.97010        1.22260        1.38420
C         -4.20910        1.22580        0.74590
C         -4.92680        0.03830        0.60900
C         -4.41170       -1.15520        1.11330
C         -3.17260       -1.16440        1.75170
C          1.76660        0.00180        3.62540
N          2.53430        0.11590       -1.13940
C          3.99980        0.00950       -1.06620
C          1.94720       -0.27550       -2.39110
C          1.66090        0.72950       -3.31920
C          1.10150        0.37610       -4.54450
C          0.83480       -0.96100       -4.83540
C          1.12150       -1.95520       -3.90050
C          1.68130       -1.61980       -2.67100
H         -2.40950        2.14950        1.49970
H         -4.61640        2.15580        0.35600
H         -5.89280        0.04370        0.10890
H         -4.97750       -2.07860        1.01210
H         -2.76690       -2.09220        2.15300
H          1.19670        0.74220        4.21910
H          2.84060        0.20340        3.75380
H          1.54870       -0.97740        4.08970
H          4.36870        0.55510       -0.17280
H          4.44660        0.46620       -1.96490
H          4.33490       -1.03840       -0.98310
H          1.86740        1.77210       -3.07800
H          0.86740        1.14900       -5.27540
H          0.39800       -1.22980       -5.79560
H          0.90420       -2.99790       -4.13010
H          1.90380       -2.39210       -1.93590
