38

S          0.07210        0.26280       -0.06210
C          1.82690        0.17860       -0.00340
N          2.32640        0.01490        1.20170
C          1.35780       -0.03520        2.15970
C          0.04900        0.06800        1.69680
C         -1.15410        0.14040        2.52940
O         -1.06410        0.26430        3.74720
C         -2.51690        0.09510        1.89410
C         -3.54450        0.82270        2.51690
C         -4.83740        0.80780        1.99760
C         -5.12770        0.04220        0.86240
C         -4.11960       -0.70960        0.25460
C         -2.81890       -0.68140        0.76450
C          1.76470       -0.18060        3.59220
N          2.61240        0.21680       -1.12140
C          4.02560       -0.12000       -0.96320
C          2.07300        0.36630       -2.42600
C          1.21810        1.43750       -2.72920
C          0.69440        1.57230       -4.01540
C          1.03470        0.66030       -5.01840
C          1.90410       -0.39340       -4.72390
C          2.41750       -0.54630       -3.43510
H         -3.30240        1.39410        3.41460
H         -5.62580        1.39000        2.48080
H         -6.14260        0.02540        0.45770
H         -4.34600       -1.32720       -0.61780
H         -2.04680       -1.29280        0.29530
H          1.58770        0.75970        4.13770
H          2.83140       -0.43630        3.64120
H          1.16000       -0.93970        4.10690
H          4.40220        0.33860       -0.04080
H          4.57900        0.26680       -1.82800
H          4.18230       -1.20980       -0.88430
H          0.97460        2.16950       -1.95840
H          0.02830        2.40910       -4.23780
H          0.62890        0.77350       -6.02590
H          2.17790       -1.11170       -5.50030
H          3.07880       -1.38320       -3.20550
