rmsd107.gzmat
 OpenBabel08211713393D

 38 40  0  0  1  0  0  0  0  0999 V2000
    0.0000    0.0000    0.0000 S   0  0  0  0  0  0  0  0  0  0  0  0
    1.8043    0.0000    0.0000 C   0  0  0  0  0  0  0  0  0  0  0  0
    2.3302    0.0000    1.2330 N   0  0  0  0  0  0  0  0  0  0  0  0
    1.3477   -0.0097    2.2091 C   0  0  0  0  0  0  0  0  0  0  0  0
    0.0400    0.0047    1.7478 C   0  0  2  0  0  0  0  0  0  0  0  0
   -1.1404    0.0201    2.5786 C   0  0  0  0  0  0  0  0  0  0  0  0
   -1.0827   -0.0228    3.7889 O   0  0  0  0  0  0  0  0  0  0  0  0
   -2.4590    0.0923    1.8856 C   0  0  0  0  0  0  0  0  0  0  0  0
   -2.9278    1.3189    1.4196 C   0  0  0  0  0  0  0  0  0  0  0  0
   -4.1685    1.3838    0.7886 C   0  0  0  0  0  0  0  0  0  0  0  0
   -4.9302    0.2271    0.6269 C   0  0  0  0  0  0  0  0  0  0  0  0
   -4.4566   -0.9959    1.0995 C   0  0  0  0  0  0  0  0  0  0  0  0
   -3.2187   -1.0659    1.7359 C   0  0  0  0  0  0  0  0  0  0  0  0
    1.7623   -0.0171    3.6261 C   0  0  0  0  0  0  0  0  0  0  0  0
    2.5374   -0.1165   -1.1369 N   0  0  0  0  0  0  0  0  0  0  0  0
    4.0046   -0.0344   -1.0670 C   0  0  0  0  0  0  0  0  0  0  0  0
    1.9567    0.2596   -2.3948 C   0  0  0  0  0  0  0  0  0  0  0  0
    1.5518    1.5772   -2.6339 C   0  0  0  0  0  0  0  0  0  0  0  0
    0.9957    1.8992   -3.8684 C   0  0  0  0  0  0  0  0  0  0  0  0
    0.8492    0.9193   -4.8498 C   0  0  0  0  0  0  0  0  0  0  0  0
    1.2589   -0.3901   -4.6022 C   0  0  0  0  0  0  0  0  0  0  0  0
    1.8158   -0.7305   -3.3721 C   0  0  0  0  0  0  0  0  0  0  0  0
   -2.3310    2.2210    1.5492 H   0  0  0  0  0  0  0  0  0  0  0  0
   -4.5425    2.3373    0.4233 H   0  0  0  0  0  0  0  0  0  0  0  0
   -5.8976    0.2800    0.1320 H   0  0  0  0  0  0  0  0  0  0  0  0
   -5.0540   -1.8960    0.9739 H   0  0  0  0  0  0  0  0  0  0  0  0
   -2.8498   -2.0170    2.1181 H   0  0  0  0  0  0  0  0  0  0  0  0
    1.4369    0.9070    4.1379 H   0  0  0  0  0  0  0  0  0  0  0  0
    2.8518   -0.1103    3.7507 H   0  0  0  0  0  0  0  0  0  0  0  0
    1.2742   -0.8427    4.1775 H   0  0  0  0  0  0  0  0  0  0  0  0
    4.3601    1.0084   -1.1174 H   0  0  0  0  0  0  0  0  0  0  0  0
    4.4445   -0.6088   -1.8998 H   0  0  0  0  0  0  0  0  0  0  0  0
    4.3641   -0.4721   -0.1124 H   0  0  0  0  0  0  0  0  0  0  0  0
    1.6657    2.3401   -1.8648 H   0  0  0  0  0  0  0  0  0  0  0  0
    0.6733    2.9207   -4.0670 H   0  0  0  0  0  0  0  0  0  0  0  0
    0.4112    1.1775   -5.8125 H   0  0  0  0  0  0  0  0  0  0  0  0
    1.1392   -1.1524   -5.3709 H   0  0  0  0  0  0  0  0  0  0  0  0
    2.1284   -1.7537   -3.1655 H   0  0  0  0  0  0  0  0  0  0  0  0
  1  2  1  0  0  0  0
  1  5  1  0  0  0  0
  2  3  2  0  0  0  0
  3  4  2  0  0  0  0
  4 14  1  0  0  0  0
  5  4  1  0  0  0  0
  5  6  1  1  0  0  0
  6  7  2  0  0  0  0
  8  6  1  0  0  0  0
  9 23  1  0  0  0  0
  9  8  2  0  0  0  0
 10  9  1  0  0  0  0
 11 10  2  0  0  0  0
 11 12  1  0  0  0  0
 12 13  2  0  0  0  0
 13  8  1  0  0  0  0
 13 27  1  0  0  0  0
 14 29  1  0  0  0  0
 14 28  1  0  0  0  0
 14 30  1  0  0  0  0
 15 16  1  0  0  0  0
 15  2  1  0  0  0  0
 16 33  1  0  0  0  0
 17 15  1  0  0  0  0
 18 17  1  0  0  0  0
 18 34  1  0  0  0  0
 19 18  2  0  0  0  0
 20 21  2  0  0  0  0
 20 19  1  0  0  0  0
 21 22  1  0  0  0  0
 22 38  1  0  0  0  0
 22 17  2  0  0  0  0
 24 10  1  0  0  0  0
 25 11  1  0  0  0  0
 26 12  1  0  0  0  0
 31 16  1  0  0  0  0
 32 16  1  0  0  0  0
 35 19  1  0  0  0  0
 36 20  1  0  0  0  0
 37 21  1  0  0  0  0
M  RAD  1   5   2
M  END
$$$$
