
     RDKit          3D

 38 40  0  0  0  0  0  0  0  0999 V2000
    0.0413    0.0197   -0.0783 S   0  0  0  0  0  0  0  0  0  0  0  0
    1.7976    0.0616   -0.0223 C   0  0  0  0  0  0  0  0  0  0  0  0
    2.3084   -0.0301    1.1858 N   0  0  0  0  0  0  0  0  0  0  0  0
    1.3475   -0.1589    2.1442 C   0  0  0  0  0  0  0  0  0  0  0  0
    0.0338   -0.1447    1.6838 C   0  0  0  0  0  0  0  0  0  0  0  0
   -1.1646   -0.3644    2.4971 C   0  0  0  0  0  0  0  0  0  0  0  0
   -1.0683   -0.7333    3.6638 O   0  0  0  0  0  0  0  0  0  0  0  0
   -2.5307   -0.1700    1.8981 C   0  0  0  0  0  0  0  0  0  0  0  0
   -3.5666   -0.9919    2.3719 C   0  0  0  0  0  0  0  0  0  0  0  0
   -4.8626   -0.8521    1.8796 C   0  0  0  0  0  0  0  0  0  0  0  0
   -5.1471    0.1315    0.9252 C   0  0  0  0  0  0  0  0  0  0  0  0
   -4.1301    0.9744    0.4711 C   0  0  0  0  0  0  0  0  0  0  0  0
   -2.8267    0.8232    0.9516 C   0  0  0  0  0  0  0  0  0  0  0  0
    1.7669   -0.3128    3.5722 C   0  0  0  0  0  0  0  0  0  0  0  0
    2.5747    0.2373   -1.1330 N   0  0  0  0  0  0  0  0  0  0  0  0
    3.9951    0.5103   -0.9248 C   0  0  0  0  0  0  0  0  0  0  0  0
    2.0237    0.3651   -2.4352 C   0  0  0  0  0  0  0  0  0  0  0  0
    2.3799    1.4567   -3.2422 C   0  0  0  0  0  0  0  0  0  0  0  0
    1.8553    1.5774   -4.5299 C   0  0  0  0  0  0  0  0  0  0  0  0
    0.9631    0.6212   -5.0225 C   0  0  0  0  0  0  0  0  0  0  0  0
    0.6111   -0.4686   -4.2214 C   0  0  0  0  0  0  0  0  0  0  0  0
    1.1458   -0.6068   -2.9400 C   0  0  0  0  0  0  0  0  0  0  0  0
   -3.3285   -1.7366    3.1334 H   0  0  0  0  0  0  0  0  0  0  0  0
   -5.6578   -1.5072    2.2435 H   0  0  0  0  0  0  0  0  0  0  0  0
   -6.1644    0.2456    0.5426 H   0  0  0  0  0  0  0  0  0  0  0  0
   -4.3517    1.7589   -0.2564 H   0  0  0  0  0  0  0  0  0  0  0  0
   -2.0472    1.5044    0.6074 H   0  0  0  0  0  0  0  0  0  0  0  0
    1.1792    0.3358    4.2361 H   0  0  0  0  0  0  0  0  0  0  0  0
    2.8383   -0.0892    3.6608 H   0  0  0  0  0  0  0  0  0  0  0  0
    1.5773   -1.3411    3.9182 H   0  0  0  0  0  0  0  0  0  0  0  0
    4.3687   -0.1311   -0.1174 H   0  0  0  0  0  0  0  0  0  0  0  0
    4.1735    1.5590   -0.6299 H   0  0  0  0  0  0  0  0  0  0  0  0
    4.5353    0.2959   -1.8553 H   0  0  0  0  0  0  0  0  0  0  0  0
    3.0594    2.2174   -2.8549 H   0  0  0  0  0  0  0  0  0  0  0  0
    2.1384    2.4329   -5.1476 H   0  0  0  0  0  0  0  0  0  0  0  0
    0.5486    0.7219   -6.0279 H   0  0  0  0  0  0  0  0  0  0  0  0
   -0.0729   -1.2308   -4.6017 H   0  0  0  0  0  0  0  0  0  0  0  0
    0.8927   -1.4752   -2.3309 H   0  0  0  0  0  0  0  0  0  0  0  0
  1  2  1  0
  1  5  1  0
  2  3  2  0
  2 15  1  0
  3  4  1  0
  4  5  2  0
  4 14  1  0
  5  6  1  0
  6  7  2  0
  6  8  1  0
  8  9  2  0
  8 13  1  0
  9 10  1  0
  9 23  1  0
 10 11  2  0
 10 24  1  0
 11 12  1  0
 11 25  1  0
 12 13  2  0
 12 26  1  0
 13 27  1  0
 14 28  1  0
 14 29  1  0
 14 30  1  0
 15 16  1  0
 15 17  1  0
 16 31  1  0
 16 32  1  0
 16 33  1  0
 17 18  2  0
 17 22  1  0
 18 19  1  0
 18 34  1  0
 19 20  2  0
 19 35  1  0
 20 21  1  0
 20 36  1  0
 21 22  2  0
 21 37  1  0
 22 38  1  0
M  END

