38

S          0.04130        0.01970       -0.07830
C          1.79760        0.06160       -0.02230
N          2.30840       -0.03010        1.18580
C          1.34750       -0.15890        2.14420
C          0.03380       -0.14470        1.68380
C         -1.16460       -0.36440        2.49710
O         -1.06830       -0.73330        3.66380
C         -2.53070       -0.17000        1.89810
C         -3.56660       -0.99190        2.37190
C         -4.86260       -0.85210        1.87960
C         -5.14710        0.13150        0.92520
C         -4.13010        0.97440        0.47110
C         -2.82670        0.82320        0.95160
C          1.76690       -0.31280        3.57220
N          2.57470        0.23730       -1.13300
C          3.99510        0.51030       -0.92480
C          2.02370        0.36510       -2.43520
C          2.37990        1.45670       -3.24220
C          1.85530        1.57740       -4.52990
C          0.96310        0.62120       -5.02250
C          0.61110       -0.46860       -4.22140
C          1.14580       -0.60680       -2.94000
H         -3.32850       -1.73660        3.13340
H         -5.65780       -1.50720        2.24350
H         -6.16440        0.24560        0.54260
H         -4.35170        1.75890       -0.25640
H         -2.04720        1.50440        0.60740
H          1.17920        0.33580        4.23610
H          2.83830       -0.08920        3.66080
H          1.57730       -1.34110        3.91820
H          4.36870       -0.13110       -0.11740
H          4.17350        1.55900       -0.62990
H          4.53530        0.29590       -1.85530
H          3.05940        2.21740       -2.85490
H          2.13840        2.43290       -5.14760
H          0.54860        0.72190       -6.02790
H         -0.07290       -1.23080       -4.60170
H          0.89270       -1.47520       -2.33090
