38
rmsd38.gzmat
S          0.00000        0.00000        0.00000
C          1.80360        0.00000        0.00000
N          2.32920        0.00000        1.23220
C          1.34650       -0.00630        2.20940
C          0.03900       -0.00390        1.74870
C         -1.14240        0.01140        2.57930
O         -1.08330        0.09480        3.78750
C         -2.46280       -0.07150        1.89190
C         -3.26940        1.06310        1.83200
C         -4.51080        0.99070        1.20280
C         -4.93930       -0.21210        0.64280
C         -4.13130       -1.34610        0.71490
C         -2.88930       -1.27930        1.34330
C          1.76730        0.00420        3.62450
N          2.53750       -0.12380       -1.13770
C          4.00600       -0.06440       -1.05580
C          1.97500        0.29790       -2.38970
C          1.59560        1.62810       -2.59770
C          1.06200        1.99350       -3.83030
C          0.90840        1.04280       -4.83850
C          1.29100       -0.28010       -4.62080
C          1.82840       -0.66300       -3.39460
H         -2.93080        1.99760        2.27820
H         -5.14640        1.87180        1.15180
H         -5.90780       -0.26610        0.15020
H         -4.46970       -2.28380        0.28050
H         -2.25990       -2.16630        1.40890
H          1.54430        0.98120        4.09140
H          2.84330       -0.19020        3.74870
H          1.20490       -0.74110        4.21730
H          4.35400       -0.60950       -0.15430
H          4.37480        0.97290       -0.98430
H          4.44280       -0.54610       -1.94600
H          1.71200        2.36780       -1.80630
H          0.76350        3.02650       -4.00550
H          0.48560        1.33400       -5.79850
H          1.16690       -1.01970       -5.41040
H          2.12250       -1.69580       -3.21140
