38
rmsd98.gzmat
S          0.00000        0.00000        0.00000
C          1.80440        0.00000        0.00000
N          2.33070        0.00000        1.23280
C          1.34760        0.02110        2.20840
C          0.03940        0.02310        1.74810
C         -1.13770        0.02630        2.58380
O         -1.07280       -0.01200        3.79400
C         -2.46380        0.07310        1.90390
C         -2.95040        1.28290        1.41300
C         -4.20540        1.32220        0.80840
C         -4.96240        0.15680        0.69520
C         -4.46990       -1.05000        1.19000
C         -3.21800       -1.09390        1.80070
C          1.76090        0.03650        3.62550
N          2.54380        0.09890       -1.13550
C          4.00340       -0.06270       -1.05730
C          1.93770       -0.23450       -2.39400
C          1.32080        0.78900       -3.11950
C          0.73240        0.48630       -4.34470
C          0.76530       -0.81720       -4.83720
C          1.39190       -1.82850       -4.10940
C          1.98200       -1.54460       -2.88150
H         -2.35780        2.19190        1.50700
H         -4.59560        2.26310        0.42780
H         -5.94190        0.19000        0.22310
H         -5.06400       -1.95700        1.10360
H         -2.83270       -2.03180        2.19910
H          1.43510        0.96960        4.12040
H          2.84970       -0.05670        3.75250
H          1.27140       -0.77920        4.19090
H          4.39340        0.50840       -0.18900
H          4.46880        0.33460       -1.97440
H          4.29890       -1.11700       -0.92320
H          1.30040        1.80600       -2.72750
H          0.24210        1.27250       -4.91750
H          0.29690       -1.04810       -5.79240
H          1.41570       -2.84530       -4.49920
H          2.46230       -2.33200       -2.30350
