rmsd1.gzmat
 OpenBabel08211713393D

 38 40  0  0  1  0  0  0  0  0999 V2000
    0.0000    0.0000    0.0000 S   0  0  0  0  0  0  0  0  0  0  0  0
    1.8030    0.0000    0.0000 C   0  0  0  0  0  0  0  0  0  0  0  0
    2.3311    0.0000    1.2316 N   0  0  0  0  0  0  0  0  0  0  0  0
    1.3491    0.0124    2.2092 C   0  0  0  0  0  0  0  0  0  0  0  0
    0.0414    0.0119    1.7485 C   0  0  2  0  0  0  0  0  0  0  0  0
   -1.1408    0.0128    2.5770 C   0  0  0  0  0  0  0  0  0  0  0  0
   -1.0869   -0.0013    3.7879 O   0  0  0  0  0  0  0  0  0  0  0  0
   -2.4579    0.0248    1.8782 C   0  0  0  0  0  0  0  0  0  0  0  0
   -2.9701    1.2226    1.3842 C   0  0  0  0  0  0  0  0  0  0  0  0
   -4.2091    1.2258    0.7459 C   0  0  0  0  0  0  0  0  0  0  0  0
   -4.9268    0.0383    0.6090 C   0  0  0  0  0  0  0  0  0  0  0  0
   -4.4117   -1.1552    1.1133 C   0  0  0  0  0  0  0  0  0  0  0  0
   -3.1726   -1.1644    1.7517 C   0  0  0  0  0  0  0  0  0  0  0  0
    1.7666    0.0018    3.6254 C   0  0  0  0  0  0  0  0  0  0  0  0
    2.5343    0.1159   -1.1394 N   0  0  0  0  0  0  0  0  0  0  0  0
    3.9998    0.0095   -1.0662 C   0  0  0  0  0  0  0  0  0  0  0  0
    1.9472   -0.2755   -2.3911 C   0  0  0  0  0  0  0  0  0  0  0  0
    1.6609    0.7295   -3.3192 C   0  0  0  0  0  0  0  0  0  0  0  0
    1.1015    0.3761   -4.5445 C   0  0  0  0  0  0  0  0  0  0  0  0
    0.8348   -0.9610   -4.8354 C   0  0  0  0  0  0  0  0  0  0  0  0
    1.1215   -1.9552   -3.9005 C   0  0  0  0  0  0  0  0  0  0  0  0
    1.6813   -1.6198   -2.6710 C   0  0  0  0  0  0  0  0  0  0  0  0
   -2.4095    2.1495    1.4997 H   0  0  0  0  0  0  0  0  0  0  0  0
   -4.6164    2.1558    0.3560 H   0  0  0  0  0  0  0  0  0  0  0  0
   -5.8928    0.0437    0.1089 H   0  0  0  0  0  0  0  0  0  0  0  0
   -4.9775   -2.0786    1.0121 H   0  0  0  0  0  0  0  0  0  0  0  0
   -2.7669   -2.0922    2.1530 H   0  0  0  0  0  0  0  0  0  0  0  0
    1.1967    0.7422    4.2191 H   0  0  0  0  0  0  0  0  0  0  0  0
    2.8406    0.2034    3.7538 H   0  0  0  0  0  0  0  0  0  0  0  0
    1.5487   -0.9774    4.0897 H   0  0  0  0  0  0  0  0  0  0  0  0
    4.3687    0.5551   -0.1728 H   0  0  0  0  0  0  0  0  0  0  0  0
    4.4466    0.4662   -1.9649 H   0  0  0  0  0  0  0  0  0  0  0  0
    4.3349   -1.0384   -0.9831 H   0  0  0  0  0  0  0  0  0  0  0  0
    1.8674    1.7721   -3.0780 H   0  0  0  0  0  0  0  0  0  0  0  0
    0.8674    1.1490   -5.2754 H   0  0  0  0  0  0  0  0  0  0  0  0
    0.3980   -1.2298   -5.7956 H   0  0  0  0  0  0  0  0  0  0  0  0
    0.9042   -2.9979   -4.1301 H   0  0  0  0  0  0  0  0  0  0  0  0
    1.9038   -2.3921   -1.9359 H   0  0  0  0  0  0  0  0  0  0  0  0
  1  2  1  0  0  0  0
  1  5  1  0  0  0  0
  2  3  2  0  0  0  0
  3  4  2  0  0  0  0
  4 14  1  0  0  0  0
  5  4  1  0  0  0  0
  5  6  1  1  0  0  0
  6  7  2  0  0  0  0
  8  6  1  0  0  0  0
  9 23  1  0  0  0  0
  9  8  2  0  0  0  0
 10  9  1  0  0  0  0
 11 10  2  0  0  0  0
 11 12  1  0  0  0  0
 12 13  2  0  0  0  0
 13  8  1  0  0  0  0
 13 27  1  0  0  0  0
 14 29  1  0  0  0  0
 14 30  1  0  0  0  0
 14 28  1  0  0  0  0
 15 16  1  0  0  0  0
 15  2  1  0  0  0  0
 16 33  1  0  0  0  0
 16 31  1  0  0  0  0
 17 15  1  0  0  0  0
 18 34  1  0  0  0  0
 18 17  2  0  0  0  0
 19 18  1  0  0  0  0
 20 19  2  0  0  0  0
 20 21  1  0  0  0  0
 21 22  2  0  0  0  0
 22 17  1  0  0  0  0
 22 38  1  0  0  0  0
 24 10  1  0  0  0  0
 25 11  1  0  0  0  0
 26 12  1  0  0  0  0
 32 16  1  0  0  0  0
 35 19  1  0  0  0  0
 36 20  1  0  0  0  0
 37 21  1  0  0  0  0
M  RAD  1   5   2
M  END
$$$$
