38
rmsd50.gzmat
S          0.00000        0.00000        0.00000
C          1.80480        0.00000        0.00000
N          2.33060        0.00000        1.23440
C          1.34730       -0.02250        2.20890
C          0.03880       -0.02220        1.74800
C         -1.13720       -0.05150        2.58400
O         -1.06830       -0.12900        3.79250
C         -2.46540        0.00860        1.90850
C         -3.23890       -1.14740        1.82540
C         -4.49440       -1.09250        1.22270
C         -4.97150        0.11480        0.71470
C         -4.19330        1.26850        0.80300
C         -2.93490        1.21820        1.40060
C          1.76110       -0.03730        3.62590
N          2.55030       -0.08320       -1.12970
C          4.00940        0.07190       -1.04220
C          1.94660        0.17920       -2.40340
C          2.05420        1.44210       -2.99450
C          1.46970        1.65750       -4.23930
C          0.78300        0.62720       -4.88080
C          0.68110       -0.62800       -4.28250
C          1.26720       -0.86360       -3.04170
H         -2.86610       -2.08530        2.23550
H         -5.10380       -1.99110        1.15440
H         -5.95430        0.15750        0.25020
H         -4.56880        2.20920        0.40690
H         -2.32640        2.11920        1.47430
H          1.33550        0.82370        4.17370
H          2.85380       -0.01970        3.75090
H          1.36730       -0.93340        4.14150
H          4.39150       -0.52510       -0.18720
H          4.30410        1.12180       -0.87350
H          4.48170       -0.29730       -1.96690
H          2.57730        2.24720       -2.48250
H          1.54410        2.63700       -4.70970
H          0.32160        0.80480       -5.85080
H          0.13930       -1.42860       -4.78520
H          1.19960       -1.84520       -2.57150
