38

S          0.05740        0.17460       -0.09270
C          1.81330        0.19750       -0.02270
N          2.31550        0.02020        1.17930
C          1.34670       -0.14890        2.12350
C          0.03640       -0.08640        1.65750
C         -1.17230       -0.30740        2.45520
O         -1.09350       -0.75460        3.59540
C         -2.52870       -0.01640        1.87290
C         -2.78200        1.05200        0.99880
C         -4.07800        1.29290        0.53560
C         -5.13030        0.46490        0.93340
C         -4.88780       -0.59450        1.81540
C         -3.59860       -0.82400        2.29190
C          1.75460       -0.38930        3.54280
N          2.59990        0.33640       -1.13160
C          4.03060        0.08050       -0.98020
C          2.05610        0.50900       -2.43220
C          1.15800        1.55420       -2.69830
C          0.63190        1.71500       -3.98050
C          1.01220        0.85530       -5.01500
C          1.92380       -0.17170       -4.75670
C          2.44020       -0.35080       -3.47240
H         -1.97250        1.71870        0.69870
H         -4.26640        2.13510       -0.13450
H         -6.14190        0.64920        0.56350
H         -5.71030       -1.23870        2.13550
H         -3.39270       -1.62940        2.99900
H          1.16130        0.21790        4.23990
H          2.82530       -0.17270        3.65360
H          1.56300       -1.43690        3.82400
H          4.56100        0.53490       -1.82630
H          4.25370       -1.00000       -0.94450
H          4.37640        0.52350       -0.03830
H          0.88270        2.24480       -1.90040
H         -0.06780        2.53110       -4.17500
H          0.60400        0.98870       -6.01920
H          2.22840       -0.84890       -5.55810
H          3.13530       -1.16730       -3.27040
