rmsd157.gzmat
 OpenBabel08211713393D

 36 37  0  0  0  0  0  0  0  0999 V2000
    0.0000    0.0000    0.0000 O   0  0  0  0  0  0  0  0  0  0  0  0
    1.3448    0.0000    0.0000 C   0  0  0  0  0  0  0  0  0  0  0  0
    2.0376    0.0000    0.9847 O   0  0  0  0  0  0  0  0  0  0  0  0
    1.8361    0.0088   -1.4022 C   0  0  0  0  0  0  0  0  0  0  0  0
    1.0474   -0.4875   -2.4404 C   0  0  0  0  0  0  0  0  0  0  0  0
    1.5445   -0.4854   -3.7409 C   0  0  0  0  0  0  0  0  0  0  0  0
    2.8264    0.0193   -3.9732 C   0  0  0  0  0  0  0  0  0  0  0  0
    3.3488    0.0222   -5.3361 N   0  0  0  0  0  0  0  0  0  0  0  0
    4.4561    0.4966   -5.5279 O   0  0  0  0  0  0  0  0  0  0  0  0
    2.6515   -0.4498   -6.2187 O   0  0  0  0  0  0  0  0  0  0  0  0
    3.6207    0.5197   -2.9383 C   0  0  0  0  0  0  0  0  0  0  0  0
    3.1168    0.5105   -1.6411 C   0  0  0  0  0  0  0  0  0  0  0  0
   -0.7491   -0.0614    1.2368 C   0  0  0  0  0  0  0  0  0  0  0  0
   -0.4622   -1.4107    1.8865 C   0  0  0  0  0  0  0  0  0  0  0  0
   -0.3819    1.1242    2.1213 C   0  0  0  0  0  0  0  0  0  0  0  0
   -2.1821    0.0681    0.7588 C   0  0  0  0  0  0  0  0  0  0  0  0
   -3.2279   -0.3303    1.5936 C   0  0  0  0  0  0  0  0  0  0  0  0
   -4.5479   -0.1998    1.1694 C   0  0  0  0  0  0  0  0  0  0  0  0
   -4.8297    0.3286   -0.0892 C   0  0  0  0  0  0  0  0  0  0  0  0
   -3.7875    0.7352   -0.9190 C   0  0  0  0  0  0  0  0  0  0  0  0
   -2.4657    0.6119   -0.4946 C   0  0  0  0  0  0  0  0  0  0  0  0
    0.0453   -0.8757   -2.2351 H   0  0  0  0  0  0  0  0  0  0  0  0
    0.9425   -0.8733   -4.5690 H   0  0  0  0  0  0  0  0  0  0  0  0
    4.6224    0.9097   -3.1452 H   0  0  0  0  0  0  0  0  0  0  0  0
    3.7196    0.8862   -0.8086 H   0  0  0  0  0  0  0  0  0  0  0  0
   -0.7359   -2.2389    1.2209 H   0  0  0  0  0  0  0  0  0  0  0  0
   -1.0137   -1.5369    2.8243 H   0  0  0  0  0  0  0  0  0  0  0  0
    0.6061   -1.5190    2.1280 H   0  0  0  0  0  0  0  0  0  0  0  0
   -0.4210    2.0665    1.5603 H   0  0  0  0  0  0  0  0  0  0  0  0
    0.6346    1.0275    2.5309 H   0  0  0  0  0  0  0  0  0  0  0  0
   -1.0711    1.2170    2.9686 H   0  0  0  0  0  0  0  0  0  0  0  0
   -3.0200   -0.7409    2.5798 H   0  0  0  0  0  0  0  0  0  0  0  0
   -5.3603   -0.5119    1.8228 H   0  0  0  0  0  0  0  0  0  0  0  0
   -5.8611    0.4257   -0.4214 H   0  0  0  0  0  0  0  0  0  0  0  0
   -4.0036    1.1539   -1.9003 H   0  0  0  0  0  0  0  0  0  0  0  0
   -1.6591    0.9462   -1.1476 H   0  0  0  0  0  0  0  0  0  0  0  0
  1  2  1  0  0  0  0
  1 13  1  0  0  0  0
  2  3  2  0  0  0  0
  4  2  1  0  0  0  0
  5 22  1  0  0  0  0
  5  4  2  0  0  0  0
  6  5  1  0  0  0  0
  7  6  2  0  0  0  0
  7 11  1  0  0  0  0
  8  7  1  0  0  0  0
  9  8  2  0  0  0  0
 10  8  2  0  0  0  0
 11 12  2  0  0  0  0
 12  4  1  0  0  0  0
 12 25  1  0  0  0  0
 13 14  1  0  0  0  0
 13 15  1  0  0  0  0
 14 28  1  0  0  0  0
 14 27  1  0  0  0  0
 15 30  1  0  0  0  0
 15 31  1  0  0  0  0
 16 13  1  0  0  0  0
 16 17  2  0  0  0  0
 17 32  1  0  0  0  0
 18 17  1  0  0  0  0
 18 33  1  0  0  0  0
 19 18  2  0  0  0  0
 20 21  2  0  0  0  0
 20 19  1  0  0  0  0
 21 16  1  0  0  0  0
 23  6  1  0  0  0  0
 24 11  1  0  0  0  0
 26 14  1  0  0  0  0
 29 15  1  0  0  0  0
 34 19  1  0  0  0  0
 35 20  1  0  0  0  0
 36 21  1  0  0  0  0
M  END
$$$$
