36

O          0.01420       -0.00240        0.00780
C          1.34780        0.07440       -0.03210
O          2.08020        0.17080        0.92640
C          1.85180        0.02780       -1.44500
C          0.99250       -0.16660       -2.53760
C          1.50690       -0.20440       -3.83200
C          2.88090       -0.04500       -4.01030
N          3.43050       -0.08220       -5.38380
O          4.63520        0.05860       -5.51090
O          2.64310       -0.25080       -6.30000
C          3.75570        0.14700       -2.94060
C          3.23090        0.18070       -1.65160
C         -0.75360        0.00790        1.25820
C         -0.39030       -1.23980        2.06310
C         -0.46530        1.29530        2.04240
C         -2.20770        0.02150        0.78540
C         -3.21740       -0.65220        1.48450
C         -4.55020       -0.57350        1.06870
C         -4.89440        0.17800       -0.05570
C         -3.89450        0.85470       -0.76030
C         -2.56560        0.77850       -0.34170
H         -0.07590       -0.29220       -2.36350
H          0.87000       -0.35490       -4.70250
H          4.82060        0.26470       -3.13590
H          3.87540        0.32560       -0.78350
H         -0.64450       -2.15100        1.50250
H         -0.93540       -1.25200        3.01690
H          0.68290       -1.23760        2.28860
H         -0.64470        2.17500        1.40710
H          0.56930        1.31540        2.40580
H         -1.15400        1.35190        2.89800
H         -2.97490       -1.24800        2.36490
H         -5.32140       -1.10840        1.62820
H         -5.93520        0.23620       -0.38260
H         -4.15060        1.44620       -1.64270
H         -1.79070        1.30740       -0.89800
