36
rmsd157.gzmat
O          0.00000        0.00000        0.00000
C          1.34480        0.00000        0.00000
O          2.03760        0.00000        0.98470
C          1.83610        0.00880       -1.40220
C          1.04740       -0.48750       -2.44040
C          1.54450       -0.48540       -3.74090
C          2.82640        0.01930       -3.97320
N          3.34880        0.02220       -5.33610
O          4.45610        0.49660       -5.52790
O          2.65150       -0.44980       -6.21870
C          3.62070        0.51970       -2.93830
C          3.11680        0.51050       -1.64110
C         -0.74910       -0.06140        1.23680
C         -0.46220       -1.41070        1.88650
C         -0.38190        1.12420        2.12130
C         -2.18210        0.06810        0.75880
C         -3.22790       -0.33030        1.59360
C         -4.54790       -0.19980        1.16940
C         -4.82970        0.32860       -0.08920
C         -3.78750        0.73520       -0.91900
C         -2.46570        0.61190       -0.49460
H          0.04530       -0.87570       -2.23510
H          0.94250       -0.87330       -4.56900
H          4.62240        0.90970       -3.14520
H          3.71960        0.88620       -0.80860
H         -0.73590       -2.23890        1.22090
H         -1.01370       -1.53690        2.82430
H          0.60610       -1.51900        2.12800
H         -0.42100        2.06650        1.56030
H          0.63460        1.02750        2.53090
H         -1.07110        1.21700        2.96860
H         -3.02000       -0.74090        2.57980
H         -5.36030       -0.51190        1.82280
H         -5.86110        0.42570       -0.42140
H         -4.00360        1.15390       -1.90030
H         -1.65910        0.94620       -1.14760
