rmsd14.gzmat
 OpenBabel08211713393D

 36 37  0  0  0  0  0  0  0  0999 V2000
    0.0000    0.0000    0.0000 O   0  0  0  0  0  0  0  0  0  0  0  0
    1.3450    0.0000    0.0000 C   0  0  0  0  0  0  0  0  0  0  0  0
    2.0348    0.0000    0.9877 O   0  0  0  0  0  0  0  0  0  0  0  0
    1.8465    0.0037   -1.3985 C   0  0  0  0  0  0  0  0  0  0  0  0
    1.0174   -0.3566   -2.4609 C   0  0  0  0  0  0  0  0  0  0  0  0
    1.5267   -0.3664   -3.7570 C   0  0  0  0  0  0  0  0  0  0  0  0
    2.8632   -0.0153   -3.9600 C   0  0  0  0  0  0  0  0  0  0  0  0
    3.4027   -0.0326   -5.3163 N   0  0  0  0  0  0  0  0  0  0  0  0
    4.5922    0.1923   -5.4645 O   0  0  0  0  0  0  0  0  0  0  0  0
    2.6381   -0.2732   -6.2361 O   0  0  0  0  0  0  0  0  0  0  0  0
    3.6993    0.3483   -2.9015 C   0  0  0  0  0  0  0  0  0  0  0  0
    3.1811    0.3567   -1.6100 C   0  0  0  0  0  0  0  0  0  0  0  0
   -0.7476   -0.0851    1.2384 C   0  0  0  0  0  0  0  0  0  0  0  0
   -0.4510   -1.4397    1.8704 C   0  0  0  0  0  0  0  0  0  0  0  0
   -0.3869    1.0851    2.1460 C   0  0  0  0  0  0  0  0  0  0  0  0
   -2.1738    0.0627    0.7453 C   0  0  0  0  0  0  0  0  0  0  0  0
   -3.2239   -0.5981    1.3828 C   0  0  0  0  0  0  0  0  0  0  0  0
   -4.5315   -0.4262    0.9332 C   0  0  0  0  0  0  0  0  0  0  0  0
   -4.7950    0.4032   -0.1550 C   0  0  0  0  0  0  0  0  0  0  0  0
   -3.7470    1.0641   -0.7923 C   0  0  0  0  0  0  0  0  0  0  0  0
   -2.4395    0.8983   -0.3412 C   0  0  0  0  0  0  0  0  0  0  0  0
   -0.0262   -0.6307   -2.2778 H   0  0  0  0  0  0  0  0  0  0  0  0
    0.8910   -0.6459   -4.6035 H   0  0  0  0  0  0  0  0  0  0  0  0
    4.7443    0.6181   -3.0861 H   0  0  0  0  0  0  0  0  0  0  0  0
    3.8140    0.6306   -0.7596 H   0  0  0  0  0  0  0  0  0  0  0  0
   -0.7473   -2.2634    1.2095 H   0  0  0  0  0  0  0  0  0  0  0  0
   -0.9708   -1.5635    2.8269 H   0  0  0  0  0  0  0  0  0  0  0  0
    0.6236   -1.5563    2.0789 H   0  0  0  0  0  0  0  0  0  0  0  0
   -0.4033    2.0354    1.5982 H   0  0  0  0  0  0  0  0  0  0  0  0
    0.6194    0.9731    2.5763 H   0  0  0  0  0  0  0  0  0  0  0  0
   -1.0943    1.1724    2.9788 H   0  0  0  0  0  0  0  0  0  0  0  0
   -3.0339   -1.2494    2.2338 H   0  0  0  0  0  0  0  0  0  0  0  0
   -5.3482   -0.9439    1.4331 H   0  0  0  0  0  0  0  0  0  0  0  0
   -5.8170    0.5357   -0.5044 H   0  0  0  0  0  0  0  0  0  0  0  0
   -3.9494    1.7145   -1.6412 H   0  0  0  0  0  0  0  0  0  0  0  0
   -1.6249    1.4246   -0.8388 H   0  0  0  0  0  0  0  0  0  0  0  0
  1  2  1  0  0  0  0
  1 13  1  0  0  0  0
  2  3  2  0  0  0  0
  4  2  1  0  0  0  0
  5 22  1  0  0  0  0
  5  4  2  0  0  0  0
  6  5  1  0  0  0  0
  7  6  2  0  0  0  0
  7 11  1  0  0  0  0
  8  7  1  0  0  0  0
  9  8  2  0  0  0  0
 10  8  2  0  0  0  0
 11 12  2  0  0  0  0
 12  4  1  0  0  0  0
 12 25  1  0  0  0  0
 13 14  1  0  0  0  0
 13 15  1  0  0  0  0
 14 28  1  0  0  0  0
 14 27  1  0  0  0  0
 15 30  1  0  0  0  0
 15 31  1  0  0  0  0
 16 13  1  0  0  0  0
 16 17  2  0  0  0  0
 17 32  1  0  0  0  0
 18 17  1  0  0  0  0
 18 33  1  0  0  0  0
 19 18  2  0  0  0  0
 20 21  2  0  0  0  0
 20 19  1  0  0  0  0
 21 16  1  0  0  0  0
 23  6  1  0  0  0  0
 24 11  1  0  0  0  0
 26 14  1  0  0  0  0
 29 15  1  0  0  0  0
 34 19  1  0  0  0  0
 35 20  1  0  0  0  0
 36 21  1  0  0  0  0
M  END
$$$$
