36
rmsd230.gzmat
O          0.00000        0.00000        0.00000
C          1.34500        0.00000        0.00000
O          2.03480        0.00000        0.98740
C          1.84020        0.01540       -1.40070
C          3.14310        0.46340       -1.62650
C          3.64490        0.49350       -2.92430
C          2.82600        0.06870       -3.97350
N          3.34460        0.10600       -5.33740
O          2.59980       -0.22690       -6.24450
O          4.49650        0.47090       -5.50520
C          1.52500       -0.39010       -3.75410
C          1.03120       -0.41570       -2.45250
C         -0.74600       -0.06500        1.23980
C         -0.46530       -1.42010        1.87810
C         -0.37110        1.10990        2.13610
C         -2.17360        0.09800        0.75720
C         -3.23030       -0.47040        1.46910
C         -4.54200       -0.28080        1.04020
C         -4.80390        0.47660       -0.09970
C         -3.74940        1.04640       -0.81040
C         -2.43670        0.86110       -0.38210
H          3.76430        0.78250       -0.78370
H          4.66390        0.84250       -3.12150
H          0.90470       -0.72280       -4.59290
H          0.01480       -0.77060       -2.25640
H         -0.75320       -2.24230        1.21110
H         -1.00390       -1.54460        2.82380
H          0.60500       -1.53960        2.10600
H         -0.36580        2.05280        1.57420
H          0.62890        0.98510        2.57720
H         -1.08530        1.22330        2.96090
H         -3.04130       -1.06090        2.36350
H         -5.36320       -0.72710        1.59780
H         -5.82950        0.62470       -0.43120
H         -3.95010        1.64120       -1.69970
H         -1.61710        1.31610       -0.93920
