
     RDKit          3D

 36 37  0  0  0  0  0  0  0  0999 V2000
    0.0072    0.0331    0.0038 O   0  0  0  0  0  0  0  0  0  0  0  0
    1.3403    0.1182   -0.0389 C   0  0  0  0  0  0  0  0  0  0  0  0
    2.0735    0.2264    0.9178 O   0  0  0  0  0  0  0  0  0  0  0  0
    1.8423    0.0643   -1.4521 C   0  0  0  0  0  0  0  0  0  0  0  0
    3.2201    0.2246   -1.6621 C   0  0  0  0  0  0  0  0  0  0  0  0
    3.7431    0.1847   -2.9516 C   0  0  0  0  0  0  0  0  0  0  0  0
    2.8679   -0.0210   -4.0185 C   0  0  0  0  0  0  0  0  0  0  0  0
    3.4156   -0.0648   -5.3926 N   0  0  0  0  0  0  0  0  0  0  0  0
    2.6279   -0.2454   -6.3062 O   0  0  0  0  0  0  0  0  0  0  0  0
    4.6192    0.0828   -5.5227 O   0  0  0  0  0  0  0  0  0  0  0  0
    1.4952   -0.1879   -3.8368 C   0  0  0  0  0  0  0  0  0  0  0  0
    0.9826   -0.1437   -2.5419 C   0  0  0  0  0  0  0  0  0  0  0  0
   -0.7587    0.0477    1.2552 C   0  0  0  0  0  0  0  0  0  0  0  0
   -0.3861   -1.1916    2.0688 C   0  0  0  0  0  0  0  0  0  0  0  0
   -0.4776    1.3428    2.0294 C   0  0  0  0  0  0  0  0  0  0  0  0
   -2.2136    0.0484    0.7846 C   0  0  0  0  0  0  0  0  0  0  0  0
   -3.2179   -0.6266    1.4902 C   0  0  0  0  0  0  0  0  0  0  0  0
   -4.5518   -0.5595    1.0760 C   0  0  0  0  0  0  0  0  0  0  0  0
   -4.9025    0.1815   -0.0534 C   0  0  0  0  0  0  0  0  0  0  0  0
   -3.9081    0.8593   -0.7646 C   0  0  0  0  0  0  0  0  0  0  0  0
   -2.5781    0.7948   -0.3475 C   0  0  0  0  0  0  0  0  0  0  0  0
    3.8650    0.3801   -0.7961 H   0  0  0  0  0  0  0  0  0  0  0  0
    4.8070    0.3078   -3.1496 H   0  0  0  0  0  0  0  0  0  0  0  0
    0.8580   -0.3489   -4.7052 H   0  0  0  0  0  0  0  0  0  0  0  0
   -0.0847   -0.2749   -2.3651 H   0  0  0  0  0  0  0  0  0  0  0  0
   -0.6353   -2.1085    1.5155 H   0  0  0  0  0  0  0  0  0  0  0  0
   -0.9296   -1.2001    3.0236 H   0  0  0  0  0  0  0  0  0  0  0  0
    0.6874   -1.1807    2.2926 H   0  0  0  0  0  0  0  0  0  0  0  0
   -0.6636    2.2165    1.3879 H   0  0  0  0  0  0  0  0  0  0  0  0
    0.5575    1.3723    2.3909 H   0  0  0  0  0  0  0  0  0  0  0  0
   -1.1652    1.4013    2.8857 H   0  0  0  0  0  0  0  0  0  0  0  0
   -2.9702   -1.2142    2.3746 H   0  0  0  0  0  0  0  0  0  0  0  0
   -5.3187   -1.0952    1.6406 H   0  0  0  0  0  0  0  0  0  0  0  0
   -5.9442    0.2306   -0.3790 H   0  0  0  0  0  0  0  0  0  0  0  0
   -4.1693    1.4427   -1.6509 H   0  0  0  0  0  0  0  0  0  0  0  0
   -1.8074    1.3245   -0.9089 H   0  0  0  0  0  0  0  0  0  0  0  0
  1  2  1  0
 13  1  1  0
  2  3  2  0
  2  4  1  0
  4  5  2  0
  4 12  1  0
  5  6  1  0
  5 22  1  0
  6  7  2  0
  6 23  1  0
  7  8  1  0
  7 11  1  0
  8  9  1  0
  8 10  2  0
 11 12  2  0
 11 24  1  0
 12 25  1  0
 13 14  1  0
 13 15  1  0
 13 16  1  0
 14 26  1  0
 14 27  1  0
 14 28  1  0
 15 29  1  0
 15 30  1  0
 15 31  1  0
 16 17  2  0
 16 21  1  0
 17 18  1  0
 17 32  1  0
 18 19  2  0
 18 33  1  0
 19 20  1  0
 19 34  1  0
 20 21  2  0
 20 35  1  0
 21 36  1  0
M  CHG  2   8   1   9  -1
M  END

