36
rmsd154.gzmat
O          0.00000        0.00000        0.00000
C          1.34500        0.00000        0.00000
O          2.03570        0.00000        0.98720
C          1.84340        0.01120       -1.39960
C          3.16200        0.41670       -1.61630
C          3.67280        0.43330       -2.91060
C          2.84650        0.03800       -3.96590
N          3.37840        0.05130       -5.32530
O          2.65860       -0.34250       -6.22800
O          4.51690        0.45570       -5.49330
C          1.52780       -0.37150       -3.75650
C          1.02500       -0.38360       -2.45790
C         -0.74790       -0.05270        1.24060
C         -0.44900       -1.38590        1.91420
C         -0.38900        1.14580        2.11170
C         -2.17210        0.08070        0.73840
C         -3.21960       -0.60910        1.34810
C         -4.52380       -0.44920        0.88380
C         -4.78670        0.39920       -0.18980
C         -3.74100        1.09070       -0.79890
C         -2.43700        0.93510       -0.33450
H          3.78840        0.71260       -0.76870
H          4.70430        0.74770       -3.10010
H          0.90070       -0.67820       -4.60010
H         -0.00540       -0.70090       -2.27040
H         -0.72400       -2.23050        1.27020
H         -0.98520       -1.48970        2.86400
H          0.62280       -1.48510        2.14610
H         -0.41200        2.07930        1.53570
H          0.61920        1.05070        2.54130
H         -1.09400        1.25510        2.94410
H         -3.03160       -1.27330        2.18950
H         -5.33830       -0.99050        1.36150
H         -5.80610        0.52310       -0.54970
H         -3.94270        1.75600       -1.63630
H         -1.62330        1.48260       -0.81070
