36
rmsd24.gzmat
O          0.00000        0.00000        0.00000
C          1.34460        0.00000        0.00000
O          2.03390        0.00000        0.98840
C          1.84740       -0.00340       -1.39810
C          3.20850       -0.24530       -1.59580
C          3.72970       -0.23870       -2.88620
C          2.86950        0.01020       -3.95840
N          3.41050        0.02040       -5.31420
O          2.64030        0.22250       -6.23850
O          4.60640       -0.17320       -5.45810
C          1.50700        0.25240       -3.76940
C          0.99500        0.24460       -2.47450
C         -0.75010        0.06940        1.23810
C         -0.39750       -1.11880        2.12470
C         -0.44780        1.41140        1.89330
C         -2.17510       -0.06040        0.73660
C         -2.43910       -0.87400       -0.36790
C         -3.74340       -1.01490       -0.83600
C         -4.79010       -0.35430       -0.19600
C         -4.52910        0.44750        0.91340
C         -3.22450        0.59700        1.37920
H          3.85930       -0.43370       -0.73570
H          4.79520       -0.42160       -3.05880
H          0.85360        0.44720       -4.62610
H         -0.06940        0.43430       -2.30360
H         -0.42470       -2.06000        1.56180
H         -1.10240       -1.21290        2.95920
H          0.61220       -1.02350        2.55140
H         -0.73840        2.24680        1.24390
H          0.62720        1.51850        2.10580
H         -0.96840        1.52310        2.85070
H         -1.62570       -1.40210       -0.86590
H         -3.94380       -1.64450       -1.70090
H         -5.80940       -0.46390       -0.56030
H         -5.34540        0.96130        1.41780
H         -3.03740        1.22720        2.24660
