52
rmsd153.gzmat
C          0.00000        0.00000        0.00000
C          1.51720        0.00000        0.00000
C          2.13510        0.00000        1.41770
C          1.71670       -1.20340        2.23760
C          2.54100       -1.60820        3.29390
C          2.22010       -2.71200        4.08040
C          1.04130       -3.42040        3.83550
C          0.20000       -3.01580        2.80770
C          0.53400       -1.91220        2.01650
S         -0.64760       -1.52520        0.76600
C          3.12400       -3.14040        5.16060
C          2.71460       -3.13640        6.43680
C          3.53910       -3.56160        7.56730
C          3.99020       -2.61480        8.49250
C          4.76750       -3.01680        9.57300
C          5.08880       -4.36780        9.73270
C          4.63330       -5.31760        8.81630
C          3.86020       -4.91340        7.73310
C          5.91040       -4.74720       10.89440
O          6.26410       -4.02500       11.79380
O          6.25880       -6.05860       10.83660
C          7.01790       -6.58340       11.92760
C          6.09820       -6.86230       13.10450
C          4.48330       -3.55670        4.71360
C          3.66600        0.00980        1.21700
C          1.72190        1.26570        2.18820
H         -0.39910        0.03930       -1.03240
H         -0.40460        0.88450        0.52620
H          1.88180        0.89300       -0.54980
H          1.91020       -0.86810       -0.57000
H          3.45060       -1.05070        3.51810
H          0.78530       -4.28290        4.44880
H         -0.72280       -3.57370        2.63310
H          1.71200       -2.79800        6.71010
H          3.73510       -1.56510        8.36160
H          5.12950       -2.28470       10.30050
H          4.88370       -6.37210        8.95010
H          3.50010       -5.64510        7.01230
H          7.83400       -5.88480       12.18640
H          7.43360       -7.50520       11.47930
H          5.72720       -5.92520       13.54560
H          6.61420       -7.41920       13.89370
H          5.22130       -7.44470       12.79620
H          4.42690       -4.33400        3.93660
H          5.09890       -3.95640        5.53210
H          5.03530       -2.70890        4.28050
H          4.02350       -0.96010        0.85300
H          4.20010        0.23610        2.14580
H          3.96750        0.77200        0.49020
H          0.64440        1.28550        2.38680
H          1.97710        2.17260        1.63120
H          2.22490        1.32080        3.16050
