52
rmsd69.gzmat
C          0.00000        0.00000        0.00000
C          1.51730        0.00000        0.00000
C          2.13530        0.00000        1.41720
C          1.67320       -1.16230        2.27260
C          2.45260       -1.51440        3.38130
C          2.09200       -2.57210        4.21190
C          0.92440       -3.29380        3.95540
C          0.12670       -2.93990        2.87530
C          0.49550       -1.87620        2.04450
S         -0.63950       -1.54100        0.73750
C          2.95160       -2.92030        5.35670
C          3.03720       -2.09700        6.41070
C          3.86060       -2.33690        7.59430
C          5.25660       -2.33550        7.50240
C          6.02730       -2.52960        8.64320
C          5.40280       -2.72880        9.87750
C          4.00980       -2.73740        9.97280
C          3.23990       -2.53810        8.83190
C          6.25830       -2.91330       11.06190
O          7.46440       -2.92920       11.08620
O          5.50780       -3.07430       12.18240
C          6.20320       -3.18930       13.42550
C          6.65660       -1.81430       13.88740
C          3.68130       -4.21130        5.22230
C          3.66480       -0.05980        1.21700
C          1.77240        1.29920        2.15760
H         -0.39980        0.05600       -1.03100
H         -0.40470        0.87430        0.54270
H          1.88230        0.89420       -0.54800
H          1.91000       -0.86690       -0.57230
H          3.36050       -0.95500        3.60960
H          0.63700       -4.11870        4.60510
H         -0.79160       -3.50210        2.68980
H          2.46090       -1.16800        6.44600
H          5.73570       -2.17630        6.53820
H          7.11930       -2.52570        8.58440
H          3.52680       -2.89670       10.93930
H          2.15350       -2.54040        8.89920
H          7.04480       -3.89710       13.31940
H          5.41930       -3.62380       14.07380
H          7.46270       -1.42930       13.24580
H          7.03380       -1.83980       14.91520
H          5.83520       -1.08840       13.84760
H          2.98750       -5.04820        5.05070
H          4.27540       -4.46100        6.11310
H          4.36950       -4.18780        4.36290
H          3.97660       -1.04540        0.85350
H          4.21040        0.13920        2.14570
H          3.99990        0.68780        0.49000
H          0.70100        1.34810        2.38150
H          2.03320        2.18240        1.56610
H          2.30080        1.37230        3.11540
