rmsd250.gzmat
 OpenBabel08211713383D

 52 54  0  0  0  0  0  0  0  0999 V2000
    0.0000    0.0000    0.0000 C   0  0  0  0  0  0  0  0  0  0  0  0
    1.5173    0.0000    0.0000 C   0  0  0  0  0  0  0  0  0  0  0  0
    2.1337    0.0000    1.4183 C   0  0  0  0  0  0  0  0  0  0  0  0
    1.6918   -1.1823    2.2563 C   0  0  0  0  0  0  0  0  0  0  0  0
    2.4854   -1.5510    3.3491 C   0  0  0  0  0  0  0  0  0  0  0  0
    2.1412   -2.6281    4.1620 C   0  0  0  0  0  0  0  0  0  0  0  0
    0.9773   -3.3538    3.8992 C   0  0  0  0  0  0  0  0  0  0  0  0
    0.1646   -2.9825    2.8363 C   0  0  0  0  0  0  0  0  0  0  0  0
    0.5158   -1.8984    2.0252 C   0  0  0  0  0  0  0  0  0  0  0  0
   -0.6398   -1.5398    0.7419 S   0  0  0  0  0  0  0  0  0  0  0  0
    3.0091   -2.9955    5.2931 C   0  0  0  0  0  0  0  0  0  0  0  0
    3.1771   -2.1524    6.3217 C   0  0  0  0  0  0  0  0  0  0  0  0
    4.0168   -2.4268    7.4870 C   0  0  0  0  0  0  0  0  0  0  0  0
    5.4093   -2.4693    7.3618 C   0  0  0  0  0  0  0  0  0  0  0  0
    6.2016   -2.7193    8.4776 C   0  0  0  0  0  0  0  0  0  0  0  0
    5.6001   -2.9280    9.7198 C   0  0  0  0  0  0  0  0  0  0  0  0
    4.2093   -2.8811    9.8507 C   0  0  0  0  0  0  0  0  0  0  0  0
    3.4189   -2.6281    8.7354 C   0  0  0  0  0  0  0  0  0  0  0  0
    6.3960   -3.2010   10.9282 C   0  0  0  0  0  0  0  0  0  0  0  0
    5.9848   -3.2809   12.0597 O   0  0  0  0  0  0  0  0  0  0  0  0
    7.7094   -3.3584   10.6206 O   0  0  0  0  0  0  0  0  0  0  0  0
    8.5986   -3.6722   11.6944 C   0  0  0  0  0  0  0  0  0  0  0  0
    8.4679   -5.1416   12.0600 C   0  0  0  0  0  0  0  0  0  0  0  0
    3.6441   -4.3389    5.1888 C   0  0  0  0  0  0  0  0  0  0  0  0
    3.6643   -0.0267    1.2187 C   0  0  0  0  0  0  0  0  0  0  0  0
    1.7460    1.2812    2.1774 C   0  0  0  0  0  0  0  0  0  0  0  0
   -0.4004    0.0551   -1.0309 H   0  0  0  0  0  0  0  0  0  0  0  0
   -0.4039    0.8752    0.5423 H   0  0  0  0  0  0  0  0  0  0  0  0
    1.8834    0.8919   -0.5509 H   0  0  0  0  0  0  0  0  0  0  0  0
    1.9101   -0.8687   -0.5698 H   0  0  0  0  0  0  0  0  0  0  0  0
    3.3923   -0.9904    3.5789 H   0  0  0  0  0  0  0  0  0  0  0  0
    0.7038   -4.1972    4.5303 H   0  0  0  0  0  0  0  0  0  0  0  0
   -0.7511   -3.5488    2.6507 H   0  0  0  0  0  0  0  0  0  0  0  0
    2.6649   -1.1869    6.3502 H   0  0  0  0  0  0  0  0  0  0  0  0
    5.8699   -2.3034    6.3899 H   0  0  0  0  0  0  0  0  0  0  0  0
    7.2888   -2.7519    8.3827 H   0  0  0  0  0  0  0  0  0  0  0  0
    3.7522   -3.0432   10.8310 H   0  0  0  0  0  0  0  0  0  0  0  0
    2.3354   -2.5912    8.8289 H   0  0  0  0  0  0  0  0  0  0  0  0
    8.3960   -3.0050   12.5519 H   0  0  0  0  0  0  0  0  0  0  0  0
    9.5785   -3.4272   11.2429 H   0  0  0  0  0  0  0  0  0  0  0  0
    7.4882   -5.3483   12.5163 H   0  0  0  0  0  0  0  0  0  0  0  0
    9.2369   -5.4468   12.7773 H   0  0  0  0  0  0  0  0  0  0  0  0
    8.5571   -5.7838   11.1753 H   0  0  0  0  0  0  0  0  0  0  0  0
    2.8925   -5.1392    5.2688 H   0  0  0  0  0  0  0  0  0  0  0  0
    4.3912   -4.5197    5.9751 H   0  0  0  0  0  0  0  0  0  0  0  0
    4.1483   -4.4693    4.2193 H   0  0  0  0  0  0  0  0  0  0  0  0
    3.9988   -1.0073    0.8623 H   0  0  0  0  0  0  0  0  0  0  0  0
    4.2037    0.1919    2.1467 H   0  0  0  0  0  0  0  0  0  0  0  0
    3.9839    0.7216    0.4856 H   0  0  0  0  0  0  0  0  0  0  0  0
    0.6765    1.3015    2.4152 H   0  0  0  0  0  0  0  0  0  0  0  0
    1.9779    2.1763    1.5918 H   0  0  0  0  0  0  0  0  0  0  0  0
    2.2845    1.3575    3.1296 H   0  0  0  0  0  0  0  0  0  0  0  0
  1  2  1  0  0  0  0
  1 28  1  0  0  0  0
  1 10  1  0  0  0  0
  2  3  1  0  0  0  0
  3 26  1  0  0  0  0
  3  4  1  0  0  0  0
  4  5  1  0  0  0  0
  5 31  1  0  0  0  0
  5  6  2  0  0  0  0
  6 11  1  0  0  0  0
  7  6  1  0  0  0  0
  7 32  1  0  0  0  0
  8  7  2  0  0  0  0
  9  4  2  0  0  0  0
  9  8  1  0  0  0  0
 10  9  1  0  0  0  0
 11 12  2  0  0  0  0
 12 34  1  0  0  0  0
 12 13  1  0  0  0  0
 13 18  1  0  0  0  0
 14 13  2  0  0  0  0
 14 15  1  0  0  0  0
 15 16  2  0  0  0  0
 16 17  1  0  0  0  0
 16 19  1  0  0  0  0
 17 37  1  0  0  0  0
 18 38  1  0  0  0  0
 18 17  2  0  0  0  0
 19 20  2  0  0  0  0
 21 19  1  0  0  0  0
 21 22  1  0  0  0  0
 22 23  1  0  0  0  0
 22 39  1  0  0  0  0
 23 41  1  0  0  0  0
 23 42  1  0  0  0  0
 24 44  1  0  0  0  0
 24 11  1  0  0  0  0
 24 45  1  0  0  0  0
 25  3  1  0  0  0  0
 25 48  1  0  0  0  0
 26 50  1  0  0  0  0
 26 52  1  0  0  0  0
 27  1  1  0  0  0  0
 29  2  1  0  0  0  0
 30  2  1  0  0  0  0
 33  8  1  0  0  0  0
 35 14  1  0  0  0  0
 36 15  1  0  0  0  0
 40 22  1  0  0  0  0
 43 23  1  0  0  0  0
 46 24  1  0  0  0  0
 47 25  1  0  0  0  0
 49 25  1  0  0  0  0
 51 26  1  0  0  0  0
M  END
$$$$
