52

C          0.27350       -0.00290       -0.23210
C          1.68120        0.28210        0.26350
C          1.83910        0.25560        1.80270
C          1.65280       -1.18170        2.29740
C          2.42890       -1.70250        3.33860
C          2.26850       -3.00170        3.85400
C          1.29330       -3.81560        3.25050
C          0.51410       -3.33370        2.20670
C          0.67180       -2.02280        1.72520
S         -0.43580       -1.56490        0.41870
C          3.10930       -3.47370        4.98380
C          3.45470       -2.59900        5.96440
C          4.33220       -2.79900        7.12260
C          5.47910       -3.62130        7.10340
C          6.28410       -3.76060        8.23060
C          5.97240       -3.07560        9.41460
C          4.84920       -2.23410        9.44210
C          4.05220       -2.09290        8.31340
C          6.79600       -3.19220       10.64830
O          6.55950       -2.61170       11.68480
O          7.84760       -4.02100       10.48740
C          8.70320       -4.22060       11.62350
C          8.14470       -5.27200       12.56670
C          3.51850       -4.92480        4.97990
C          3.23310        0.81090        2.13310
C          0.77420        1.14660        2.47770
H          0.26070       -0.09750       -1.32780
H         -0.40900        0.81580        0.03840
H          1.96990        1.27990       -0.10810
H          2.38890       -0.43970       -0.17610
H          3.21400       -1.08350        3.76880
H          1.12270       -4.83320        3.60470
H         -0.23730       -3.98160        1.74820
H          2.98350       -1.61180        5.93020
H          5.76340       -4.13070        6.18300
H          7.17030       -4.39480        8.19970
H          4.62350       -1.69760       10.36530
H          3.18170       -1.43270        8.34400
H          8.83650       -3.26020       12.14290
H          9.66580       -4.53610       11.19610
H          7.19750       -4.93010       13.00810
H          8.85800       -5.46030       13.38500
H          7.96880       -6.22050       12.03600
H          2.68450       -5.56840        4.66480
H          3.85010       -5.26530        5.96840
H          4.33580       -5.10450        4.25970
H          4.02950        0.17660        1.71390
H          3.39900        0.89760        3.21640
H          3.34100        1.82060        1.70750
H         -0.24080        0.74890        2.33310
H          0.80830        2.17340        2.07650
H          0.95590        1.19540        3.56190
