rmsd153.gzmat
 OpenBabel08211713383D

 52 54  0  0  0  0  0  0  0  0999 V2000
    0.0000    0.0000    0.0000 C   0  0  0  0  0  0  0  0  0  0  0  0
    1.5172    0.0000    0.0000 C   0  0  0  0  0  0  0  0  0  0  0  0
    2.1351    0.0000    1.4177 C   0  0  0  0  0  0  0  0  0  0  0  0
    1.7167   -1.2034    2.2376 C   0  0  0  0  0  0  0  0  0  0  0  0
    2.5410   -1.6082    3.2939 C   0  0  0  0  0  0  0  0  0  0  0  0
    2.2201   -2.7120    4.0804 C   0  0  0  0  0  0  0  0  0  0  0  0
    1.0413   -3.4204    3.8355 C   0  0  0  0  0  0  0  0  0  0  0  0
    0.2000   -3.0158    2.8077 C   0  0  0  0  0  0  0  0  0  0  0  0
    0.5340   -1.9122    2.0165 C   0  0  0  0  0  0  0  0  0  0  0  0
   -0.6476   -1.5252    0.7660 S   0  0  0  0  0  0  0  0  0  0  0  0
    3.1240   -3.1404    5.1606 C   0  0  0  0  0  0  0  0  0  0  0  0
    2.7146   -3.1364    6.4368 C   0  0  0  0  0  0  0  0  0  0  0  0
    3.5391   -3.5616    7.5673 C   0  0  0  0  0  0  0  0  0  0  0  0
    3.9902   -2.6148    8.4925 C   0  0  0  0  0  0  0  0  0  0  0  0
    4.7675   -3.0168    9.5730 C   0  0  0  0  0  0  0  0  0  0  0  0
    5.0888   -4.3678    9.7327 C   0  0  0  0  0  0  0  0  0  0  0  0
    4.6333   -5.3176    8.8163 C   0  0  0  0  0  0  0  0  0  0  0  0
    3.8602   -4.9134    7.7331 C   0  0  0  0  0  0  0  0  0  0  0  0
    5.9104   -4.7472   10.8944 C   0  0  0  0  0  0  0  0  0  0  0  0
    6.2641   -4.0250   11.7938 O   0  0  0  0  0  0  0  0  0  0  0  0
    6.2588   -6.0586   10.8366 O   0  0  0  0  0  0  0  0  0  0  0  0
    7.0179   -6.5834   11.9276 C   0  0  0  0  0  0  0  0  0  0  0  0
    6.0982   -6.8623   13.1045 C   0  0  0  0  0  0  0  0  0  0  0  0
    4.4833   -3.5567    4.7136 C   0  0  0  0  0  0  0  0  0  0  0  0
    3.6660    0.0098    1.2170 C   0  0  0  0  0  0  0  0  0  0  0  0
    1.7219    1.2657    2.1882 C   0  0  0  0  0  0  0  0  0  0  0  0
   -0.3991    0.0393   -1.0324 H   0  0  0  0  0  0  0  0  0  0  0  0
   -0.4046    0.8845    0.5262 H   0  0  0  0  0  0  0  0  0  0  0  0
    1.8818    0.8930   -0.5498 H   0  0  0  0  0  0  0  0  0  0  0  0
    1.9102   -0.8681   -0.5700 H   0  0  0  0  0  0  0  0  0  0  0  0
    3.4506   -1.0507    3.5181 H   0  0  0  0  0  0  0  0  0  0  0  0
    0.7853   -4.2829    4.4488 H   0  0  0  0  0  0  0  0  0  0  0  0
   -0.7228   -3.5737    2.6331 H   0  0  0  0  0  0  0  0  0  0  0  0
    1.7120   -2.7980    6.7101 H   0  0  0  0  0  0  0  0  0  0  0  0
    3.7351   -1.5651    8.3616 H   0  0  0  0  0  0  0  0  0  0  0  0
    5.1295   -2.2847   10.3005 H   0  0  0  0  0  0  0  0  0  0  0  0
    4.8837   -6.3721    8.9501 H   0  0  0  0  0  0  0  0  0  0  0  0
    3.5001   -5.6451    7.0123 H   0  0  0  0  0  0  0  0  0  0  0  0
    7.8340   -5.8848   12.1864 H   0  0  0  0  0  0  0  0  0  0  0  0
    7.4336   -7.5052   11.4793 H   0  0  0  0  0  0  0  0  0  0  0  0
    5.7272   -5.9252   13.5456 H   0  0  0  0  0  0  0  0  0  0  0  0
    6.6142   -7.4192   13.8937 H   0  0  0  0  0  0  0  0  0  0  0  0
    5.2213   -7.4447   12.7962 H   0  0  0  0  0  0  0  0  0  0  0  0
    4.4269   -4.3340    3.9366 H   0  0  0  0  0  0  0  0  0  0  0  0
    5.0989   -3.9564    5.5321 H   0  0  0  0  0  0  0  0  0  0  0  0
    5.0353   -2.7089    4.2805 H   0  0  0  0  0  0  0  0  0  0  0  0
    4.0235   -0.9601    0.8530 H   0  0  0  0  0  0  0  0  0  0  0  0
    4.2001    0.2361    2.1458 H   0  0  0  0  0  0  0  0  0  0  0  0
    3.9675    0.7720    0.4902 H   0  0  0  0  0  0  0  0  0  0  0  0
    0.6444    1.2855    2.3868 H   0  0  0  0  0  0  0  0  0  0  0  0
    1.9771    2.1726    1.6312 H   0  0  0  0  0  0  0  0  0  0  0  0
    2.2249    1.3208    3.1605 H   0  0  0  0  0  0  0  0  0  0  0  0
  1  2  1  0  0  0  0
  1 28  1  0  0  0  0
  1 10  1  0  0  0  0
  2  3  1  0  0  0  0
  3 26  1  0  0  0  0
  3  4  1  0  0  0  0
  4  5  1  0  0  0  0
  5 31  1  0  0  0  0
  5  6  2  0  0  0  0
  6 11  1  0  0  0  0
  7  6  1  0  0  0  0
  7 32  1  0  0  0  0
  8  7  2  0  0  0  0
  9  4  2  0  0  0  0
  9  8  1  0  0  0  0
 10  9  1  0  0  0  0
 11 12  2  0  0  0  0
 12 34  1  0  0  0  0
 12 13  1  0  0  0  0
 13 18  2  0  0  0  0
 13 14  1  0  0  0  0
 14 15  2  0  0  0  0
 15 16  1  0  0  0  0
 15 36  1  0  0  0  0
 16 19  1  0  0  0  0
 17 37  1  0  0  0  0
 17 16  2  0  0  0  0
 18 17  1  0  0  0  0
 19 20  2  0  0  0  0
 21 19  1  0  0  0  0
 21 22  1  0  0  0  0
 22 39  1  0  0  0  0
 22 23  1  0  0  0  0
 23 41  1  0  0  0  0
 23 42  1  0  0  0  0
 24 11  1  0  0  0  0
 24 45  1  0  0  0  0
 25  3  1  0  0  0  0
 25 48  1  0  0  0  0
 26 50  1  0  0  0  0
 26 52  1  0  0  0  0
 27  1  1  0  0  0  0
 29  2  1  0  0  0  0
 30  2  1  0  0  0  0
 33  8  1  0  0  0  0
 35 14  1  0  0  0  0
 38 18  1  0  0  0  0
 40 22  1  0  0  0  0
 43 23  1  0  0  0  0
 44 24  1  0  0  0  0
 46 24  1  0  0  0  0
 47 25  1  0  0  0  0
 49 25  1  0  0  0  0
 51 26  1  0  0  0  0
M  END
$$$$
