52

C         -0.06320       -0.16670       -0.16410
C          1.42040       -0.49250       -0.19760
C          2.18930       -0.12740        1.09500
C          1.72520       -1.05060        2.22550
C          2.62380       -1.54700        3.17820
C          2.23750       -2.34710        4.26690
C          0.87440       -2.68920        4.35860
C         -0.03870       -2.23200        3.41970
C          0.36440       -1.40390        2.35680
S         -0.94220       -0.87490        1.28210
C          3.21530       -2.82870        5.27580
C          2.81700       -2.98470        6.56530
C          3.56310       -3.52100        7.70940
C          3.31590       -2.98470        8.99210
C          3.98510       -3.45730       10.11400
C          4.91570       -4.50140        9.99550
C          5.14980       -5.06850        8.73370
C          4.48130       -4.58810        7.61110
C          5.60430       -4.97460       11.22670
O          5.41530       -4.51910       12.33300
O          6.47470       -5.97410       10.97660
C          7.18370       -6.52040       12.09960
C          6.35360       -7.55860       12.83460
C          4.62210       -3.09680        4.80450
C          3.68900       -0.27870        0.79610
C          1.90750        1.33360        1.50610
H         -0.56810       -0.57040       -1.05400
H         -0.22400        0.92110       -0.15640
H          1.86360        0.05850       -1.04440
H          1.56620       -1.56560       -0.40320
H          3.67130       -1.27100        3.08440
H          0.53420       -3.35370        5.15470
H         -1.08740       -2.53080        3.49300
H          1.81620       -2.62220        6.81940
H          2.59080       -2.17350        9.09540
H          3.80240       -3.03290       11.10270
H          5.85150       -5.89810        8.64440
H          4.64660       -5.07020        6.64750
H          7.47040       -5.69990       12.77390
H          8.09120       -6.96560       11.66710
H          5.46540       -7.09340       13.28560
H          6.95000       -8.01530       13.64040
H          6.02880       -8.35690       12.14940
H          4.66870       -4.01020        4.18640
H          5.32480       -3.20640        5.63870
H          4.98740       -2.27550        4.17010
H          3.94800       -1.32040        0.55090
H          4.31490        0.04090        1.64170
H          3.96220        0.35260       -0.06350
H          0.85820        1.47820        1.80150
H          2.13710        2.02680        0.67950
H          2.53190        1.60960        2.36920
