rmsd155.gzmat
 OpenBabel08211713383D

 52 54  0  0  0  0  0  0  0  0999 V2000
    0.0000    0.0000    0.0000 C   0  0  0  0  0  0  0  0  0  0  0  0
    1.5172    0.0000    0.0000 C   0  0  0  0  0  0  0  0  0  0  0  0
    2.1288    0.0000    1.4202 C   0  0  0  0  0  0  0  0  0  0  0  0
    1.6569   -1.1562    2.2790 C   0  0  0  0  0  0  0  0  0  0  0  0
    2.4192   -1.4926    3.4049 C   0  0  0  0  0  0  0  0  0  0  0  0
    2.0495   -2.5438    4.2391 C   0  0  0  0  0  0  0  0  0  0  0  0
    0.8942   -3.2794    3.9658 C   0  0  0  0  0  0  0  0  0  0  0  0
    0.1140   -2.9411    2.8684 C   0  0  0  0  0  0  0  0  0  0  0  0
    0.4878   -1.8797    2.0377 C   0  0  0  0  0  0  0  0  0  0  0  0
   -0.6323   -1.5547    0.7147 S   0  0  0  0  0  0  0  0  0  0  0  0
    2.8798   -2.8776    5.4098 C   0  0  0  0  0  0  0  0  0  0  0  0
    2.8782   -2.0810    6.4876 C   0  0  0  0  0  0  0  0  0  0  0  0
    3.6517   -2.3194    7.7044 C   0  0  0  0  0  0  0  0  0  0  0  0
    5.0500   -2.3397    7.6690 C   0  0  0  0  0  0  0  0  0  0  0  0
    5.7740   -2.5486    8.8385 C   0  0  0  0  0  0  0  0  0  0  0  0
    5.0983   -2.7336   10.0459 C   0  0  0  0  0  0  0  0  0  0  0  0
    3.7009   -2.7117   10.0872 C   0  0  0  0  0  0  0  0  0  0  0  0
    2.9791   -2.5041    8.9178 C   0  0  0  0  0  0  0  0  0  0  0  0
    5.8188   -2.9527   11.3113 C   0  0  0  0  0  0  0  0  0  0  0  0
    5.3322   -3.0369   12.4123 O   0  0  0  0  0  0  0  0  0  0  0  0
    7.1570   -3.0497   11.1010 O   0  0  0  0  0  0  0  0  0  0  0  0
    7.9803   -3.3044   12.2413 C   0  0  0  0  0  0  0  0  0  0  0  0
    7.8838   -4.7698   12.6317 C   0  0  0  0  0  0  0  0  0  0  0  0
    3.6699   -4.1321    5.2725 C   0  0  0  0  0  0  0  0  0  0  0  0
    3.6586   -0.0717    1.2274 C   0  0  0  0  0  0  0  0  0  0  0  0
    1.7702    1.3058    2.1516 C   0  0  0  0  0  0  0  0  0  0  0  0
   -0.4022    0.0737   -1.0285 H   0  0  0  0  0  0  0  0  0  0  0  0
   -0.4036    0.8651    0.5586 H   0  0  0  0  0  0  0  0  0  0  0  0
    1.8837    0.8934   -0.5484 H   0  0  0  0  0  0  0  0  0  0  0  0
    1.9110   -0.8663   -0.5723 H   0  0  0  0  0  0  0  0  0  0  0  0
    3.3183   -0.9240    3.6437 H   0  0  0  0  0  0  0  0  0  0  0  0
    0.6028   -4.1022    4.6164 H   0  0  0  0  0  0  0  0  0  0  0  0
   -0.7951   -3.5137    2.6705 H   0  0  0  0  0  0  0  0  0  0  0  0
    2.2579   -1.1805    6.5179 H   0  0  0  0  0  0  0  0  0  0  0  0
    5.5678   -2.1867    6.7241 H   0  0  0  0  0  0  0  0  0  0  0  0
    6.8655   -2.5669    8.8122 H   0  0  0  0  0  0  0  0  0  0  0  0
    3.1862   -2.8558   11.0418 H   0  0  0  0  0  0  0  0  0  0  0  0
    1.8909   -2.4880    8.9410 H   0  0  0  0  0  0  0  0  0  0  0  0
    7.6930   -2.6270   13.0661 H   0  0  0  0  0  0  0  0  0  0  0  0
    8.9791   -3.0285   11.8535 H   0  0  0  0  0  0  0  0  0  0  0  0
    6.8838   -5.0098   13.0223 H   0  0  0  0  0  0  0  0  0  0  0  0
    8.6102   -5.0263   13.4099 H   0  0  0  0  0  0  0  0  0  0  0  0
    8.0626   -5.4249   11.7706 H   0  0  0  0  0  0  0  0  0  0  0  0
    3.0194   -4.9918    5.0496 H   0  0  0  0  0  0  0  0  0  0  0  0
    4.2366   -4.3841    6.1805 H   0  0  0  0  0  0  0  0  0  0  0  0
    4.3896   -4.0560    4.4427 H   0  0  0  0  0  0  0  0  0  0  0  0
    3.9659   -1.0591    0.8647 H   0  0  0  0  0  0  0  0  0  0  0  0
    4.2005    0.1220    2.1590 H   0  0  0  0  0  0  0  0  0  0  0  0
    4.0023    0.6740    0.5025 H   0  0  0  0  0  0  0  0  0  0  0  0
    0.6971    1.3655    2.3653 H   0  0  0  0  0  0  0  0  0  0  0  0
    2.0423    2.1840    1.5575 H   0  0  0  0  0  0  0  0  0  0  0  0
    2.2923    1.3802    3.1126 H   0  0  0  0  0  0  0  0  0  0  0  0
  1  2  1  0  0  0  0
  1 28  1  0  0  0  0
  1 10  1  0  0  0  0
  2  3  1  0  0  0  0
  3 26  1  0  0  0  0
  3  4  1  0  0  0  0
  4  5  1  0  0  0  0
  5 31  1  0  0  0  0
  5  6  2  0  0  0  0
  6 11  1  0  0  0  0
  7  6  1  0  0  0  0
  7 32  1  0  0  0  0
  8  7  2  0  0  0  0
  9  4  2  0  0  0  0
  9  8  1  0  0  0  0
 10  9  1  0  0  0  0
 11 12  2  0  0  0  0
 12 34  1  0  0  0  0
 12 13  1  0  0  0  0
 13 18  1  0  0  0  0
 14 13  2  0  0  0  0
 14 15  1  0  0  0  0
 15 16  2  0  0  0  0
 16 17  1  0  0  0  0
 16 19  1  0  0  0  0
 17 37  1  0  0  0  0
 18 38  1  0  0  0  0
 18 17  2  0  0  0  0
 19 20  2  0  0  0  0
 21 19  1  0  0  0  0
 21 22  1  0  0  0  0
 22 23  1  0  0  0  0
 22 39  1  0  0  0  0
 23 41  1  0  0  0  0
 23 42  1  0  0  0  0
 24 11  1  0  0  0  0
 24 45  1  0  0  0  0
 25  3  1  0  0  0  0
 25 48  1  0  0  0  0
 26 50  1  0  0  0  0
 26 52  1  0  0  0  0
 27  1  1  0  0  0  0
 29  2  1  0  0  0  0
 30  2  1  0  0  0  0
 33  8  1  0  0  0  0
 35 14  1  0  0  0  0
 36 15  1  0  0  0  0
 40 22  1  0  0  0  0
 43 23  1  0  0  0  0
 44 24  1  0  0  0  0
 46 24  1  0  0  0  0
 47 25  1  0  0  0  0
 49 25  1  0  0  0  0
 51 26  1  0  0  0  0
M  END
$$$$
