52
rmsd77.gzmat
C          0.00000        0.00000        0.00000
C          1.51720        0.00000        0.00000
C          2.13850        0.00000        1.41610
C          1.71230       -1.19220        2.24790
C          2.52470       -1.58030        3.31980
C          2.19000       -2.66700        4.12430
C          1.01940       -3.38550        3.87290
C          0.18810       -2.99520        2.83140
C          0.52850       -1.89970        2.03030
S         -0.65080       -1.51780        0.77680
C          3.07620       -3.04560        5.23820
C          3.22100       -2.22830        6.29090
C          4.08050       -2.50090        7.44110
C          5.47030       -2.55380        7.28880
C          6.27990       -2.80180        8.39120
C          5.70090       -2.99580        9.64850
C          4.31490       -2.93640        9.80660
C          3.50570       -2.68680        8.70320
C          6.60050       -3.25430       10.78510
O          7.80490       -3.32050       10.74910
O          5.89920       -3.42780       11.93520
C          6.65180       -3.63980       13.13180
C          7.19950       -2.31530       13.63630
C          3.76130       -4.35820        5.08050
C          3.66860       -0.00620        1.21140
C          1.73760        1.27310        2.18150
H         -0.39790        0.03030       -1.03340
H         -0.40420        0.88890        0.51920
H          1.88080        0.89440       -0.54890
H          1.90930       -0.86740       -0.57130
H          3.43860       -1.02780        3.54080
H          0.75450       -4.23710        4.49680
H         -0.73340       -3.55460        2.65400
H          2.67290       -1.28420        6.35000
H          5.91270       -2.39770        6.30690
H          7.36740       -2.84660        8.28410
H          3.86800       -3.08440       10.79220
H          2.42410       -2.63910        8.81710
H          7.44860       -4.38190       12.94410
H          5.88150       -4.06850       13.80030
H          7.96540       -1.91940       12.95280
H          7.66160       -2.42270       14.62340
H          6.40960       -1.55790       13.71270
H          3.03690       -5.17420        4.93750
H          4.38050       -4.62600        5.94870
H          4.41860       -4.35690        4.19730
H          4.01310       -0.97630        0.83600
H          4.20860        0.20140        2.14160
H          3.97770        0.75940        0.49170
H          0.66690        1.28500        2.41460
H          1.96640        2.17420        1.60370
H          2.27080        1.34540        3.13660
