52
rmsd235.gzmat
C          0.00000        0.00000        0.00000
C          1.51690        0.00000        0.00000
C          2.13740        0.00000        1.41620
C          1.68670       -1.17110        2.26530
C          2.47340       -1.52670        3.36780
C          2.11840       -2.58940        4.19320
C          0.95790       -3.32060        3.93290
C          0.15300       -2.96200        2.85970
C          0.51000       -1.88700        2.03890
S         -0.64080       -1.53650        0.74920
C          2.96730       -2.93190        5.34800
C          2.83620       -2.26110        6.49990
C          3.62490       -2.51520        7.70390
C          4.99230       -2.22140        7.72940
C          5.72570       -2.43700        8.89070
C          5.09220       -2.94950       10.02660
C          3.72840       -3.24810       10.00400
C          2.99480       -3.02770        8.84320
C          5.90700       -3.14800       11.23680
O          7.08180       -2.90360       11.36330
O          5.16100       -3.66640       12.24610
C          5.80470       -3.84900       13.50860
C          5.91380       -2.51420       14.22660
C          3.92990       -4.04230        5.11110
C          3.66630       -0.04820        1.20780
C          1.76880        1.28920        2.17100
H         -0.39960        0.04920       -1.03180
H         -0.40430        0.87830        0.53630
H          1.88270        0.89210       -0.55100
H          1.90820       -0.86900       -0.57040
H          3.37780       -0.96300        3.59790
H          0.68330       -4.15600        4.57430
H         -0.76240       -3.52870        2.67400
H          2.09710       -1.46230        6.60750
H          5.47510       -1.81860        6.84130
H          6.79390       -2.20660        8.92540
H          3.24000       -3.65040       10.89400
H          1.93100       -3.25520        8.81670
H          6.78790       -4.33090       13.36020
H          5.10810       -4.54930       14.00660
H          6.63320       -1.85250       13.72180
H          6.25030       -2.64140       15.26090
H          4.94970       -1.99140       14.24580
H          3.41980       -4.93780        4.72510
H          4.46810       -4.34310        6.02120
H          4.68460       -3.75810        4.36200
H          3.98230       -1.02970        0.83670
H          4.21540        0.14950        2.13410
H          3.99230        0.70560        0.48300
H          0.69700        1.33240        2.39500
H          2.02790        2.18100        1.59250
H          2.29640        1.35150        3.13040
