52
rmsd116.gzmat
C          0.00000        0.00000        0.00000
C          1.51730        0.00000        0.00000
C          2.13340        0.00000        1.41840
C          1.71490       -1.20250        2.23910
C          2.53370       -1.60000        3.30300
C          2.20380       -2.69510        4.09660
C          1.03070       -3.41040        3.84730
C          0.19390       -3.01090        2.81380
C          0.53160       -1.91020        2.01900
S         -0.64960       -1.52320        0.76810
C          3.09370       -3.09530        5.20100
C          3.10330       -2.40190        6.34790
C          3.93710       -2.72100        7.50570
C          5.33170       -2.65060        7.42080
C          6.11340       -2.94230        8.53410
C          5.50080       -3.31040        9.73320
C          4.10740       -3.37790        9.82470
C          3.32720       -3.07990        8.71330
C          6.28910       -3.64750       10.93060
O          5.86050       -4.01120       11.99840
O          7.61840       -3.49360       10.69720
C          8.51460       -3.86160       11.74780
C          8.67340       -5.37300       11.77580
C          3.93590       -4.29120        4.92190
C          3.66420        0.01350        1.22010
C          1.71310        1.26330        2.18950
H         -0.39930        0.03820       -1.03210
H         -0.40310        0.88610        0.52530
H          1.88100        0.89410       -0.54920
H          1.91160       -0.86730       -0.57020
H          3.44540       -1.04560        3.52720
H          0.77010       -4.26730        4.46610
H         -0.72950       -3.56790        2.63720
H          2.44950       -1.53610        6.48610
H          5.80160       -2.36370        6.48220
H          7.20210       -2.88440        8.47130
H          3.64050       -3.66560       10.77110
H          2.24180       -3.13120        8.77750
H          8.15120       -3.45730       12.71010
H          9.43860       -3.33740       11.43910
H          7.74390       -5.86080       12.10540
H          9.47040       -5.68040       12.46120
H          8.91150       -5.76830       10.78050
H          3.34560       -5.10790        4.47950
H          4.41980       -4.69210        5.82420
H          4.73310       -4.04920        4.20170
H          4.02220       -0.95030        0.84070
H          4.19820        0.22350        2.15320
H          3.96630        0.78690        0.50550
H          0.63760        1.26840        2.40110
H          1.94820        2.17110        1.62490
H          2.22780        1.32780        3.15530
