52
rmsd154.gzmat
C          0.00000        0.00000        0.00000
C          1.51710        0.00000        0.00000
C          2.13440        0.00000        1.41770
C          1.70970       -1.19710        2.24320
C          2.52030       -1.58580        3.31580
C          2.18570       -2.67320        4.11940
C          1.01220       -3.38820        3.86680
C          0.18560       -3.00080        2.82060
C          0.52800       -1.90680        2.01970
S         -0.64640       -1.52780        0.76020
C          3.06500       -3.06790        5.23180
C          2.60850       -3.06760        6.49230
C          3.40590       -3.45040        7.65680
C          3.81240       -2.47210        8.57000
C          4.56330       -2.83270        9.68330
C          4.90120       -4.17330        9.88850
C          4.48940       -5.15440        8.98460
C          3.74370       -4.79190        7.86780
C          5.68910       -4.51110       11.08580
O          5.94620       -3.78050       12.01060
O          6.13430       -5.79280       11.02850
C          6.86960       -6.28040       12.15280
C          5.90610       -6.68560       13.25580
C          4.45470       -3.43900        4.84240
C          3.66450        0.00490        1.21410
C          1.72420        1.26510        2.19110
H         -0.39990        0.04110       -1.03170
H         -0.40260        0.88390        0.52880
H          1.88140        0.89280       -0.55080
H          1.91060       -0.86890       -0.56880
H          3.42830       -1.02680        3.54230
H          0.74770       -4.24160        4.48910
H         -0.73440       -3.56150        2.63950
H          1.58470       -2.76330        6.72500
H          3.54360       -1.43040        8.40480
H          4.88990       -2.07570       10.40140
H          4.75080       -6.20100        9.15580
H          3.41820       -5.54910        7.15690
H          7.59650       -5.51800       12.48630
H          7.40080       -7.14310       11.70950
H          5.38520       -5.80830       13.66630
H          6.42900       -7.17620       14.08410
H          5.13920       -7.37570       12.88280
H          4.46020       -4.15510        4.00710
H          5.02150       -3.89450        5.66750
H          5.02240       -2.55590        4.51230
H          4.01300       -0.95320        0.81250
H          4.20410        0.19020        2.14880
H          3.96930        0.79180        0.51520
H          0.65650        1.25900        2.43850
H          1.93200        2.17120        1.61380
H          2.26730        1.34240        3.14040
