rmsd4.gzmat
 OpenBabel08211713393D

 39 41  0  0  1  0  0  0  0  0999 V2000
    0.0000    0.0000    0.0000 N   0  0  0  0  0  0  0  0  0  0  0  0
    1.3751    0.0000    0.0000 C   0  0  0  0  0  0  0  0  0  0  0  0
    1.8657    0.0000    1.3235 C   0  0  1  0  0  0  0  0  0  0  0  0
    0.7378   -0.0101    2.1454 N   0  0  0  0  0  0  0  0  0  0  0  0
    0.6196   -0.0421    3.5173 C   0  0  0  0  0  0  0  0  0  0  0  0
   -0.6370   -0.0612    4.0686 C   0  0  0  0  0  0  0  0  0  0  0  0
   -1.7980   -0.0518    3.2502 C   0  0  0  0  0  0  0  0  0  0  0  0
   -1.6997   -0.0232    1.8821 C   0  0  0  0  0  0  0  0  0  0  0  0
   -0.4031   -0.0088    1.2975 C   0  0  0  0  0  0  0  0  0  0  0  0
   -2.8942   -0.0107    0.9846 C   0  0  0  0  0  0  0  0  0  0  0  0
   -3.7193   -1.2404    1.1813 C   0  0  0  0  0  0  0  0  0  0  0  0
   -5.0571   -1.2210    1.1911 C   0  0  0  0  0  0  0  0  0  0  0  0
   -5.8632   -2.4284    1.3620 C   0  0  0  0  0  0  0  0  0  0  0  0
   -7.0068   -2.3842    2.1675 C   0  0  0  0  0  0  0  0  0  0  0  0
   -7.7857   -3.5251    2.3372 C   0  0  0  0  0  0  0  0  0  0  0  0
   -7.4339   -4.7144    1.7002 C   0  0  0  0  0  0  0  0  0  0  0  0
   -6.2971   -4.7614    0.8957 C   0  0  0  0  0  0  0  0  0  0  0  0
   -5.5124   -3.6233    0.7266 C   0  0  0  0  0  0  0  0  0  0  0  0
    3.2572    0.0043    1.8149 C   0  0  0  0  0  0  0  0  0  0  0  0
    3.6444   -1.3092    2.2879 C   0  0  0  0  0  0  0  0  0  0  0  0
    3.9451   -2.3605    2.6625 N   0  0  0  0  0  0  0  0  0  0  0  0
    2.1505   -0.0009   -1.2535 C   0  0  0  0  0  0  0  0  0  0  0  0
    1.5388   -0.0595    4.1051 H   0  0  0  0  0  0  0  0  0  0  0  0
   -0.7587   -0.0875    5.1517 H   0  0  0  0  0  0  0  0  0  0  0  0
   -2.7774   -0.0769    3.7311 H   0  0  0  0  0  0  0  0  0  0  0  0
   -2.5798    0.0434   -0.0913 H   0  0  0  0  0  0  0  0  0  0  0  0
   -3.4811    0.9196    1.1499 H   0  0  0  0  0  0  0  0  0  0  0  0
   -3.1498   -2.1628    1.3042 H   0  0  0  0  0  0  0  0  0  0  0  0
   -5.6234   -0.2955    1.0794 H   0  0  0  0  0  0  0  0  0  0  0  0
   -7.2828   -1.4586    2.6668 H   0  0  0  0  0  0  0  0  0  0  0  0
   -8.6717   -3.4879    2.9683 H   0  0  0  0  0  0  0  0  0  0  0  0
   -8.0461   -5.6034    1.8316 H   0  0  0  0  0  0  0  0  0  0  0  0
   -6.0212   -5.6893    0.3980 H   0  0  0  0  0  0  0  0  0  0  0  0
   -4.6272   -3.6610    0.0931 H   0  0  0  0  0  0  0  0  0  0  0  0
    3.4001    0.7714    2.6196 H   0  0  0  0  0  0  0  0  0  0  0  0
    3.9466    0.3357    0.9908 H   0  0  0  0  0  0  0  0  0  0  0  0
    1.4870   -0.0626   -2.1365 H   0  0  0  0  0  0  0  0  0  0  0  0
    2.8355   -0.8613   -1.3075 H   0  0  0  0  0  0  0  0  0  0  0  0
    2.7455    0.9181   -1.3643 H   0  0  0  0  0  0  0  0  0  0  0  0
  1  2  2  0  0  0  0
  1  9  2  0  0  0  0
  2  3  1  0  0  0  0
  3 19  1  6  0  0  0
  3  4  1  0  0  0  0
  4  5  1  0  0  0  0
  5  6  2  0  0  0  0
  5 23  1  0  0  0  0
  6 24  1  0  0  0  0
  7 25  1  0  0  0  0
  7  6  1  0  0  0  0
  8  7  2  0  0  0  0
  9  8  1  0  0  0  0
  9  4  1  0  0  0  0
 10 27  1  0  0  0  0
 10 11  1  0  0  0  0
 10  8  1  0  0  0  0
 11 12  2  0  0  0  0
 11 28  1  0  0  0  0
 12 13  1  0  0  0  0
 13 14  2  0  0  0  0
 14 15  1  0  0  0  0
 14 30  1  0  0  0  0
 15 31  1  0  0  0  0
 16 32  1  0  0  0  0
 16 15  2  0  0  0  0
 17 16  1  0  0  0  0
 18 17  2  0  0  0  0
 18 13  1  0  0  0  0
 19 20  1  0  0  0  0
 19 35  1  0  0  0  0
 20 21  3  0  0  0  0
 22  2  1  0  0  0  0
 26 10  1  0  0  0  0
 29 12  1  0  0  0  0
 33 17  1  0  0  0  0
 34 18  1  0  0  0  0
 36 19  1  0  0  0  0
 37 22  1  0  0  0  0
 38 22  1  0  0  0  0
 39 22  1  0  0  0  0
M  RAD  1   3   2
M  END
$$$$
