39

N          0.09980       -0.32420        0.04910
C          1.45440       -0.17990        0.07230
C          1.89640        0.15210        1.35120
N          0.75440        0.21720        2.13360
C          0.58300        0.50850        3.46420
C         -0.68300        0.48940        3.98480
C         -1.80090        0.17940        3.16070
C         -1.64210       -0.10180        1.81860
C         -0.32430       -0.08520        1.28560
C         -2.78910       -0.40090        0.87770
C         -3.97780       -1.01990        1.54810
C         -5.19010       -0.44740        1.62630
C         -6.39670       -0.99160        2.26690
C         -6.43630       -2.25620        2.88750
C         -7.60410       -2.72360        3.48590
C         -8.76570       -1.94200        3.48050
C         -8.74490       -0.68700        2.86830
C         -7.57360       -0.22010        2.26930
C          3.26490        0.38730        1.90600
C          3.46700        1.74720        2.43100
N          3.59040        2.81220        2.86900
C          2.27400       -0.37250       -1.16280
H          1.47300        0.76200        4.03910
H         -0.82310        0.72360        5.04070
H         -2.80350        0.17150        3.59250
H         -2.40100       -1.06080        0.08360
H         -3.08390        0.53340        0.36810
H         -3.80540       -1.99950        2.00830
H         -5.31880        0.54010        1.16680
H         -5.54280       -2.88340        2.90020
H         -7.61120       -3.70790        3.96060
H         -9.68010       -2.31190        3.95010
H         -9.64500       -0.06750        2.85620
H         -7.56370        0.76330        1.79160
H          4.00670        0.20720        1.11400
H          3.50160       -0.32390        2.71970
H          1.98330        0.35940       -1.93320
H          2.09840       -1.37370       -1.58680
H          3.35070       -0.26000       -0.97220
