39
rmsd106.gzmat
N          0.00000        0.00000        0.00000
C          1.37520        0.00000        0.00000
C          1.86600        0.00000        1.32330
N          0.73800       -0.00420        2.14490
C          0.62140       -0.01550        3.51720
C         -0.63480       -0.01670        4.06970
C         -1.79650       -0.01680        3.25240
C         -1.69980       -0.01240        1.88370
C         -0.40310       -0.00520        1.29750
C         -2.89380       -0.03180        0.98510
C         -3.86850        1.03110        1.37640
C         -5.14530        0.76920        1.67840
C         -6.10270        1.81030        2.04870
C         -7.41140        1.74870        1.55700
C         -8.33150        2.73750        1.89340
C         -7.95620        3.78790        2.73020
C         -6.65680        3.84710        3.23050
C         -5.73140        2.86300        2.89180
C          3.25770       -0.00060        1.81500
C          3.61690       -1.29430        2.35980
N          3.89350       -2.32840        2.79560
C          2.15280       -0.00110       -1.25210
H          1.54130       -0.03060        4.10390
H         -0.75500       -0.02180        5.15340
H         -2.77580       -0.02150        3.73490
H         -3.34970       -1.04770        0.99740
H         -2.58850        0.12170       -0.08240
H         -3.46260        2.04310        1.38570
H         -5.54830       -0.24440        1.65200
H         -7.70730        0.92930        0.90550
H         -9.34600        2.69050        1.50260
H         -8.67710        4.55880        2.99240
H         -6.36410        4.66460        3.88630
H         -4.71830        2.90910        3.28680
H          3.41600        0.80530        2.57850
H          3.95380        0.27040        0.97490
H          1.48940        0.01310       -2.13660
H          2.78060       -0.90220       -1.33690
H          2.80820        0.87930       -1.32760
