
     RDKit          3D

 39 41  0  0  0  0  0  0  0  0999 V2000
   -0.0120   -0.0955    0.0438 N   0  0  0  0  0  0  0  0  0  0  0  0
    1.3473   -0.1610   -0.0239 C   0  0  0  0  0  0  0  0  0  0  0  0
    1.9144   -0.0247    1.2414 C   0  0  0  0  0  0  0  0  0  0  0  0
    0.8476    0.1388    2.1108 N   0  0  0  0  0  0  0  0  0  0  0  0
    0.8073    0.3302    3.4696 C   0  0  0  0  0  0  0  0  0  0  0  0
   -0.4106    0.4650    4.0800 C   0  0  0  0  0  0  0  0  0  0  0  0
   -1.6122    0.4103    3.3195 C   0  0  0  0  0  0  0  0  0  0  0  0
   -1.5839    0.2224    1.9524 C   0  0  0  0  0  0  0  0  0  0  0  0
   -0.3157    0.0861    1.3247 C   0  0  0  0  0  0  0  0  0  0  0  0
   -2.8220    0.1302    1.0870 C   0  0  0  0  0  0  0  0  0  0  0  0
   -4.0019    0.8740    1.6346 C   0  0  0  0  0  0  0  0  0  0  0  0
   -5.1540    0.2981    2.0147 C   0  0  0  0  0  0  0  0  0  0  0  0
   -6.3480    0.9606    2.5603 C   0  0  0  0  0  0  0  0  0  0  0  0
   -6.4363    2.3538    2.7527 C   0  0  0  0  0  0  0  0  0  0  0  0
   -7.5894    2.9320    3.2785 C   0  0  0  0  0  0  0  0  0  0  0  0
   -8.6871    2.1356    3.6261 C   0  0  0  0  0  0  0  0  0  0  0  0
   -8.6173    0.7532    3.4409 C   0  0  0  0  0  0  0  0  0  0  0  0
   -7.4609    0.1754    2.9142 C   0  0  0  0  0  0  0  0  0  0  0  0
    3.3347   -0.0504    1.7082 C   0  0  0  0  0  0  0  0  0  0  0  0
    3.7794    1.2092    2.3257 C   0  0  0  0  0  0  0  0  0  0  0  0
    4.0952    2.1987    2.8382 N   0  0  0  0  0  0  0  0  0  0  0  0
    2.0482   -0.3542   -1.3298 C   0  0  0  0  0  0  0  0  0  0  0  0
    1.7601    0.3868    3.9950 H   0  0  0  0  0  0  0  0  0  0  0  0
   -0.4460    0.6221    5.1586 H   0  0  0  0  0  0  0  0  0  0  0  0
   -2.5745    0.5203    3.8233 H   0  0  0  0  0  0  0  0  0  0  0  0
   -3.0773   -0.9346    0.9427 H   0  0  0  0  0  0  0  0  0  0  0  0
   -2.5532    0.5074    0.0859 H   0  0  0  0  0  0  0  0  0  0  0  0
   -3.8749    1.9583    1.7308 H   0  0  0  0  0  0  0  0  0  0  0  0
   -5.2375   -0.7909    1.9150 H   0  0  0  0  0  0  0  0  0  0  0  0
   -5.5928    2.9938    2.4865 H   0  0  0  0  0  0  0  0  0  0  0  0
   -7.6350    4.0149    3.4184 H   0  0  0  0  0  0  0  0  0  0  0  0
   -9.5901    2.5924    4.0376 H   0  0  0  0  0  0  0  0  0  0  0  0
   -9.4675    0.1204    3.7074 H   0  0  0  0  0  0  0  0  0  0  0  0
   -7.4124   -0.9075    2.7715 H   0  0  0  0  0  0  0  0  0  0  0  0
    3.9883   -0.2663    0.8502 H   0  0  0  0  0  0  0  0  0  0  0  0
    3.5074   -0.8613    2.4407 H   0  0  0  0  0  0  0  0  0  0  0  0
    1.8110    0.4736   -2.0169 H   0  0  0  0  0  0  0  0  0  0  0  0
    1.7077   -1.2828   -1.8145 H   0  0  0  0  0  0  0  0  0  0  0  0
    3.1404   -0.4029   -1.2153 H   0  0  0  0  0  0  0  0  0  0  0  0
  1  2  1  0
  1  9  2  0
  2  3  2  0
  2 22  1  0
  3  4  1  0
  3 19  1  0
  4  5  1  0
  4  9  1  0
  5  6  2  0
  5 23  1  0
  6  7  1  0
  6 24  1  0
  7  8  2  0
  7 25  1  0
  8  9  1  0
  8 10  1  0
 10 11  1  0
 10 26  1  0
 10 27  1  0
 11 12  2  0
 11 28  1  0
 12 13  1  0
 12 29  1  0
 13 14  2  0
 13 18  1  0
 14 15  1  0
 14 30  1  0
 15 16  2  0
 15 31  1  0
 16 17  1  0
 16 32  1  0
 17 18  2  0
 17 33  1  0
 18 34  1  0
 19 20  1  0
 19 35  1  0
 19 36  1  0
 20 21  3  0
 22 37  1  0
 22 38  1  0
 22 39  1  0
M  END

