39
rmsd4.gzmat
N          0.00000        0.00000        0.00000
C          1.37510        0.00000        0.00000
C          1.86570        0.00000        1.32350
N          0.73780       -0.01010        2.14540
C          0.61960       -0.04210        3.51730
C         -0.63700       -0.06120        4.06860
C         -1.79800       -0.05180        3.25020
C         -1.69970       -0.02320        1.88210
C         -0.40310       -0.00880        1.29750
C         -2.89420       -0.01070        0.98460
C         -3.71930       -1.24040        1.18130
C         -5.05710       -1.22100        1.19110
C         -5.86320       -2.42840        1.36200
C         -7.00680       -2.38420        2.16750
C         -7.78570       -3.52510        2.33720
C         -7.43390       -4.71440        1.70020
C         -6.29710       -4.76140        0.89570
C         -5.51240       -3.62330        0.72660
C          3.25720        0.00430        1.81490
C          3.64440       -1.30920        2.28790
N          3.94510       -2.36050        2.66250
C          2.15050       -0.00090       -1.25350
H          1.53880       -0.05950        4.10510
H         -0.75870       -0.08750        5.15170
H         -2.77740       -0.07690        3.73110
H         -2.57980        0.04340       -0.09130
H         -3.48110        0.91960        1.14990
H         -3.14980       -2.16280        1.30420
H         -5.62340       -0.29550        1.07940
H         -7.28280       -1.45860        2.66680
H         -8.67170       -3.48790        2.96830
H         -8.04610       -5.60340        1.83160
H         -6.02120       -5.68930        0.39800
H         -4.62720       -3.66100        0.09310
H          3.40010        0.77140        2.61960
H          3.94660        0.33570        0.99080
H          1.48700       -0.06260       -2.13650
H          2.83550       -0.86130       -1.30750
H          2.74550        0.91810       -1.36430
