rmsd106.gzmat
 OpenBabel08211713393D

 39 41  0  0  1  0  0  0  0  0999 V2000
    0.0000    0.0000    0.0000 N   0  0  0  0  0  0  0  0  0  0  0  0
    1.3752    0.0000    0.0000 C   0  0  0  0  0  0  0  0  0  0  0  0
    1.8660    0.0000    1.3233 C   0  0  1  0  0  0  0  0  0  0  0  0
    0.7380   -0.0042    2.1449 N   0  0  0  0  0  0  0  0  0  0  0  0
    0.6214   -0.0155    3.5172 C   0  0  0  0  0  0  0  0  0  0  0  0
   -0.6348   -0.0167    4.0697 C   0  0  0  0  0  0  0  0  0  0  0  0
   -1.7965   -0.0168    3.2524 C   0  0  0  0  0  0  0  0  0  0  0  0
   -1.6998   -0.0124    1.8837 C   0  0  0  0  0  0  0  0  0  0  0  0
   -0.4031   -0.0052    1.2975 C   0  0  0  0  0  0  0  0  0  0  0  0
   -2.8938   -0.0318    0.9851 C   0  0  0  0  0  0  0  0  0  0  0  0
   -3.8685    1.0311    1.3764 C   0  0  0  0  0  0  0  0  0  0  0  0
   -5.1453    0.7692    1.6784 C   0  0  0  0  0  0  0  0  0  0  0  0
   -6.1027    1.8103    2.0487 C   0  0  0  0  0  0  0  0  0  0  0  0
   -7.4114    1.7487    1.5570 C   0  0  0  0  0  0  0  0  0  0  0  0
   -8.3315    2.7375    1.8934 C   0  0  0  0  0  0  0  0  0  0  0  0
   -7.9562    3.7879    2.7302 C   0  0  0  0  0  0  0  0  0  0  0  0
   -6.6568    3.8471    3.2305 C   0  0  0  0  0  0  0  0  0  0  0  0
   -5.7314    2.8630    2.8918 C   0  0  0  0  0  0  0  0  0  0  0  0
    3.2577   -0.0006    1.8150 C   0  0  0  0  0  0  0  0  0  0  0  0
    3.6169   -1.2943    2.3598 C   0  0  0  0  0  0  0  0  0  0  0  0
    3.8935   -2.3284    2.7956 N   0  0  0  0  0  0  0  0  0  0  0  0
    2.1528   -0.0011   -1.2521 C   0  0  0  0  0  0  0  0  0  0  0  0
    1.5413   -0.0306    4.1039 H   0  0  0  0  0  0  0  0  0  0  0  0
   -0.7550   -0.0218    5.1534 H   0  0  0  0  0  0  0  0  0  0  0  0
   -2.7758   -0.0215    3.7349 H   0  0  0  0  0  0  0  0  0  0  0  0
   -3.3497   -1.0477    0.9974 H   0  0  0  0  0  0  0  0  0  0  0  0
   -2.5885    0.1217   -0.0824 H   0  0  0  0  0  0  0  0  0  0  0  0
   -3.4626    2.0431    1.3857 H   0  0  0  0  0  0  0  0  0  0  0  0
   -5.5483   -0.2444    1.6520 H   0  0  0  0  0  0  0  0  0  0  0  0
   -7.7073    0.9293    0.9055 H   0  0  0  0  0  0  0  0  0  0  0  0
   -9.3460    2.6905    1.5026 H   0  0  0  0  0  0  0  0  0  0  0  0
   -8.6771    4.5588    2.9924 H   0  0  0  0  0  0  0  0  0  0  0  0
   -6.3641    4.6646    3.8863 H   0  0  0  0  0  0  0  0  0  0  0  0
   -4.7183    2.9091    3.2868 H   0  0  0  0  0  0  0  0  0  0  0  0
    3.4160    0.8053    2.5785 H   0  0  0  0  0  0  0  0  0  0  0  0
    3.9538    0.2704    0.9749 H   0  0  0  0  0  0  0  0  0  0  0  0
    1.4894    0.0131   -2.1366 H   0  0  0  0  0  0  0  0  0  0  0  0
    2.7806   -0.9022   -1.3369 H   0  0  0  0  0  0  0  0  0  0  0  0
    2.8082    0.8793   -1.3276 H   0  0  0  0  0  0  0  0  0  0  0  0
  1  2  2  0  0  0  0
  1  9  2  0  0  0  0
  2  3  1  0  0  0  0
  3 19  1  6  0  0  0
  3  4  1  0  0  0  0
  4  5  1  0  0  0  0
  5  6  2  0  0  0  0
  5 23  1  0  0  0  0
  6 24  1  0  0  0  0
  7 25  1  0  0  0  0
  7  6  1  0  0  0  0
  8  7  2  0  0  0  0
  9  8  1  0  0  0  0
  9  4  1  0  0  0  0
 10 26  1  0  0  0  0
 10 11  1  0  0  0  0
 10  8  1  0  0  0  0
 11 28  1  0  0  0  0
 11 12  2  0  0  0  0
 12 13  1  0  0  0  0
 13 18  2  0  0  0  0
 14 15  2  0  0  0  0
 14 13  1  0  0  0  0
 15 16  1  0  0  0  0
 16 32  1  0  0  0  0
 16 17  2  0  0  0  0
 17 33  1  0  0  0  0
 18 17  1  0  0  0  0
 18 34  1  0  0  0  0
 19 20  1  0  0  0  0
 19 35  1  0  0  0  0
 20 21  3  0  0  0  0
 22  2  1  0  0  0  0
 27 10  1  0  0  0  0
 29 12  1  0  0  0  0
 30 14  1  0  0  0  0
 31 15  1  0  0  0  0
 36 19  1  0  0  0  0
 37 22  1  0  0  0  0
 38 22  1  0  0  0  0
 39 22  1  0  0  0  0
M  RAD  1   3   2
M  END
$$$$
