
     RDKit          3D

 39 41  0  0  0  0  0  0  0  0999 V2000
    0.1920    0.1689   -0.0769 N   0  0  0  0  0  0  0  0  0  0  0  0
    1.5095    0.5001    0.0287 C   0  0  0  0  0  0  0  0  0  0  0  0
    1.9757    0.2751    1.3221 C   0  0  0  0  0  0  0  0  0  0  0  0
    0.8909   -0.2227    2.0265 N   0  0  0  0  0  0  0  0  0  0  0  0
    0.7681   -0.6307    3.3316 C   0  0  0  0  0  0  0  0  0  0  0  0
   -0.4465   -1.0881    3.7670 C   0  0  0  0  0  0  0  0  0  0  0  0
   -1.5600   -1.1422    2.8825 C   0  0  0  0  0  0  0  0  0  0  0  0
   -1.4473   -0.7385    1.5674 C   0  0  0  0  0  0  0  0  0  0  0  0
   -0.1825   -0.2671    1.1212 C   0  0  0  0  0  0  0  0  0  0  0  0
   -2.5946   -0.7466    0.5805 C   0  0  0  0  0  0  0  0  0  0  0  0
   -3.6387   -1.7810    0.8725 C   0  0  0  0  0  0  0  0  0  0  0  0
   -4.9149   -1.5055    1.1869 C   0  0  0  0  0  0  0  0  0  0  0  0
   -5.9894   -2.4637    1.4861 C   0  0  0  0  0  0  0  0  0  0  0  0
   -7.2688   -1.9739    1.8080 C   0  0  0  0  0  0  0  0  0  0  0  0
   -8.3227   -2.8398    2.1046 C   0  0  0  0  0  0  0  0  0  0  0  0
   -8.1199   -4.2213    2.0857 C   0  0  0  0  0  0  0  0  0  0  0  0
   -6.8536   -4.7259    1.7667 C   0  0  0  0  0  0  0  0  0  0  0  0
   -5.8030   -3.8604    1.4706 C   0  0  0  0  0  0  0  0  0  0  0  0
    3.3125    0.4949    1.9550 C   0  0  0  0  0  0  0  0  0  0  0  0
    3.9479   -0.7392    2.4440 C   0  0  0  0  0  0  0  0  0  0  0  0
    4.4117   -1.7193    2.8512 N   0  0  0  0  0  0  0  0  0  0  0  0
    2.2709    1.0267   -1.1447 C   0  0  0  0  0  0  0  0  0  0  0  0
    1.6607   -0.5884    3.9547 H   0  0  0  0  0  0  0  0  0  0  0  0
   -0.5464   -1.4178    4.8018 H   0  0  0  0  0  0  0  0  0  0  0  0
   -2.5208   -1.5107    3.2472 H   0  0  0  0  0  0  0  0  0  0  0  0
   -2.1644   -0.8991   -0.4237 H   0  0  0  0  0  0  0  0  0  0  0  0
   -3.0515    0.2586    0.5567 H   0  0  0  0  0  0  0  0  0  0  0  0
   -3.2983   -2.8219    0.8311 H   0  0  0  0  0  0  0  0  0  0  0  0
   -5.2136   -0.4511    1.2308 H   0  0  0  0  0  0  0  0  0  0  0  0
   -7.4340   -0.8931    1.8243 H   0  0  0  0  0  0  0  0  0  0  0  0
   -9.3066   -2.4331    2.3512 H   0  0  0  0  0  0  0  0  0  0  0  0
   -8.9417   -4.9030    2.3168 H   0  0  0  0  0  0  0  0  0  0  0  0
   -6.6854   -5.8056    1.7480 H   0  0  0  0  0  0  0  0  0  0  0  0
   -4.8242   -4.2754    1.2223 H   0  0  0  0  0  0  0  0  0  0  0  0
    3.2487    1.1983    2.8066 H   0  0  0  0  0  0  0  0  0  0  0  0
    3.9831    0.9625    1.2191 H   0  0  0  0  0  0  0  0  0  0  0  0
    2.2703    0.2889   -1.9628 H   0  0  0  0  0  0  0  0  0  0  0  0
    3.3155    1.2609   -0.8948 H   0  0  0  0  0  0  0  0  0  0  0  0
    1.7935    1.9398   -1.5339 H   0  0  0  0  0  0  0  0  0  0  0  0
  1  2  1  0
  1  9  2  0
  2  3  2  0
  2 22  1  0
  3  4  1  0
  3 19  1  0
  4  5  1  0
  4  9  1  0
  5  6  2  0
  5 23  1  0
  6  7  1  0
  6 24  1  0
  7  8  2  0
  7 25  1  0
  8  9  1  0
  8 10  1  0
 10 11  1  0
 10 26  1  0
 10 27  1  0
 11 12  2  0
 11 28  1  0
 12 13  1  0
 12 29  1  0
 13 14  2  0
 13 18  1  0
 14 15  1  0
 14 30  1  0
 15 16  2  0
 15 31  1  0
 16 17  1  0
 16 32  1  0
 17 18  2  0
 17 33  1  0
 18 34  1  0
 19 20  1  0
 19 35  1  0
 19 36  1  0
 20 21  3  0
 22 37  1  0
 22 38  1  0
 22 39  1  0
M  END

