39

N         -0.01200       -0.09550        0.04380
C          1.34730       -0.16100       -0.02390
C          1.91440       -0.02470        1.24140
N          0.84760        0.13880        2.11080
C          0.80730        0.33020        3.46960
C         -0.41060        0.46500        4.08000
C         -1.61220        0.41030        3.31950
C         -1.58390        0.22240        1.95240
C         -0.31570        0.08610        1.32470
C         -2.82200        0.13020        1.08700
C         -4.00190        0.87400        1.63460
C         -5.15400        0.29810        2.01470
C         -6.34800        0.96060        2.56030
C         -6.43630        2.35380        2.75270
C         -7.58940        2.93200        3.27850
C         -8.68710        2.13560        3.62610
C         -8.61730        0.75320        3.44090
C         -7.46090        0.17540        2.91420
C          3.33470       -0.05040        1.70820
C          3.77940        1.20920        2.32570
N          4.09520        2.19870        2.83820
C          2.04820       -0.35420       -1.32980
H          1.76010        0.38680        3.99500
H         -0.44600        0.62210        5.15860
H         -2.57450        0.52030        3.82330
H         -3.07730       -0.93460        0.94270
H         -2.55320        0.50740        0.08590
H         -3.87490        1.95830        1.73080
H         -5.23750       -0.79090        1.91500
H         -5.59280        2.99380        2.48650
H         -7.63500        4.01490        3.41840
H         -9.59010        2.59240        4.03760
H         -9.46750        0.12040        3.70740
H         -7.41240       -0.90750        2.77150
H          3.98830       -0.26630        0.85020
H          3.50740       -0.86130        2.44070
H          1.81100        0.47360       -2.01690
H          1.70770       -1.28280       -1.81450
H          3.14040       -0.40290       -1.21530
