39
rmsd195.gzmat
N          0.00000        0.00000        0.00000
C          1.37550        0.00000        0.00000
C          1.86610        0.00000        1.32340
N          0.73780        0.01030        2.14470
C          0.62270        0.04500        3.51700
C         -0.63270        0.07060        4.06920
C         -1.79510        0.06480        3.25230
C         -1.70110        0.02850        1.88410
C         -0.40300        0.01020        1.29770
C         -2.88630        0.03340        0.97500
C         -4.05600       -0.66550        1.58640
C         -5.27370       -0.11780        1.66310
C         -6.41160       -0.80840        2.27150
C         -6.30230       -1.36570        3.54910
C         -7.39520       -2.00720        4.12650
C         -8.59940       -2.10030        3.43120
C         -8.70980       -1.54860        2.15530
C         -7.62200       -0.89960        1.57730
C          3.25640       -0.01480        1.81940
C          3.59380        1.23040        2.47850
N          3.85540        2.22240        3.01110
C          2.15550        0.00610       -1.25070
H          1.54350        0.06070        4.10280
H         -0.75160        0.09970        5.15250
H         -2.77220        0.09570        3.73810
H         -2.63090       -0.45500       -0.00090
H         -3.12400        1.08590        0.69290
H         -3.84750       -1.66960        1.95820
H         -5.49210        0.87780        1.27400
H         -5.36340       -1.29120        4.09370
H         -7.30790       -2.43640        5.12260
H         -9.45210       -2.60100        3.88400
H         -9.64870       -1.62410        1.61000
H         -7.71070       -0.46770        0.58260
H          3.96060       -0.20160        0.96330
H          3.42370       -0.88100        2.51270
H          1.49730        0.07020       -2.13680
H          2.75300       -0.91120       -1.36320
H          2.83890        0.86830       -1.29570
