39
rmsd222.gzmat
N          0.00000        0.00000        0.00000
C          1.37530        0.00000        0.00000
C          1.86540        0.00000        1.32360
N          0.73720       -0.00520        2.14480
C          0.61900       -0.02280        3.51720
C         -0.63790       -0.03190        4.06700
C         -1.80010       -0.02620        3.24950
C         -1.70280       -0.01590        1.88130
C         -0.40280       -0.00610        1.29790
C         -2.87840        0.01490        0.96120
C         -4.06970       -0.67540        1.53950
C         -5.23670       -0.05190        1.73490
C         -6.41510       -0.72410        2.28110
C         -6.85540       -1.93900        1.74800
C         -7.98940       -2.55820        2.26770
C         -8.68420       -1.97210        3.32400
C         -8.24310       -0.76340        3.86170
C         -7.11490       -0.13670        3.34010
C          3.25580       -0.00990        1.81870
C          3.63570       -1.33810        2.25670
N          3.92800       -2.40060        2.60610
C          2.15260       -0.00110       -1.25230
H          1.53730       -0.03590        4.10620
H         -0.75790       -0.04660        5.15030
H         -2.77840       -0.03290        3.73460
H         -2.61560       -0.46190       -0.01910
H         -3.09950        1.07440        0.69180
H         -3.92050       -1.72700        1.78640
H         -5.37590        1.00470        1.50080
H         -6.31400       -2.39590        0.92200
H         -8.33330       -3.50170        1.84770
H         -9.57000       -2.45680        3.72790
H         -8.78300       -0.30850        4.68970
H         -6.77180        0.80730        3.75810
H          3.39720        0.73280        2.64710
H          3.94920        0.34350        1.00750
H          1.49030        0.03250       -2.13710
H          2.76520       -0.91200       -1.34650
H          2.82300        0.86860       -1.31830
