rmsd15.gzmat
 OpenBabel08211713393D

 39 41  0  0  1  0  0  0  0  0999 V2000
    0.0000    0.0000    0.0000 N   0  0  0  0  0  0  0  0  0  0  0  0
    1.3755    0.0000    0.0000 C   0  0  0  0  0  0  0  0  0  0  0  0
    1.8663    0.0000    1.3232 C   0  0  2  0  0  0  0  0  0  0  0  0
    0.7382    0.0037    2.1446 N   0  0  0  0  0  0  0  0  0  0  0  0
    0.6238    0.0259    3.5171 C   0  0  0  0  0  0  0  0  0  0  0  0
   -0.6314    0.0350    4.0706 C   0  0  0  0  0  0  0  0  0  0  0  0
   -1.7936    0.0297    3.2539 C   0  0  0  0  0  0  0  0  0  0  0  0
   -1.6995    0.0221    1.8849 C   0  0  0  0  0  0  0  0  0  0  0  0
   -0.4028    0.0063    1.2979 C   0  0  0  0  0  0  0  0  0  0  0  0
   -2.8886    0.0209    0.9796 C   0  0  0  0  0  0  0  0  0  0  0  0
   -4.0245    0.7788    1.5849 C   0  0  0  0  0  0  0  0  0  0  0  0
   -5.2334    0.2427    1.7894 C   0  0  0  0  0  0  0  0  0  0  0  0
   -6.3210    0.9714    2.4407 C   0  0  0  0  0  0  0  0  0  0  0  0
   -6.5381    2.3299    2.1910 C   0  0  0  0  0  0  0  0  0  0  0  0
   -7.5598    3.0082    2.8512 C   0  0  0  0  0  0  0  0  0  0  0  0
   -8.3725    2.3361    3.7619 C   0  0  0  0  0  0  0  0  0  0  0  0
   -8.1670    0.9785    4.0053 C   0  0  0  0  0  0  0  0  0  0  0  0
   -7.1493    0.2962    3.3452 C   0  0  0  0  0  0  0  0  0  0  0  0
    3.2562    0.0043    1.8198 C   0  0  0  0  0  0  0  0  0  0  0  0
    3.6125    1.3022    2.3567 C   0  0  0  0  0  0  0  0  0  0  0  0
    3.8896    2.3392    2.7857 N   0  0  0  0  0  0  0  0  0  0  0  0
    2.1549   -0.0013   -1.2511 C   0  0  0  0  0  0  0  0  0  0  0  0
    1.5445    0.0441    4.1024 H   0  0  0  0  0  0  0  0  0  0  0  0
   -0.7505    0.0520    5.1541 H   0  0  0  0  0  0  0  0  0  0  0  0
   -2.7715    0.0379    3.7407 H   0  0  0  0  0  0  0  0  0  0  0  0
   -3.1646   -1.0312    0.7366 H   0  0  0  0  0  0  0  0  0  0  0  0
   -2.6235    0.4677   -0.0136 H   0  0  0  0  0  0  0  0  0  0  0  0
   -3.7883    1.8060    1.8667 H   0  0  0  0  0  0  0  0  0  0  0  0
   -5.4651   -0.7847    1.5042 H   0  0  0  0  0  0  0  0  0  0  0  0
   -5.9100    2.8573    1.4752 H   0  0  0  0  0  0  0  0  0  0  0  0
   -7.7224    4.0666    2.6555 H   0  0  0  0  0  0  0  0  0  0  0  0
   -9.1664    2.8680    4.2814 H   0  0  0  0  0  0  0  0  0  0  0  0
   -8.8037    0.4518    4.7135 H   0  0  0  0  0  0  0  0  0  0  0  0
   -6.9919   -0.7630    3.5378 H   0  0  0  0  0  0  0  0  0  0  0  0
    3.9561   -0.2730    0.9851 H   0  0  0  0  0  0  0  0  0  0  0  0
    3.4110   -0.7952    2.5911 H   0  0  0  0  0  0  0  0  0  0  0  0
    1.4947    0.0344   -2.1372 H   0  0  0  0  0  0  0  0  0  0  0  0
    2.7697   -0.9091   -1.3461 H   0  0  0  0  0  0  0  0  0  0  0  0
    2.8229    0.8720   -1.3135 H   0  0  0  0  0  0  0  0  0  0  0  0
  1  2  2  0  0  0  0
  1  9  2  0  0  0  0
  2  3  1  0  0  0  0
  3 19  1  6  0  0  0
  3  4  1  0  0  0  0
  4  5  1  0  0  0  0
  5  6  2  0  0  0  0
  5 23  1  0  0  0  0
  6 24  1  0  0  0  0
  7 25  1  0  0  0  0
  7  6  1  0  0  0  0
  8  7  2  0  0  0  0
  9  8  1  0  0  0  0
  9  4  1  0  0  0  0
 10 11  1  0  0  0  0
 10  8  1  0  0  0  0
 11 12  2  0  0  0  0
 11 28  1  0  0  0  0
 12 13  1  0  0  0  0
 13 18  1  0  0  0  0
 14 13  2  0  0  0  0
 14 15  1  0  0  0  0
 15 16  2  0  0  0  0
 16 17  1  0  0  0  0
 16 32  1  0  0  0  0
 17 33  1  0  0  0  0
 18 34  1  0  0  0  0
 18 17  2  0  0  0  0
 19 20  1  0  0  0  0
 19 36  1  0  0  0  0
 20 21  3  0  0  0  0
 22  2  1  0  0  0  0
 26 10  1  0  0  0  0
 27 10  1  0  0  0  0
 29 12  1  0  0  0  0
 30 14  1  0  0  0  0
 31 15  1  0  0  0  0
 35 19  1  0  0  0  0
 37 22  1  0  0  0  0
 38 22  1  0  0  0  0
 39 22  1  0  0  0  0
M  RAD  1   3   2
M  END
$$$$
