39
rmsd213.gzmat
N          0.00000        0.00000        0.00000
C          1.37510        0.00000        0.00000
C          1.86560        0.00000        1.32380
N          0.73740        0.00540        2.14520
C          0.61730        0.01720        3.51720
C         -0.64040        0.01750        4.06590
C         -1.80190        0.01290        3.24730
C         -1.70270        0.00700        1.87900
C         -0.40310        0.00430        1.29750
C         -2.88220        0.02830        0.96310
C         -3.98230       -0.85800        1.44590
C         -5.26260       -0.47000        1.48320
C         -6.34530       -1.35710        1.90610
C         -6.19600       -2.20530        3.00740
C         -7.23260       -3.05850        3.37770
C         -8.42300       -3.06910        2.65340
C         -8.57990       -2.21610        1.56140
C         -7.54800       -1.35920        1.19050
C          3.25780        0.01210        1.81350
C          3.66140        1.35430        2.18170
N          3.97370        2.42770        2.47560
C          2.15000        0.00330       -1.25360
H          1.53500        0.03290        4.10710
H         -0.76040        0.02600        5.14940
H         -2.78120        0.01780        3.72930
H         -2.58050       -0.29440       -0.06910
H         -3.22060        1.08160        0.82610
H         -3.67090       -1.86030        1.74150
H         -5.57320        0.53000        1.17650
H         -5.26950       -2.19590        3.57790
H         -7.11170       -3.71920        4.23400
H         -9.22930       -3.74040        2.93940
H         -9.51120       -2.22090        0.99850
H         -7.67220       -0.69580        0.33710
H          3.94090       -0.39260        1.01790
H          3.39510       -0.69020        2.67670
H          1.48430       -0.01780       -2.13640
H          2.81260       -0.87160       -1.32920
H          2.77050        0.90930       -1.34260
