42
rmsd37.gzmat
O          0.00000        0.00000        0.00000
C          1.36500        0.00000        0.00000
C          2.16430        0.00000        1.14580
C          3.54300       -0.10970        1.00720
C          4.08160       -0.22040       -0.27690
F          5.39460       -0.33980       -0.40490
C          3.29940       -0.20810       -1.42930
C          1.91990       -0.08460       -1.28490
C          1.04690        0.01130       -2.48180
O          0.30280        0.95380       -2.63490
C          1.14780       -1.06240       -3.49290
C          0.90130       -0.74650       -4.83040
C          0.98640       -1.74230       -5.80080
C          1.29280       -3.05070       -5.43010
C          1.52680       -3.36630       -4.09130
C          1.45880       -2.37130       -3.12010
C         -0.65220        0.66210        1.06860
C         -0.46700        2.18030        1.00650
O         -0.57150        2.84270        2.01530
N         -0.21220        2.68950       -0.24730
C          0.01150        4.05270       -0.55070
C          0.05070        5.06370        0.41580
C          0.28750        6.37710        0.01650
C          0.47320        6.69110       -1.32730
C          0.42490        5.68050       -2.28830
C          0.20190        4.36340       -1.91120
H          1.72280        0.09030        2.13670
H          4.18940       -0.10720        1.88620
H          3.75060       -0.28290       -2.42090
H          0.63950        0.27770       -5.10640
H          0.81030       -1.49850       -6.84670
H          1.34790       -3.83130       -6.18800
H          1.76490       -4.38970       -3.80720
H          1.64100       -2.61520       -2.07280
H         -0.34270        0.26540        2.05130
H         -1.71600        0.39170        0.89080
H         -0.12870        2.03560       -1.04120
H         -0.10460        4.83930        1.47240
H          0.32590        7.16510        0.76780
H          0.65300        7.71910       -1.62840
H          0.56140        5.92630       -3.34010
H          0.16900        3.57480       -2.66290
