rmsd172.gzmat
 OpenBabel08211713413D

 42 44  0  0  0  0  0  0  0  0999 V2000
    0.0000    0.0000    0.0000 O   0  0  0  0  0  0  0  0  0  0  0  0
    1.3634    0.0000    0.0000 C   0  0  0  0  0  0  0  0  0  0  0  0
    2.1789    0.0000    1.1320 C   0  0  0  0  0  0  0  0  0  0  0  0
    3.5552   -0.1295    0.9688 C   0  0  0  0  0  0  0  0  0  0  0  0
    4.0683   -0.2592   -0.3231 C   0  0  0  0  0  0  0  0  0  0  0  0
    5.3759   -0.4047   -0.4784 F   0  0  0  0  0  0  0  0  0  0  0  0
    3.2664   -0.2428   -1.4646 C   0  0  0  0  0  0  0  0  0  0  0  0
    1.8946   -0.1037   -1.2938 C   0  0  0  0  0  0  0  0  0  0  0  0
    0.9674   -0.0249   -2.4541 C   0  0  0  0  0  0  0  0  0  0  0  0
    0.3792    1.0064   -2.6934 O   0  0  0  0  0  0  0  0  0  0  0  0
    0.7708   -1.2348   -3.2773 C   0  0  0  0  0  0  0  0  0  0  0  0
    0.0645   -1.1141   -4.4772 C   0  0  0  0  0  0  0  0  0  0  0  0
   -0.1926   -2.2459   -5.2469 C   0  0  0  0  0  0  0  0  0  0  0  0
    0.2364   -3.4973   -4.8071 C   0  0  0  0  0  0  0  0  0  0  0  0
    0.9474   -3.6170   -3.6126 C   0  0  0  0  0  0  0  0  0  0  0  0
    1.2225   -2.4855   -2.8505 C   0  0  0  0  0  0  0  0  0  0  0  0
   -0.6710    0.6010    1.0869 C   0  0  0  0  0  0  0  0  0  0  0  0
   -0.7550    2.1219    0.9613 C   0  0  0  0  0  0  0  0  0  0  0  0
   -1.1254    2.7658    1.9207 O   0  0  0  0  0  0  0  0  0  0  0  0
   -0.4403    2.6701   -0.2624 N   0  0  0  0  0  0  0  0  0  0  0  0
   -0.5936    4.0449   -0.5726 C   0  0  0  0  0  0  0  0  0  0  0  0
   -0.7022    5.0394    0.4067 C   0  0  0  0  0  0  0  0  0  0  0  0
   -0.8415    6.3695    0.0184 C   0  0  0  0  0  0  0  0  0  0  0  0
   -0.8717    6.7165   -1.3300 C   0  0  0  0  0  0  0  0  0  0  0  0
   -0.7522    5.7230   -2.3022 C   0  0  0  0  0  0  0  0  0  0  0  0
   -0.6172    4.3897   -1.9362 C   0  0  0  0  0  0  0  0  0  0  0  0
    1.7532    0.0979    2.1291 H   0  0  0  0  0  0  0  0  0  0  0  0
    4.2167   -0.1314    1.8366 H   0  0  0  0  0  0  0  0  0  0  0  0
    3.7006   -0.3283   -2.4622 H   0  0  0  0  0  0  0  0  0  0  0  0
   -0.2914   -0.1307   -4.7981 H   0  0  0  0  0  0  0  0  0  0  0  0
   -0.7348   -2.1546   -6.1865 H   0  0  0  0  0  0  0  0  0  0  0  0
    0.0125   -4.3853   -5.3973 H   0  0  0  0  0  0  0  0  0  0  0  0
    1.2831   -4.5947   -3.2718 H   0  0  0  0  0  0  0  0  0  0  0  0
    1.7820   -2.5814   -1.9184 H   0  0  0  0  0  0  0  0  0  0  0  0
   -0.2467    0.3129    2.0643 H   0  0  0  0  0  0  0  0  0  0  0  0
   -1.6894    0.1596    0.9955 H   0  0  0  0  0  0  0  0  0  0  0  0
   -0.1541    2.0573   -1.0372 H   0  0  0  0  0  0  0  0  0  0  0  0
   -0.6804    4.7884    1.4686 H   0  0  0  0  0  0  0  0  0  0  0  0
   -0.9241    7.1431    0.7813 H   0  0  0  0  0  0  0  0  0  0  0  0
   -0.9869    7.7562   -1.6237 H   0  0  0  0  0  0  0  0  0  0  0  0
   -0.7607    5.9960   -3.3560 H   0  0  0  0  0  0  0  0  0  0  0  0
   -0.5309    3.6148   -2.6979 H   0  0  0  0  0  0  0  0  0  0  0  0
  1  2  1  0  0  0  0
  1 17  1  0  0  0  0
  2  3  2  0  0  0  0
  3 27  1  0  0  0  0
  4  3  1  0  0  0  0
  4 28  1  0  0  0  0
  5  4  2  0  0  0  0
  6  5  1  0  0  0  0
  7  8  2  0  0  0  0
  7  5  1  0  0  0  0
  8  2  1  0  0  0  0
  9  8  1  0  0  0  0
 10  9  2  0  0  0  0
 11 16  1  0  0  0  0
 11  9  1  0  0  0  0
 12 11  2  0  0  0  0
 13 14  2  0  0  0  0
 13 12  1  0  0  0  0
 14 15  1  0  0  0  0
 15 33  1  0  0  0  0
 15 16  2  0  0  0  0
 16 34  1  0  0  0  0
 17 35  1  0  0  0  0
 18 17  1  0  0  0  0
 18 19  2  0  0  0  0
 20 18  1  0  0  0  0
 21 20  1  0  0  0  0
 21 22  2  0  0  0  0
 22 38  1  0  0  0  0
 23 22  1  0  0  0  0
 23 39  1  0  0  0  0
 24 23  2  0  0  0  0
 25 26  2  0  0  0  0
 25 24  1  0  0  0  0
 26 21  1  0  0  0  0
 29  7  1  0  0  0  0
 30 12  1  0  0  0  0
 31 13  1  0  0  0  0
 32 14  1  0  0  0  0
 36 17  1  0  0  0  0
 37 20  1  0  0  0  0
 40 24  1  0  0  0  0
 41 25  1  0  0  0  0
 42 26  1  0  0  0  0
M  END
$$$$
