rmsd38.gzmat
 OpenBabel08211713413D

 42 44  0  0  0  0  0  0  0  0999 V2000
    0.0000    0.0000    0.0000 O   0  0  0  0  0  0  0  0  0  0  0  0
    1.3662    0.0000    0.0000 C   0  0  0  0  0  0  0  0  0  0  0  0
    2.1653    0.0000    1.1450 C   0  0  0  0  0  0  0  0  0  0  0  0
    3.5463   -0.0785    1.0043 C   0  0  0  0  0  0  0  0  0  0  0  0
    4.0855   -0.1636   -0.2807 C   0  0  0  0  0  0  0  0  0  0  0  0
    5.4015   -0.2410   -0.4103 F   0  0  0  0  0  0  0  0  0  0  0  0
    3.3016   -0.1653   -1.4328 C   0  0  0  0  0  0  0  0  0  0  0  0
    1.9210   -0.0716   -1.2853 C   0  0  0  0  0  0  0  0  0  0  0  0
    1.0416    0.0264   -2.4794 C   0  0  0  0  0  0  0  0  0  0  0  0
    0.3639    1.0129   -2.6606 O   0  0  0  0  0  0  0  0  0  0  0  0
    1.0501   -1.0945   -3.4417 C   0  0  0  0  0  0  0  0  0  0  0  0
    0.7566   -0.8307   -4.7815 C   0  0  0  0  0  0  0  0  0  0  0  0
    0.7543   -1.8732   -5.7055 C   0  0  0  0  0  0  0  0  0  0  0  0
    1.0241   -3.1754   -5.2864 C   0  0  0  0  0  0  0  0  0  0  0  0
    1.2932   -3.4399   -3.9434 C   0  0  0  0  0  0  0  0  0  0  0  0
    1.3137   -2.3984   -3.0197 C   0  0  0  0  0  0  0  0  0  0  0  0
   -0.6468    0.6951    1.0517 C   0  0  0  0  0  0  0  0  0  0  0  0
   -0.3514    2.1954    1.0263 C   0  0  0  0  0  0  0  0  0  0  0  0
   -0.4011    2.8423    2.0498 O   0  0  0  0  0  0  0  0  0  0  0  0
   -0.0403    2.7191   -0.2099 N   0  0  0  0  0  0  0  0  0  0  0  0
    0.4124    4.0454   -0.4155 C   0  0  0  0  0  0  0  0  0  0  0  0
    1.1943    4.2827   -1.5598 C   0  0  0  0  0  0  0  0  0  0  0  0
    1.6694    5.5641   -1.8076 C   0  0  0  0  0  0  0  0  0  0  0  0
    1.3659    6.6100   -0.9353 C   0  0  0  0  0  0  0  0  0  0  0  0
    0.5758    6.3709    0.1869 C   0  0  0  0  0  0  0  0  0  0  0  0
    0.0942    5.0927    0.4566 C   0  0  0  0  0  0  0  0  0  0  0  0
    1.7218    0.0718    2.1367 H   0  0  0  0  0  0  0  0  0  0  0  0
    4.1953   -0.0679    1.8817 H   0  0  0  0  0  0  0  0  0  0  0  0
    3.7531   -0.2241   -2.4242 H   0  0  0  0  0  0  0  0  0  0  0  0
    0.5256    0.1903   -5.0946 H   0  0  0  0  0  0  0  0  0  0  0  0
    0.5361   -1.6709   -6.7523 H   0  0  0  0  0  0  0  0  0  0  0  0
    1.0213   -3.9900   -6.0100 H   0  0  0  0  0  0  0  0  0  0  0  0
    1.4845   -4.4596   -3.6149 H   0  0  0  0  0  0  0  0  0  0  0  0
    1.5263   -2.6034   -1.9698 H   0  0  0  0  0  0  0  0  0  0  0  0
   -0.3950    0.2621    2.0365 H   0  0  0  0  0  0  0  0  0  0  0  0
   -1.7188    0.4991    0.8333 H   0  0  0  0  0  0  0  0  0  0  0  0
    0.0076    2.0925   -1.0254 H   0  0  0  0  0  0  0  0  0  0  0  0
    1.4249    3.4682   -2.2454 H   0  0  0  0  0  0  0  0  0  0  0  0
    2.2852    5.7516   -2.6859 H   0  0  0  0  0  0  0  0  0  0  0  0
    1.7464    7.6088   -1.1316 H   0  0  0  0  0  0  0  0  0  0  0  0
    0.3292    7.1884    0.8632 H   0  0  0  0  0  0  0  0  0  0  0  0
   -0.5220    4.9148    1.3389 H   0  0  0  0  0  0  0  0  0  0  0  0
  1  2  1  0  0  0  0
  1 17  1  0  0  0  0
  2  3  2  0  0  0  0
  3 27  1  0  0  0  0
  4  3  1  0  0  0  0
  4 28  1  0  0  0  0
  5  4  2  0  0  0  0
  6  5  1  0  0  0  0
  7  8  2  0  0  0  0
  7  5  1  0  0  0  0
  8  2  1  0  0  0  0
  9  8  1  0  0  0  0
 10  9  2  0  0  0  0
 11 16  1  0  0  0  0
 11  9  1  0  0  0  0
 12 11  2  0  0  0  0
 13 14  2  0  0  0  0
 13 12  1  0  0  0  0
 14 15  1  0  0  0  0
 15 33  1  0  0  0  0
 15 16  2  0  0  0  0
 16 34  1  0  0  0  0
 17 35  1  0  0  0  0
 18 17  1  0  0  0  0
 18 19  2  0  0  0  0
 20 18  1  0  0  0  0
 21 20  1  0  0  0  0
 21 26  2  0  0  0  0
 22 21  1  0  0  0  0
 23 22  2  0  0  0  0
 23 24  1  0  0  0  0
 24 25  2  0  0  0  0
 25 26  1  0  0  0  0
 25 41  1  0  0  0  0
 26 42  1  0  0  0  0
 29  7  1  0  0  0  0
 30 12  1  0  0  0  0
 31 13  1  0  0  0  0
 32 14  1  0  0  0  0
 36 17  1  0  0  0  0
 37 20  1  0  0  0  0
 38 22  1  0  0  0  0
 39 23  1  0  0  0  0
 40 24  1  0  0  0  0
M  END
$$$$
