42
rmsd146.gzmat
O          0.00000        0.00000        0.00000
C          1.36580        0.00000        0.00000
C          2.16420        0.00000        1.14580
C          3.54470        0.08160        1.00520
C          4.08470        0.16950       -0.28010
F          5.40010        0.25520       -0.40940
C          3.30210        0.16100       -1.43290
C          1.92150        0.06120       -1.28560
C          1.03820       -0.06200       -2.47330
O          0.31430       -1.02620       -2.59500
C          1.09200        0.99410       -3.50480
C          1.55670        2.27720       -3.20960
C          1.58310        3.24810       -4.20690
C          1.14530        2.93850       -5.49470
C          0.67310        1.65990       -5.78680
C          0.64340        0.68660       -4.79120
C         -0.64790       -0.66100        1.07280
C         -0.34840       -2.16140        1.09800
O         -0.41620       -2.77610        2.13960
N         -0.01940       -2.71160       -0.12150
C          0.38120       -4.05060       -0.33580
C          0.70370       -4.39850       -1.66170
C          1.11440       -5.69250       -1.95020
C          1.20380       -6.64680       -0.93630
C          0.88130       -6.29770        0.37300
C          0.47310       -5.00310        0.68540
H          1.72040       -0.07590        2.13710
H          4.19030        0.07090        1.88470
H          3.75360        0.21280       -2.42580
H          1.89300        2.52190       -2.20100
H          1.94640        4.24940       -3.98170
H          1.17110        3.69930       -6.27420
H          0.32570        1.42140       -6.79030
H          0.26760       -0.31710       -5.00680
H         -1.71920       -0.47640        0.84060
H         -0.40420       -0.19310        2.04330
H          0.00340       -2.09880       -0.95240
H          0.63320       -3.65500       -2.45520
H          1.36940       -5.96260       -2.97370
H          1.52520       -7.65800       -1.16880
H          0.94770       -7.04200        1.16600
H          0.23040       -4.74670        1.71810
