rmsd185.gzmat
 OpenBabel08211713413D

 42 44  0  0  0  0  0  0  0  0999 V2000
    0.0000    0.0000    0.0000 O   0  0  0  0  0  0  0  0  0  0  0  0
    1.3665    0.0000    0.0000 C   0  0  0  0  0  0  0  0  0  0  0  0
    2.1550    0.0000    1.1538 C   0  0  0  0  0  0  0  0  0  0  0  0
    3.5367    0.0746    1.0255 C   0  0  0  0  0  0  0  0  0  0  0  0
    4.0875    0.1445   -0.2569 C   0  0  0  0  0  0  0  0  0  0  0  0
    5.4055    0.2062   -0.3751 F   0  0  0  0  0  0  0  0  0  0  0  0
    3.3149    0.1527   -1.4154 C   0  0  0  0  0  0  0  0  0  0  0  0
    1.9306    0.0822   -1.2795 C   0  0  0  0  0  0  0  0  0  0  0  0
    1.0567    0.0610   -2.4802 C   0  0  0  0  0  0  0  0  0  0  0  0
    0.2914   -0.8571   -2.6754 O   0  0  0  0  0  0  0  0  0  0  0  0
    1.1650    1.1853   -3.4344 C   0  0  0  0  0  0  0  0  0  0  0  0
    0.7027    0.9980   -4.7392 C   0  0  0  0  0  0  0  0  0  0  0  0
    0.7680    2.0459   -5.6543 C   0  0  0  0  0  0  0  0  0  0  0  0
    1.2844    3.2802   -5.2629 C   0  0  0  0  0  0  0  0  0  0  0  0
    1.7494    3.4668   -3.9610 C   0  0  0  0  0  0  0  0  0  0  0  0
    1.6892    2.4204   -3.0446 C   0  0  0  0  0  0  0  0  0  0  0  0
   -0.6373   -0.7601    1.0119 C   0  0  0  0  0  0  0  0  0  0  0  0
   -0.3379   -2.2563    0.8967 C   0  0  0  0  0  0  0  0  0  0  0  0
   -0.3771   -2.9635    1.8800 O   0  0  0  0  0  0  0  0  0  0  0  0
   -0.0610   -2.7074   -0.3746 N   0  0  0  0  0  0  0  0  0  0  0  0
    0.2632   -4.0485   -0.6951 C   0  0  0  0  0  0  0  0  0  0  0  0
    0.7793   -4.9486    0.2434 C   0  0  0  0  0  0  0  0  0  0  0  0
    1.1231   -6.2346   -0.1665 C   0  0  0  0  0  0  0  0  0  0  0  0
    0.9545   -6.6273   -1.4919 C   0  0  0  0  0  0  0  0  0  0  0  0
    0.4235   -5.7303   -2.4193 C   0  0  0  0  0  0  0  0  0  0  0  0
    0.0760   -4.4428   -2.0320 C   0  0  0  0  0  0  0  0  0  0  0  0
    1.6975   -0.0624    2.1402 H   0  0  0  0  0  0  0  0  0  0  0  0
    4.1767    0.0773    1.9089 H   0  0  0  0  0  0  0  0  0  0  0  0
    3.7739    0.2018   -2.4055 H   0  0  0  0  0  0  0  0  0  0  0  0
    0.2882    0.0305   -5.0328 H   0  0  0  0  0  0  0  0  0  0  0  0
    0.4145    1.9027   -6.6730 H   0  0  0  0  0  0  0  0  0  0  0  0
    1.3215    4.1034   -5.9753 H   0  0  0  0  0  0  0  0  0  0  0  0
    2.1578    4.4306   -3.6600 H   0  0  0  0  0  0  0  0  0  0  0  0
    2.0436    2.5709   -2.0238 H   0  0  0  0  0  0  0  0  0  0  0  0
   -1.7106   -0.5577    0.8085 H   0  0  0  0  0  0  0  0  0  0  0  0
   -0.3880   -0.3844    2.0198 H   0  0  0  0  0  0  0  0  0  0  0  0
   -0.0531   -2.0385   -1.1593 H   0  0  0  0  0  0  0  0  0  0  0  0
    0.9136   -4.6536    1.2848 H   0  0  0  0  0  0  0  0  0  0  0  0
    1.5311   -6.9350    0.5615 H   0  0  0  0  0  0  0  0  0  0  0  0
    1.2355   -7.6288   -1.8055 H   0  0  0  0  0  0  0  0  0  0  0  0
    0.2807   -6.0400   -3.4533 H   0  0  0  0  0  0  0  0  0  0  0  0
   -0.3403   -3.7436   -2.7567 H   0  0  0  0  0  0  0  0  0  0  0  0
  1  2  1  0  0  0  0
  1 17  1  0  0  0  0
  2  3  2  0  0  0  0
  3 27  1  0  0  0  0
  4  3  1  0  0  0  0
  4 28  1  0  0  0  0
  5  4  2  0  0  0  0
  6  5  1  0  0  0  0
  7  8  2  0  0  0  0
  7  5  1  0  0  0  0
  8  2  1  0  0  0  0
  9  8  1  0  0  0  0
 10  9  2  0  0  0  0
 11 16  1  0  0  0  0
 11  9  1  0  0  0  0
 12 11  2  0  0  0  0
 13 14  2  0  0  0  0
 13 12  1  0  0  0  0
 14 15  1  0  0  0  0
 15 33  1  0  0  0  0
 15 16  2  0  0  0  0
 16 34  1  0  0  0  0
 17 36  1  0  0  0  0
 18 17  1  0  0  0  0
 18 19  2  0  0  0  0
 20 18  1  0  0  0  0
 21 20  1  0  0  0  0
 21 22  2  0  0  0  0
 22 38  1  0  0  0  0
 23 22  1  0  0  0  0
 23 39  1  0  0  0  0
 24 23  2  0  0  0  0
 25 26  2  0  0  0  0
 25 24  1  0  0  0  0
 26 21  1  0  0  0  0
 29  7  1  0  0  0  0
 30 12  1  0  0  0  0
 31 13  1  0  0  0  0
 32 14  1  0  0  0  0
 35 17  1  0  0  0  0
 37 20  1  0  0  0  0
 40 24  1  0  0  0  0
 41 25  1  0  0  0  0
 42 26  1  0  0  0  0
M  END
$$$$
