42
rmsd38.gzmat
O          0.00000        0.00000        0.00000
C          1.36620        0.00000        0.00000
C          2.16530        0.00000        1.14500
C          3.54630       -0.07850        1.00430
C          4.08550       -0.16360       -0.28070
F          5.40150       -0.24100       -0.41030
C          3.30160       -0.16530       -1.43280
C          1.92100       -0.07160       -1.28530
C          1.04160        0.02640       -2.47940
O          0.36390        1.01290       -2.66060
C          1.05010       -1.09450       -3.44170
C          0.75660       -0.83070       -4.78150
C          0.75430       -1.87320       -5.70550
C          1.02410       -3.17540       -5.28640
C          1.29320       -3.43990       -3.94340
C          1.31370       -2.39840       -3.01970
C         -0.64680        0.69510        1.05170
C         -0.35140        2.19540        1.02630
O         -0.40110        2.84230        2.04980
N         -0.04030        2.71910       -0.20990
C          0.41240        4.04540       -0.41550
C          1.19430        4.28270       -1.55980
C          1.66940        5.56410       -1.80760
C          1.36590        6.61000       -0.93530
C          0.57580        6.37090        0.18690
C          0.09420        5.09270        0.45660
H          1.72180        0.07180        2.13670
H          4.19530       -0.06790        1.88170
H          3.75310       -0.22410       -2.42420
H          0.52560        0.19030       -5.09460
H          0.53610       -1.67090       -6.75230
H          1.02130       -3.99000       -6.01000
H          1.48450       -4.45960       -3.61490
H          1.52630       -2.60340       -1.96980
H         -0.39500        0.26210        2.03650
H         -1.71880        0.49910        0.83330
H          0.00760        2.09250       -1.02540
H          1.42490        3.46820       -2.24540
H          2.28520        5.75160       -2.68590
H          1.74640        7.60880       -1.13160
H          0.32920        7.18840        0.86320
H         -0.52200        4.91480        1.33890
