42
rmsd168.gzmat
O          0.00000        0.00000        0.00000
C          1.36410        0.00000        0.00000
C          2.17760        0.00000        1.13210
C          3.55330        0.12960        0.96850
C          4.06780        0.26220       -0.32200
F          5.37690        0.40190       -0.46910
C          3.26800        0.24750       -1.46530
C          1.89750        0.09610       -1.29420
C          0.98480       -0.03600       -2.45950
O          0.43410       -1.09270       -2.68040
C          0.76150        1.13690       -3.32730
C          0.83060        2.43560       -2.82040
C          0.50120        3.51150       -3.64110
C          0.13170        3.29080       -4.96920
C          0.09230        1.99440       -5.48210
C          0.39480        0.91430       -4.65760
C         -0.67560       -0.60660        1.08280
C         -0.70390       -2.13380        0.97890
O         -1.04810       -2.78070        1.94610
N         -0.36710       -2.66770       -0.24440
C         -0.35250       -4.04600       -0.56500
C         -0.63770       -5.05450        0.36030
C         -0.58950       -6.38530       -0.04640
C         -0.25350       -6.71940       -1.35540
C          0.01900       -5.70950       -2.27900
C         -0.02920       -4.37600       -1.89580
H          1.75540       -0.10330        2.13000
H          4.21430        0.12970        1.83600
H          3.70160        0.34200       -2.46300
H          1.12770        2.61110       -1.78530
H          0.52470        4.52400       -3.24100
H         -0.13270        4.13270       -5.60800
H         -0.19110        1.82480       -6.52090
H          0.33080       -0.11070       -5.03480
H         -1.70420       -0.19890        0.95770
H         -0.28140       -0.28670        2.06300
H         -0.09200       -2.03100       -1.00520
H         -0.89990       -4.81240        1.39200
H         -0.81700       -7.17160        0.67400
H         -0.20310       -7.76220       -1.65450
H          0.27100       -5.96830       -3.30640
H          0.17740       -3.58940       -2.62090
