rmsd221.gzmat
 OpenBabel08211713413D

 42 44  0  0  0  0  0  0  0  0999 V2000
    0.0000    0.0000    0.0000 O   0  0  0  0  0  0  0  0  0  0  0  0
    1.3670    0.0000    0.0000 C   0  0  0  0  0  0  0  0  0  0  0  0
    2.1555    0.0000    1.1537 C   0  0  0  0  0  0  0  0  0  0  0  0
    3.5383    0.0557    1.0275 C   0  0  0  0  0  0  0  0  0  0  0  0
    4.0914    0.1219   -0.2534 C   0  0  0  0  0  0  0  0  0  0  0  0
    5.4095    0.1771   -0.3714 F   0  0  0  0  0  0  0  0  0  0  0  0
    3.3185    0.1340   -1.4122 C   0  0  0  0  0  0  0  0  0  0  0  0
    1.9336    0.0662   -1.2794 C   0  0  0  0  0  0  0  0  0  0  0  0
    1.0694    0.0236   -2.4879 C   0  0  0  0  0  0  0  0  0  0  0  0
    0.3057   -0.8956   -2.6758 O   0  0  0  0  0  0  0  0  0  0  0  0
    1.2178    1.1322   -3.4567 C   0  0  0  0  0  0  0  0  0  0  0  0
    1.5654    2.4135   -3.0235 C   0  0  0  0  0  0  0  0  0  0  0  0
    1.7040    3.4429   -3.9503 C   0  0  0  0  0  0  0  0  0  0  0  0
    1.4982    3.1912   -5.3071 C   0  0  0  0  0  0  0  0  0  0  0  0
    1.1427    1.9140   -5.7378 C   0  0  0  0  0  0  0  0  0  0  0  0
    0.9967    0.8825   -4.8124 C   0  0  0  0  0  0  0  0  0  0  0  0
   -0.6314   -0.7298    1.0383 C   0  0  0  0  0  0  0  0  0  0  0  0
   -0.2874   -2.2193    0.9982 C   0  0  0  0  0  0  0  0  0  0  0  0
   -0.3317   -2.8822    2.0114 O   0  0  0  0  0  0  0  0  0  0  0  0
    0.0495   -2.7196   -0.2406 N   0  0  0  0  0  0  0  0  0  0  0  0
    0.4389   -4.0620   -0.4732 C   0  0  0  0  0  0  0  0  0  0  0  0
    0.9812   -4.8719    0.5316 C   0  0  0  0  0  0  0  0  0  0  0  0
    1.3729   -6.1713    0.2212 C   0  0  0  0  0  0  0  0  0  0  0  0
    1.2305   -6.6657   -1.0734 C   0  0  0  0  0  0  0  0  0  0  0  0
    0.6869   -5.8551   -2.0700 C   0  0  0  0  0  0  0  0  0  0  0  0
    0.2925   -4.5543   -1.7816 C   0  0  0  0  0  0  0  0  0  0  0  0
    1.6999   -0.0496    2.1414 H   0  0  0  0  0  0  0  0  0  0  0  0
    4.1761    0.0437    1.9127 H   0  0  0  0  0  0  0  0  0  0  0  0
    3.7799    0.1845   -2.4006 H   0  0  0  0  0  0  0  0  0  0  0  0
    1.7250    2.6094   -1.9623 H   0  0  0  0  0  0  0  0  0  0  0  0
    1.9746    4.4431   -3.6165 H   0  0  0  0  0  0  0  0  0  0  0  0
    1.6161    3.9961   -6.0320 H   0  0  0  0  0  0  0  0  0  0  0  0
    0.9777    1.7229   -6.7966 H   0  0  0  0  0  0  0  0  0  0  0  0
    0.7114   -0.1194   -5.1408 H   0  0  0  0  0  0  0  0  0  0  0  0
   -1.7076   -0.5669    0.8153 H   0  0  0  0  0  0  0  0  0  0  0  0
   -0.4015   -0.3004    2.0303 H   0  0  0  0  0  0  0  0  0  0  0  0
    0.0227   -2.1023   -1.0642 H   0  0  0  0  0  0  0  0  0  0  0  0
    1.0959   -4.4972    1.5494 H   0  0  0  0  0  0  0  0  0  0  0  0
    1.7929   -6.8049    1.0018 H   0  0  0  0  0  0  0  0  0  0  0  0
    1.5398   -7.6809   -1.3061 H   0  0  0  0  0  0  0  0  0  0  0  0
    0.5664   -6.2444   -3.0798 H   0  0  0  0  0  0  0  0  0  0  0  0
   -0.1312   -3.9227   -2.5605 H   0  0  0  0  0  0  0  0  0  0  0  0
  1  2  1  0  0  0  0
  1 17  1  0  0  0  0
  2  3  2  0  0  0  0
  3 27  1  0  0  0  0
  4  3  1  0  0  0  0
  4 28  1  0  0  0  0
  5  4  2  0  0  0  0
  6  5  1  0  0  0  0
  7  8  2  0  0  0  0
  7  5  1  0  0  0  0
  8  2  1  0  0  0  0
  9  8  1  0  0  0  0
 10  9  2  0  0  0  0
 11 12  1  0  0  0  0
 11  9  1  0  0  0  0
 12 30  1  0  0  0  0
 13 31  1  0  0  0  0
 13 12  2  0  0  0  0
 14 13  1  0  0  0  0
 15 14  2  0  0  0  0
 15 16  1  0  0  0  0
 16 11  2  0  0  0  0
 17 36  1  0  0  0  0
 18 17  1  0  0  0  0
 18 19  2  0  0  0  0
 20 18  1  0  0  0  0
 21 20  1  0  0  0  0
 21 22  2  0  0  0  0
 22 38  1  0  0  0  0
 23 22  1  0  0  0  0
 23 39  1  0  0  0  0
 24 23  2  0  0  0  0
 25 26  2  0  0  0  0
 25 24  1  0  0  0  0
 26 21  1  0  0  0  0
 29  7  1  0  0  0  0
 32 14  1  0  0  0  0
 33 15  1  0  0  0  0
 34 16  1  0  0  0  0
 35 17  1  0  0  0  0
 37 20  1  0  0  0  0
 40 24  1  0  0  0  0
 41 25  1  0  0  0  0
 42 26  1  0  0  0  0
M  END
$$$$
