rmsd168.gzmat
 OpenBabel08211713413D

 42 44  0  0  0  0  0  0  0  0999 V2000
    0.0000    0.0000    0.0000 O   0  0  0  0  0  0  0  0  0  0  0  0
    1.3641    0.0000    0.0000 C   0  0  0  0  0  0  0  0  0  0  0  0
    2.1776    0.0000    1.1321 C   0  0  0  0  0  0  0  0  0  0  0  0
    3.5533    0.1296    0.9685 C   0  0  0  0  0  0  0  0  0  0  0  0
    4.0678    0.2622   -0.3220 C   0  0  0  0  0  0  0  0  0  0  0  0
    5.3769    0.4019   -0.4691 F   0  0  0  0  0  0  0  0  0  0  0  0
    3.2680    0.2475   -1.4653 C   0  0  0  0  0  0  0  0  0  0  0  0
    1.8975    0.0961   -1.2942 C   0  0  0  0  0  0  0  0  0  0  0  0
    0.9848   -0.0360   -2.4595 C   0  0  0  0  0  0  0  0  0  0  0  0
    0.4341   -1.0927   -2.6804 O   0  0  0  0  0  0  0  0  0  0  0  0
    0.7615    1.1369   -3.3273 C   0  0  0  0  0  0  0  0  0  0  0  0
    0.8306    2.4356   -2.8204 C   0  0  0  0  0  0  0  0  0  0  0  0
    0.5012    3.5115   -3.6411 C   0  0  0  0  0  0  0  0  0  0  0  0
    0.1317    3.2908   -4.9692 C   0  0  0  0  0  0  0  0  0  0  0  0
    0.0923    1.9944   -5.4821 C   0  0  0  0  0  0  0  0  0  0  0  0
    0.3948    0.9143   -4.6576 C   0  0  0  0  0  0  0  0  0  0  0  0
   -0.6756   -0.6066    1.0828 C   0  0  0  0  0  0  0  0  0  0  0  0
   -0.7039   -2.1338    0.9789 C   0  0  0  0  0  0  0  0  0  0  0  0
   -1.0481   -2.7807    1.9461 O   0  0  0  0  0  0  0  0  0  0  0  0
   -0.3671   -2.6677   -0.2444 N   0  0  0  0  0  0  0  0  0  0  0  0
   -0.3525   -4.0460   -0.5650 C   0  0  0  0  0  0  0  0  0  0  0  0
   -0.6377   -5.0545    0.3603 C   0  0  0  0  0  0  0  0  0  0  0  0
   -0.5895   -6.3853   -0.0464 C   0  0  0  0  0  0  0  0  0  0  0  0
   -0.2535   -6.7194   -1.3554 C   0  0  0  0  0  0  0  0  0  0  0  0
    0.0190   -5.7095   -2.2790 C   0  0  0  0  0  0  0  0  0  0  0  0
   -0.0292   -4.3760   -1.8958 C   0  0  0  0  0  0  0  0  0  0  0  0
    1.7554   -0.1033    2.1300 H   0  0  0  0  0  0  0  0  0  0  0  0
    4.2143    0.1297    1.8360 H   0  0  0  0  0  0  0  0  0  0  0  0
    3.7016    0.3420   -2.4630 H   0  0  0  0  0  0  0  0  0  0  0  0
    1.1277    2.6111   -1.7853 H   0  0  0  0  0  0  0  0  0  0  0  0
    0.5247    4.5240   -3.2410 H   0  0  0  0  0  0  0  0  0  0  0  0
   -0.1327    4.1327   -5.6080 H   0  0  0  0  0  0  0  0  0  0  0  0
   -0.1911    1.8248   -6.5209 H   0  0  0  0  0  0  0  0  0  0  0  0
    0.3308   -0.1107   -5.0348 H   0  0  0  0  0  0  0  0  0  0  0  0
   -1.7042   -0.1989    0.9577 H   0  0  0  0  0  0  0  0  0  0  0  0
   -0.2814   -0.2867    2.0630 H   0  0  0  0  0  0  0  0  0  0  0  0
   -0.0920   -2.0310   -1.0052 H   0  0  0  0  0  0  0  0  0  0  0  0
   -0.8999   -4.8124    1.3920 H   0  0  0  0  0  0  0  0  0  0  0  0
   -0.8170   -7.1716    0.6740 H   0  0  0  0  0  0  0  0  0  0  0  0
   -0.2031   -7.7622   -1.6545 H   0  0  0  0  0  0  0  0  0  0  0  0
    0.2710   -5.9683   -3.3064 H   0  0  0  0  0  0  0  0  0  0  0  0
    0.1774   -3.5894   -2.6209 H   0  0  0  0  0  0  0  0  0  0  0  0
  1  2  1  0  0  0  0
  1 17  1  0  0  0  0
  2  3  2  0  0  0  0
  3 27  1  0  0  0  0
  4  3  1  0  0  0  0
  4 28  1  0  0  0  0
  5  4  2  0  0  0  0
  6  5  1  0  0  0  0
  7  8  2  0  0  0  0
  7  5  1  0  0  0  0
  8  2  1  0  0  0  0
  9  8  1  0  0  0  0
 10  9  2  0  0  0  0
 11 12  1  0  0  0  0
 11  9  1  0  0  0  0
 12 30  1  0  0  0  0
 13 31  1  0  0  0  0
 13 12  2  0  0  0  0
 14 13  1  0  0  0  0
 15 14  2  0  0  0  0
 15 16  1  0  0  0  0
 16 11  2  0  0  0  0
 17 36  1  0  0  0  0
 18 17  1  0  0  0  0
 18 19  2  0  0  0  0
 20 18  1  0  0  0  0
 21 20  1  0  0  0  0
 21 22  2  0  0  0  0
 22 38  1  0  0  0  0
 23 22  1  0  0  0  0
 23 39  1  0  0  0  0
 24 23  2  0  0  0  0
 25 26  2  0  0  0  0
 25 24  1  0  0  0  0
 26 21  1  0  0  0  0
 29  7  1  0  0  0  0
 32 14  1  0  0  0  0
 33 15  1  0  0  0  0
 34 16  1  0  0  0  0
 35 17  1  0  0  0  0
 37 20  1  0  0  0  0
 40 24  1  0  0  0  0
 41 25  1  0  0  0  0
 42 26  1  0  0  0  0
M  END
$$$$
