rmsd37.gzmat
 OpenBabel08211713413D

 42 44  0  0  0  0  0  0  0  0999 V2000
    0.0000    0.0000    0.0000 O   0  0  0  0  0  0  0  0  0  0  0  0
    1.3650    0.0000    0.0000 C   0  0  0  0  0  0  0  0  0  0  0  0
    2.1643    0.0000    1.1458 C   0  0  0  0  0  0  0  0  0  0  0  0
    3.5430   -0.1097    1.0072 C   0  0  0  0  0  0  0  0  0  0  0  0
    4.0816   -0.2204   -0.2769 C   0  0  0  0  0  0  0  0  0  0  0  0
    5.3946   -0.3398   -0.4049 F   0  0  0  0  0  0  0  0  0  0  0  0
    3.2994   -0.2081   -1.4293 C   0  0  0  0  0  0  0  0  0  0  0  0
    1.9199   -0.0846   -1.2849 C   0  0  0  0  0  0  0  0  0  0  0  0
    1.0469    0.0113   -2.4818 C   0  0  0  0  0  0  0  0  0  0  0  0
    0.3028    0.9538   -2.6349 O   0  0  0  0  0  0  0  0  0  0  0  0
    1.1478   -1.0624   -3.4929 C   0  0  0  0  0  0  0  0  0  0  0  0
    0.9013   -0.7465   -4.8304 C   0  0  0  0  0  0  0  0  0  0  0  0
    0.9864   -1.7423   -5.8008 C   0  0  0  0  0  0  0  0  0  0  0  0
    1.2928   -3.0507   -5.4301 C   0  0  0  0  0  0  0  0  0  0  0  0
    1.5268   -3.3663   -4.0913 C   0  0  0  0  0  0  0  0  0  0  0  0
    1.4588   -2.3713   -3.1201 C   0  0  0  0  0  0  0  0  0  0  0  0
   -0.6522    0.6621    1.0686 C   0  0  0  0  0  0  0  0  0  0  0  0
   -0.4670    2.1803    1.0065 C   0  0  0  0  0  0  0  0  0  0  0  0
   -0.5715    2.8427    2.0153 O   0  0  0  0  0  0  0  0  0  0  0  0
   -0.2122    2.6895   -0.2473 N   0  0  0  0  0  0  0  0  0  0  0  0
    0.0115    4.0527   -0.5507 C   0  0  0  0  0  0  0  0  0  0  0  0
    0.0507    5.0637    0.4158 C   0  0  0  0  0  0  0  0  0  0  0  0
    0.2875    6.3771    0.0165 C   0  0  0  0  0  0  0  0  0  0  0  0
    0.4732    6.6911   -1.3273 C   0  0  0  0  0  0  0  0  0  0  0  0
    0.4249    5.6805   -2.2883 C   0  0  0  0  0  0  0  0  0  0  0  0
    0.2019    4.3634   -1.9112 C   0  0  0  0  0  0  0  0  0  0  0  0
    1.7228    0.0903    2.1367 H   0  0  0  0  0  0  0  0  0  0  0  0
    4.1894   -0.1072    1.8862 H   0  0  0  0  0  0  0  0  0  0  0  0
    3.7506   -0.2829   -2.4209 H   0  0  0  0  0  0  0  0  0  0  0  0
    0.6395    0.2777   -5.1064 H   0  0  0  0  0  0  0  0  0  0  0  0
    0.8103   -1.4985   -6.8467 H   0  0  0  0  0  0  0  0  0  0  0  0
    1.3479   -3.8313   -6.1880 H   0  0  0  0  0  0  0  0  0  0  0  0
    1.7649   -4.3897   -3.8072 H   0  0  0  0  0  0  0  0  0  0  0  0
    1.6410   -2.6152   -2.0728 H   0  0  0  0  0  0  0  0  0  0  0  0
   -0.3427    0.2654    2.0513 H   0  0  0  0  0  0  0  0  0  0  0  0
   -1.7160    0.3917    0.8908 H   0  0  0  0  0  0  0  0  0  0  0  0
   -0.1287    2.0356   -1.0412 H   0  0  0  0  0  0  0  0  0  0  0  0
   -0.1046    4.8393    1.4724 H   0  0  0  0  0  0  0  0  0  0  0  0
    0.3259    7.1651    0.7678 H   0  0  0  0  0  0  0  0  0  0  0  0
    0.6530    7.7191   -1.6284 H   0  0  0  0  0  0  0  0  0  0  0  0
    0.5614    5.9263   -3.3401 H   0  0  0  0  0  0  0  0  0  0  0  0
    0.1690    3.5748   -2.6629 H   0  0  0  0  0  0  0  0  0  0  0  0
  1  2  1  0  0  0  0
  1 17  1  0  0  0  0
  2  3  2  0  0  0  0
  3 27  1  0  0  0  0
  4  3  1  0  0  0  0
  4 28  1  0  0  0  0
  5  4  2  0  0  0  0
  6  5  1  0  0  0  0
  7  8  2  0  0  0  0
  7  5  1  0  0  0  0
  8  2  1  0  0  0  0
  9  8  1  0  0  0  0
 10  9  2  0  0  0  0
 11 16  1  0  0  0  0
 11  9  1  0  0  0  0
 12 11  2  0  0  0  0
 13 14  2  0  0  0  0
 13 12  1  0  0  0  0
 14 15  1  0  0  0  0
 15 33  1  0  0  0  0
 15 16  2  0  0  0  0
 16 34  1  0  0  0  0
 17 35  1  0  0  0  0
 18 17  1  0  0  0  0
 18 19  2  0  0  0  0
 20 18  1  0  0  0  0
 21 20  1  0  0  0  0
 21 22  2  0  0  0  0
 22 38  1  0  0  0  0
 23 22  1  0  0  0  0
 23 39  1  0  0  0  0
 24 23  2  0  0  0  0
 25 26  2  0  0  0  0
 25 24  1  0  0  0  0
 26 21  1  0  0  0  0
 29  7  1  0  0  0  0
 30 12  1  0  0  0  0
 31 13  1  0  0  0  0
 32 14  1  0  0  0  0
 36 17  1  0  0  0  0
 37 20  1  0  0  0  0
 40 24  1  0  0  0  0
 41 25  1  0  0  0  0
 42 26  1  0  0  0  0
M  END
$$$$
