rmsd146.gzmat
 OpenBabel08211713413D

 42 44  0  0  0  0  0  0  0  0999 V2000
    0.0000    0.0000    0.0000 O   0  0  0  0  0  0  0  0  0  0  0  0
    1.3658    0.0000    0.0000 C   0  0  0  0  0  0  0  0  0  0  0  0
    2.1642    0.0000    1.1458 C   0  0  0  0  0  0  0  0  0  0  0  0
    3.5447    0.0816    1.0052 C   0  0  0  0  0  0  0  0  0  0  0  0
    4.0847    0.1695   -0.2801 C   0  0  0  0  0  0  0  0  0  0  0  0
    5.4001    0.2552   -0.4094 F   0  0  0  0  0  0  0  0  0  0  0  0
    3.3021    0.1610   -1.4329 C   0  0  0  0  0  0  0  0  0  0  0  0
    1.9215    0.0612   -1.2856 C   0  0  0  0  0  0  0  0  0  0  0  0
    1.0382   -0.0620   -2.4733 C   0  0  0  0  0  0  0  0  0  0  0  0
    0.3143   -1.0262   -2.5950 O   0  0  0  0  0  0  0  0  0  0  0  0
    1.0920    0.9941   -3.5048 C   0  0  0  0  0  0  0  0  0  0  0  0
    1.5567    2.2772   -3.2096 C   0  0  0  0  0  0  0  0  0  0  0  0
    1.5831    3.2481   -4.2069 C   0  0  0  0  0  0  0  0  0  0  0  0
    1.1453    2.9385   -5.4947 C   0  0  0  0  0  0  0  0  0  0  0  0
    0.6731    1.6599   -5.7868 C   0  0  0  0  0  0  0  0  0  0  0  0
    0.6434    0.6866   -4.7912 C   0  0  0  0  0  0  0  0  0  0  0  0
   -0.6479   -0.6610    1.0728 C   0  0  0  0  0  0  0  0  0  0  0  0
   -0.3484   -2.1614    1.0980 C   0  0  0  0  0  0  0  0  0  0  0  0
   -0.4162   -2.7761    2.1396 O   0  0  0  0  0  0  0  0  0  0  0  0
   -0.0194   -2.7116   -0.1215 N   0  0  0  0  0  0  0  0  0  0  0  0
    0.3812   -4.0506   -0.3358 C   0  0  0  0  0  0  0  0  0  0  0  0
    0.7037   -4.3985   -1.6617 C   0  0  0  0  0  0  0  0  0  0  0  0
    1.1144   -5.6925   -1.9502 C   0  0  0  0  0  0  0  0  0  0  0  0
    1.2038   -6.6468   -0.9363 C   0  0  0  0  0  0  0  0  0  0  0  0
    0.8813   -6.2977    0.3730 C   0  0  0  0  0  0  0  0  0  0  0  0
    0.4731   -5.0031    0.6854 C   0  0  0  0  0  0  0  0  0  0  0  0
    1.7204   -0.0759    2.1371 H   0  0  0  0  0  0  0  0  0  0  0  0
    4.1903    0.0709    1.8847 H   0  0  0  0  0  0  0  0  0  0  0  0
    3.7536    0.2128   -2.4258 H   0  0  0  0  0  0  0  0  0  0  0  0
    1.8930    2.5219   -2.2010 H   0  0  0  0  0  0  0  0  0  0  0  0
    1.9464    4.2494   -3.9817 H   0  0  0  0  0  0  0  0  0  0  0  0
    1.1711    3.6993   -6.2742 H   0  0  0  0  0  0  0  0  0  0  0  0
    0.3257    1.4214   -6.7903 H   0  0  0  0  0  0  0  0  0  0  0  0
    0.2676   -0.3171   -5.0068 H   0  0  0  0  0  0  0  0  0  0  0  0
   -1.7192   -0.4764    0.8406 H   0  0  0  0  0  0  0  0  0  0  0  0
   -0.4042   -0.1931    2.0433 H   0  0  0  0  0  0  0  0  0  0  0  0
    0.0034   -2.0988   -0.9524 H   0  0  0  0  0  0  0  0  0  0  0  0
    0.6332   -3.6550   -2.4552 H   0  0  0  0  0  0  0  0  0  0  0  0
    1.3694   -5.9626   -2.9737 H   0  0  0  0  0  0  0  0  0  0  0  0
    1.5252   -7.6580   -1.1688 H   0  0  0  0  0  0  0  0  0  0  0  0
    0.9477   -7.0420    1.1660 H   0  0  0  0  0  0  0  0  0  0  0  0
    0.2304   -4.7467    1.7181 H   0  0  0  0  0  0  0  0  0  0  0  0
  1  2  1  0  0  0  0
  1 17  1  0  0  0  0
  2  3  2  0  0  0  0
  3 27  1  0  0  0  0
  4  3  1  0  0  0  0
  4 28  1  0  0  0  0
  5  4  2  0  0  0  0
  6  5  1  0  0  0  0
  7  8  2  0  0  0  0
  7  5  1  0  0  0  0
  8  2  1  0  0  0  0
  9  8  1  0  0  0  0
 10  9  2  0  0  0  0
 11 12  1  0  0  0  0
 11  9  1  0  0  0  0
 12 30  1  0  0  0  0
 13 31  1  0  0  0  0
 13 12  2  0  0  0  0
 14 13  1  0  0  0  0
 15 14  2  0  0  0  0
 15 16  1  0  0  0  0
 16 11  2  0  0  0  0
 17 18  1  0  0  0  0
 17 36  1  0  0  0  0
 18 19  2  0  0  0  0
 20 18  1  0  0  0  0
 21 20  1  0  0  0  0
 21 26  2  0  0  0  0
 22 21  1  0  0  0  0
 23 22  2  0  0  0  0
 23 24  1  0  0  0  0
 24 25  2  0  0  0  0
 25 26  1  0  0  0  0
 25 41  1  0  0  0  0
 26 42  1  0  0  0  0
 29  7  1  0  0  0  0
 32 14  1  0  0  0  0
 33 15  1  0  0  0  0
 34 16  1  0  0  0  0
 35 17  1  0  0  0  0
 37 20  1  0  0  0  0
 38 22  1  0  0  0  0
 39 23  1  0  0  0  0
 40 24  1  0  0  0  0
M  END
$$$$
