34
rmsd47.gzmat
C          0.00000        0.00000        0.00000
N          1.46320        0.00000        0.00000
C          2.14180        0.00000        1.19750
O          1.56280        0.10120        2.26110
C          3.63430       -0.09630        1.08490
H          4.08270        0.75410        0.55050
C          4.38290       -0.67790        2.27040
H          3.79390       -1.00700        3.13740
C          5.69700       -0.07050        2.62460
O          6.47820        0.28820        1.77730
C          4.29120       -1.45960        0.96520
H          5.22290       -1.49670        0.36750
C          3.47810       -2.68570        0.83810
C          3.72410       -3.53130       -0.25100
C          2.97460       -4.68460       -0.43610
C          1.96020       -4.98810        0.48320
C          1.70400       -4.16140        1.58230
C          2.46840       -3.01170        1.74790
O          1.11650       -6.01740        0.14580
P          1.13630       -7.46290        0.83740
O          0.30120       -8.33980        0.04490
O          2.65060       -7.91100        0.97080
O          0.76900       -7.17450        2.36630
H         -0.37930        0.55770       -0.87170
H         -0.38870        0.48820        0.91650
H         -0.40060       -1.02890       -0.02500
H          1.92350       -0.19890       -0.87060
H          5.92860        0.03950        3.69090
H          4.51170       -3.28510       -0.96300
H          3.15770       -5.34260       -1.28430
H          0.91470       -4.40050        2.29270
H          2.25830       -2.35390        2.59530
H          3.05670       -7.48490        1.81760
H         -0.24130       -7.21210        2.49250
