
     RDKit          3D

 34 35  0  0  0  0  0  0  0  0999 V2000
    0.0205    1.0845    0.1006 C   0  0  0  0  0  0  0  0  0  0  0  0
    1.4393    0.8030    0.1470 N   0  0  0  0  0  0  0  0  0  0  0  0
    2.0143    0.0691    1.1405 C   0  0  0  0  0  0  0  0  0  0  0  0
    1.3826   -0.4049    2.0747 O   0  0  0  0  0  0  0  0  0  0  0  0
    3.4971   -0.1168    0.9787 C   0  0  1  0  0  0  0  0  0  0  0  0
    4.0275    0.6424    0.3955 H   0  0  0  0  0  0  0  0  0  0  0  0
    4.2719   -0.6733    2.1547 C   0  0  2  0  0  0  0  0  0  0  0  0
    3.6670   -0.9508    3.0203 H   0  0  0  0  0  0  0  0  0  0  0  0
    5.6210   -0.1027    2.4186 C   0  0  0  0  0  0  0  0  0  0  0  0
    6.3499    0.3201    1.5507 O   0  0  0  0  0  0  0  0  0  0  0  0
    4.1096   -1.5027    0.8945 C   0  0  1  0  0  0  0  0  0  0  0  0
    5.0147   -1.5014    0.2794 H   0  0  0  0  0  0  0  0  0  0  0  0
    3.3436   -2.7794    0.8154 C   0  0  0  0  0  0  0  0  0  0  0  0
    3.5801   -3.6157   -0.2897 C   0  0  0  0  0  0  0  0  0  0  0  0
    2.9013   -4.8231   -0.4474 C   0  0  0  0  0  0  0  0  0  0  0  0
    1.9768   -5.2147    0.5223 C   0  0  0  0  0  0  0  0  0  0  0  0
    1.7298   -4.4063    1.6347 C   0  0  0  0  0  0  0  0  0  0  0  0
    2.4093   -3.1956    1.7778 C   0  0  0  0  0  0  0  0  0  0  0  0
    1.3033   -6.4176    0.3922 O   0  0  0  0  0  0  0  0  0  0  0  0
   -0.1090   -6.5235   -0.4159 P   0  0  0  0  0  0  0  0  0  0  0  0
   -0.7697   -7.8276   -0.2715 O   0  0  0  0  0  0  0  0  0  0  0  0
   -0.9530   -5.2541    0.0939 O   0  0  0  0  0  0  0  0  0  0  0  0
    0.2994   -6.1064   -1.9324 O   0  0  0  0  0  0  0  0  0  0  0  0
   -0.1749    2.1696    0.0986 H   0  0  0  0  0  0  0  0  0  0  0  0
   -0.4344    0.6431    0.9966 H   0  0  0  0  0  0  0  0  0  0  0  0
   -0.4516    0.6415   -0.7925 H   0  0  0  0  0  0  0  0  0  0  0  0
    2.0315    1.1510   -0.5965 H   0  0  0  0  0  0  0  0  0  0  0  0
    5.9362   -0.0898    3.4921 H   0  0  0  0  0  0  0  0  0  0  0  0
    4.3108   -3.3129   -1.0439 H   0  0  0  0  0  0  0  0  0  0  0  0
    3.0750   -5.4669   -1.3099 H   0  0  0  0  0  0  0  0  0  0  0  0
    1.0067   -4.7371    2.3822 H   0  0  0  0  0  0  0  0  0  0  0  0
    2.1873   -2.5615    2.6340 H   0  0  0  0  0  0  0  0  0  0  0  0
   -0.4674   -4.4141    0.0744 H   0  0  0  0  0  0  0  0  0  0  0  0
    0.1883   -6.8653   -2.5243 H   0  0  0  0  0  0  0  0  0  0  0  0
  1  2  1  0
  1 24  1  0
  1 25  1  0
  1 26  1  0
  2  3  1  0
  2 27  1  0
  3  4  2  0
  3  5  1  0
  5  6  1  6
  5  7  1  0
  5 11  1  0
  7  8  1  1
  7  9  1  0
  7 11  1  0
  9 10  2  0
  9 28  1  0
 11 12  1  6
 11 13  1  0
 13 14  2  0
 13 18  1  0
 14 15  1  0
 14 29  1  0
 15 16  2  0
 15 30  1  0
 16 17  1  0
 16 19  1  0
 17 18  2  0
 17 31  1  0
 18 32  1  0
 20 19  1  0
 20 21  2  0
 20 22  1  0
 20 23  1  0
 22 33  1  0
 23 34  1  0
M  END

