34
rmsd146.gzmat
C          0.00000        0.00000        0.00000
N          1.46290        0.00000        0.00000
C          2.14550        0.00000        1.19280
O          1.56350        0.03620        2.26010
C          3.64030       -0.03690        1.08060
H          4.05690        0.80970        0.51550
C          4.40950       -0.53950        2.28960
H          3.82870       -0.86080        3.16590
C          5.69550        0.13280        2.62690
O          6.43130        0.56050        1.77100
C          4.35670       -1.37460        1.01600
H          5.28840       -1.39300        0.41790
C          3.59950       -2.64040        0.94310
C          3.88830       -3.52790       -0.10110
C          3.18100       -4.71460       -0.23820
C          2.16440       -5.00760        0.68180
C          1.87350       -4.14390        1.74320
C          2.59750       -2.96300        1.86230
O          1.35000       -6.07040        0.37720
P          1.38460       -7.48400        1.13020
O          0.53320       -8.39620        0.39680
O          2.90140       -7.92680        1.24990
O          1.04790       -7.12760        2.65180
H         -0.38500        1.02270       -0.16400
H         -0.39620       -0.35090        0.97470
H         -0.38880       -0.66700       -0.78620
H          1.92650       -0.08500       -0.88570
H          5.95030        0.22430        3.68970
H          4.67470       -3.28700       -0.81610
H          3.39730       -5.40520       -1.05130
H          1.08770       -4.37760        2.45920
H          2.36020       -2.27670        2.67960
H          3.33850       -7.42540        2.03820
H          0.04420       -7.20920        2.81020
