34
rmsd219.gzmat
C          0.00000        0.00000        0.00000
N          1.46300        0.00000        0.00000
C          2.15170        0.00000        1.19190
O          1.58820        0.11170        2.26180
C          3.64630       -0.09290        1.06880
H          4.10460        0.86380        0.77860
C          4.36210       -0.97130        2.07790
H          3.74950       -1.49770        2.82160
C          5.67300       -0.49280        2.60440
O          6.50920       -0.01370        1.87860
C          4.29560       -1.38630        0.61420
H          5.24370       -1.29380        0.04930
C          3.45200       -2.50060        0.13640
C          3.41980       -2.75460       -1.23970
C          2.60340       -3.75160       -1.75810
C          1.81330       -4.50200       -0.87770
C          1.84790       -4.27670        0.50430
C          2.66870       -3.27100        1.00020
O          0.84190       -5.33850       -1.36870
P          1.10390       -6.86010       -1.79960
O         -0.14740       -7.40300       -2.28270
O          2.28540       -6.84250       -2.85630
O          1.83410       -7.51810       -0.53980
H         -0.37620        0.72840       -0.73790
H         -0.39370        0.28790        0.99560
H         -0.39990       -1.00020       -0.24160
H          1.91920       -0.21540       -0.87030
H          5.84750       -0.59170        3.68260
H          4.04000       -2.16420       -1.91420
H          2.56650       -3.93460       -2.83050
H          1.23160       -4.87100        1.17570
H          2.68760       -3.08170        2.07400
H          3.18650       -6.81180       -2.35610
H          1.14430       -7.94460        0.07770
