34
rmsd112.gzmat
C          0.00000        0.00000        0.00000
N          1.46320        0.00000        0.00000
C          2.14540        0.00000        1.19590
O          1.57220        0.11300        2.26110
C          3.63780       -0.11040        1.07830
H          4.09720        0.76750        0.60060
C          4.37750       -0.78160        2.22120
H          3.78580       -1.15810        3.06620
C          5.70280       -0.21980        2.61030
O          6.50110        0.14820        1.78350
C          4.27440       -1.47240        0.86720
H          5.20710       -1.48670        0.27010
C          3.43190       -2.66540        0.64940
C          3.63910       -3.41610       -0.51340
C          2.83940       -4.51460       -0.80200
C          1.82120       -4.86240        0.09460
C          1.61170       -4.13720        1.27490
C          2.42000       -3.03890        1.53920
O          0.88100       -5.79530       -0.26230
P          1.05260       -7.37730       -0.06580
O         -0.10430       -8.01350       -0.65640
O          2.44470       -7.78830       -0.70260
O          1.37090       -7.56460        1.48820
H         -0.38870        0.50250        0.90840
H         -0.40260       -1.02880       -0.00830
H         -0.37740        0.54410       -0.88130
H          1.92110       -0.21190       -0.86870
H          5.92620       -0.15260        3.68180
H          4.43260       -3.13530       -1.20590
H          2.98990       -5.08280       -1.71850
H          0.81870       -4.41880        1.96360
H          2.24510       -2.45700        2.44720
H          3.19400       -7.62430       -0.01330
H          0.50480       -7.54850        2.02510
