rmsd177.gzmat
 OpenBabel08211713423D

 34 35  0  0  1  0  0  0  0  0999 V2000
    0.0000    0.0000    0.0000 C   0  0  0  0  0  0  0  0  0  0  0  0
    1.4627    0.0000    0.0000 N   0  0  0  0  0  0  0  0  0  0  0  0
    2.1472    0.0000    1.1942 C   0  0  0  0  0  0  0  0  0  0  0  0
    1.5683    0.0742    2.2603 O   0  0  0  0  0  0  0  0  0  0  0  0
    3.6409   -0.0711    1.0812 C   0  0  1  0  0  0  0  0  0  0  0  0
    4.0790    0.7873    0.5524 H   0  0  0  0  0  0  0  0  0  0  0  0
    4.3892   -0.6518    2.2682 C   0  0  2  0  0  0  0  0  0  0  0  0
    3.7977   -0.9890    3.1310 H   0  0  0  0  0  0  0  0  0  0  0  0
    5.6968   -0.0355    2.6336 C   0  0  0  0  0  0  0  0  0  0  0  0
    6.4640    0.3647    1.7925 O   0  0  0  0  0  0  0  0  0  0  0  0
    4.3137   -1.4274    0.9597 C   0  0  1  0  0  0  0  0  0  0  0  0
    5.2501   -1.4582    0.3699 H   0  0  0  0  0  0  0  0  0  0  0  0
    3.4926   -2.6453    0.8065 C   0  0  0  0  0  0  0  0  0  0  0  0
    3.6807   -3.4292   -0.3388 C   0  0  0  0  0  0  0  0  0  0  0  0
    2.8770   -4.5353   -0.5803 C   0  0  0  0  0  0  0  0  0  0  0  0
    1.8825   -4.8636    0.3508 C   0  0  0  0  0  0  0  0  0  0  0  0
    1.7046   -4.1157    1.5205 C   0  0  0  0  0  0  0  0  0  0  0  0
    2.5153   -3.0078    1.7374 C   0  0  0  0  0  0  0  0  0  0  0  0
    1.1993   -6.0452    0.1789 O   0  0  0  0  0  0  0  0  0  0  0  0
   -0.2743   -6.1093   -0.4544 P   0  0  0  0  0  0  0  0  0  0  0  0
   -0.6828   -7.4959   -0.5170 O   0  0  0  0  0  0  0  0  0  0  0  0
   -1.2050   -5.1795    0.4296 O   0  0  0  0  0  0  0  0  0  0  0  0
   -0.1619   -5.2410   -1.7927 O   0  0  0  0  0  0  0  0  0  0  0  0
   -0.3804    0.6971   -0.7659 H   0  0  0  0  0  0  0  0  0  0  0  0
   -0.3912    0.3288    0.9851 H   0  0  0  0  0  0  0  0  0  0  0  0
   -0.3984   -1.0102   -0.1973 H   0  0  0  0  0  0  0  0  0  0  0  0
    1.9230   -0.1596   -0.8782 H   0  0  0  0  0  0  0  0  0  0  0  0
    5.9354    0.0405    3.7014 H   0  0  0  0  0  0  0  0  0  0  0  0
    4.4593   -3.1658   -1.0540 H   0  0  0  0  0  0  0  0  0  0  0  0
    3.0169   -5.1413   -1.4722 H   0  0  0  0  0  0  0  0  0  0  0  0
    0.9533   -4.3995    2.2562 H   0  0  0  0  0  0  0  0  0  0  0  0
    2.3653   -2.4085    2.6389 H   0  0  0  0  0  0  0  0  0  0  0  0
   -0.9775   -4.1928    0.2394 H   0  0  0  0  0  0  0  0  0  0  0  0
   -0.0084   -5.8536   -2.5914 H   0  0  0  0  0  0  0  0  0  0  0  0
  1  2  1  0  0  0  0
  1 25  1  0  0  0  0
  2  3  1  0  0  0  0
  3  4  2  0  0  0  0
  5 11  1  0  0  0  0
  5  3  1  0  0  0  0
  5  7  1  0  0  0  0
  5  6  1  6  0  0  0
  7 11  1  0  0  0  0
  7  9  1  0  0  0  0
  7  8  1  1  0  0  0
  9 28  1  0  0  0  0
 10  9  2  0  0  0  0
 11 12  1  6  0  0  0
 13 11  1  0  0  0  0
 13 18  2  0  0  0  0
 14 13  1  0  0  0  0
 15 14  2  0  0  0  0
 15 16  1  0  0  0  0
 16 17  2  0  0  0  0
 17 18  1  0  0  0  0
 17 31  1  0  0  0  0
 18 32  1  0  0  0  0
 19 16  1  0  0  0  0
 20 19  1  0  0  0  0
 20 22  1  0  0  0  0
 21 20  2  0  0  0  0
 23 20  1  0  0  0  0
 24  1  1  0  0  0  0
 26  1  1  0  0  0  0
 27  2  1  0  0  0  0
 29 14  1  0  0  0  0
 30 15  1  0  0  0  0
 33 22  1  0  0  0  0
 34 23  1  0  0  0  0
M  END
$$$$
