rmsd219.gzmat
 OpenBabel08211713423D

 34 35  0  0  1  0  0  0  0  0999 V2000
    0.0000    0.0000    0.0000 C   0  0  0  0  0  0  0  0  0  0  0  0
    1.4630    0.0000    0.0000 N   0  0  0  0  0  0  0  0  0  0  0  0
    2.1517    0.0000    1.1919 C   0  0  0  0  0  0  0  0  0  0  0  0
    1.5882    0.1117    2.2618 O   0  0  0  0  0  0  0  0  0  0  0  0
    3.6463   -0.0929    1.0688 C   0  0  1  0  0  0  0  0  0  0  0  0
    4.1046    0.8638    0.7786 H   0  0  0  0  0  0  0  0  0  0  0  0
    4.3621   -0.9713    2.0779 C   0  0  2  0  0  0  0  0  0  0  0  0
    3.7495   -1.4977    2.8216 H   0  0  0  0  0  0  0  0  0  0  0  0
    5.6730   -0.4928    2.6044 C   0  0  0  0  0  0  0  0  0  0  0  0
    6.5092   -0.0137    1.8786 O   0  0  0  0  0  0  0  0  0  0  0  0
    4.2956   -1.3863    0.6142 C   0  0  1  0  0  0  0  0  0  0  0  0
    5.2437   -1.2938    0.0493 H   0  0  0  0  0  0  0  0  0  0  0  0
    3.4520   -2.5006    0.1364 C   0  0  0  0  0  0  0  0  0  0  0  0
    3.4198   -2.7546   -1.2397 C   0  0  0  0  0  0  0  0  0  0  0  0
    2.6034   -3.7516   -1.7581 C   0  0  0  0  0  0  0  0  0  0  0  0
    1.8133   -4.5020   -0.8777 C   0  0  0  0  0  0  0  0  0  0  0  0
    1.8479   -4.2767    0.5043 C   0  0  0  0  0  0  0  0  0  0  0  0
    2.6687   -3.2710    1.0002 C   0  0  0  0  0  0  0  0  0  0  0  0
    0.8419   -5.3385   -1.3687 O   0  0  0  0  0  0  0  0  0  0  0  0
    1.1039   -6.8601   -1.7996 P   0  0  0  0  0  0  0  0  0  0  0  0
   -0.1474   -7.4030   -2.2827 O   0  0  0  0  0  0  0  0  0  0  0  0
    2.2854   -6.8425   -2.8563 O   0  0  0  0  0  0  0  0  0  0  0  0
    1.8341   -7.5181   -0.5398 O   0  0  0  0  0  0  0  0  0  0  0  0
   -0.3762    0.7284   -0.7379 H   0  0  0  0  0  0  0  0  0  0  0  0
   -0.3937    0.2879    0.9956 H   0  0  0  0  0  0  0  0  0  0  0  0
   -0.3999   -1.0002   -0.2416 H   0  0  0  0  0  0  0  0  0  0  0  0
    1.9192   -0.2154   -0.8703 H   0  0  0  0  0  0  0  0  0  0  0  0
    5.8475   -0.5917    3.6826 H   0  0  0  0  0  0  0  0  0  0  0  0
    4.0400   -2.1642   -1.9142 H   0  0  0  0  0  0  0  0  0  0  0  0
    2.5665   -3.9346   -2.8305 H   0  0  0  0  0  0  0  0  0  0  0  0
    1.2316   -4.8710    1.1757 H   0  0  0  0  0  0  0  0  0  0  0  0
    2.6876   -3.0817    2.0740 H   0  0  0  0  0  0  0  0  0  0  0  0
    3.1865   -6.8118   -2.3561 H   0  0  0  0  0  0  0  0  0  0  0  0
    1.1443   -7.9446    0.0777 H   0  0  0  0  0  0  0  0  0  0  0  0
  1  2  1  0  0  0  0
  1 25  1  0  0  0  0
  2  3  1  0  0  0  0
  3  4  2  0  0  0  0
  5 11  1  0  0  0  0
  5  3  1  0  0  0  0
  5  7  1  0  0  0  0
  5  6  1  6  0  0  0
  7 11  1  0  0  0  0
  7  9  1  0  0  0  0
  7  8  1  1  0  0  0
  9 28  1  0  0  0  0
 10  9  2  0  0  0  0
 11 12  1  6  0  0  0
 13 11  1  0  0  0  0
 13 18  2  0  0  0  0
 14 13  1  0  0  0  0
 15 14  2  0  0  0  0
 15 16  1  0  0  0  0
 16 17  2  0  0  0  0
 17 18  1  0  0  0  0
 17 31  1  0  0  0  0
 18 32  1  0  0  0  0
 19 16  1  0  0  0  0
 20 19  1  0  0  0  0
 20 23  1  0  0  0  0
 21 20  2  0  0  0  0
 22 33  1  0  0  0  0
 22 20  1  0  0  0  0
 23 34  1  0  0  0  0
 24  1  1  0  0  0  0
 26  1  1  0  0  0  0
 27  2  1  0  0  0  0
 29 14  1  0  0  0  0
 30 15  1  0  0  0  0
M  END
$$$$
