34
rmsd2.gzmat
C          0.00000        0.00000        0.00000
N          1.46310        0.00000        0.00000
C          2.15370        0.00000        1.19080
O          1.59280        0.12510        2.26010
C          3.64790       -0.11180        1.06950
H          4.11750        0.82990        0.75190
C          4.34730       -0.96740        2.10970
H          3.71810       -1.46130        2.86300
C          5.65630       -0.48660        2.63770
O          6.51590       -0.05830        1.90750
C          4.28370       -1.42720        0.66010
H          5.23080       -1.37190        0.09080
C          3.41720       -2.54260        0.22580
C          3.12050       -2.65610       -1.13720
C          2.23690       -3.62770       -1.59110
C          1.65520       -4.49610       -0.65810
C          1.98360       -4.43130        0.70250
C          2.86530       -3.44810        1.13450
O          0.59690       -5.29220       -1.01620
P          0.72980       -6.73540       -1.69690
O         -0.60800       -7.25610       -1.88040
O          1.56780       -6.54010       -3.02800
O          1.78430       -7.52060       -0.78860
H         -0.37700        0.79890       -0.66090
H         -0.39620        0.18760        1.01820
H         -0.39810       -0.97150       -0.34120
H          1.91710       -0.22330       -0.86900
H          5.80710       -0.53460        3.72320
H          3.58240       -1.97370       -1.85010
H          1.98550       -3.69620       -2.64800
H          1.53830       -5.12740        1.40980
H          3.11800       -3.38380        2.19270
H          2.57320       -6.56200       -2.80190
H          1.29480       -8.08030       -0.09160
