rmsd19.gzmat
 OpenBabel08211713423D

 34 35  0  0  1  0  0  0  0  0999 V2000
    0.0000    0.0000    0.0000 C   0  0  0  0  0  0  0  0  0  0  0  0
    1.4630    0.0000    0.0000 N   0  0  0  0  0  0  0  0  0  0  0  0
    2.1427    0.0000    1.1971 C   0  0  0  0  0  0  0  0  0  0  0  0
    1.5588    0.0818    2.2601 O   0  0  0  0  0  0  0  0  0  0  0  0
    3.6356   -0.0831    1.0912 C   0  0  1  0  0  0  0  0  0  0  0  0
    4.0786    0.7446    0.5187 H   0  0  0  0  0  0  0  0  0  0  0  0
    4.3831   -0.5992    2.3082 C   0  0  2  0  0  0  0  0  0  0  0  0
    3.7901   -0.8949    3.1852 H   0  0  0  0  0  0  0  0  0  0  0  0
    5.6881    0.0392    2.6421 C   0  0  0  0  0  0  0  0  0  0  0  0
    6.4572    0.3925    1.7817 O   0  0  0  0  0  0  0  0  0  0  0  0
    4.3109   -1.4428    1.0420 C   0  0  1  0  0  0  0  0  0  0  0  0
    5.2466   -1.4946    0.4512 H   0  0  0  0  0  0  0  0  0  0  0  0
    3.5144   -2.6838    0.9657 C   0  0  0  0  0  0  0  0  0  0  0  0
    3.7914   -3.5817   -0.0707 C   0  0  0  0  0  0  0  0  0  0  0  0
    3.0405   -4.7405   -0.2312 C   0  0  0  0  0  0  0  0  0  0  0  0
    1.9993   -4.9972    0.6673 C   0  0  0  0  0  0  0  0  0  0  0  0
    1.7180   -4.1197    1.7245 C   0  0  0  0  0  0  0  0  0  0  0  0
    2.4859   -2.9726    1.8697 C   0  0  0  0  0  0  0  0  0  0  0  0
    1.3048   -6.1823    0.6906 O   0  0  0  0  0  0  0  0  0  0  0  0
    0.2545   -6.6300   -0.4358 P   0  0  0  0  0  0  0  0  0  0  0  0
   -0.4377   -7.8097    0.0367 O   0  0  0  0  0  0  0  0  0  0  0  0
   -0.6818   -5.3907   -0.7494 O   0  0  0  0  0  0  0  0  0  0  0  0
    1.1323   -6.6978   -1.7714 O   0  0  0  0  0  0  0  0  0  0  0  0
   -0.3828    0.6146   -0.8312 H   0  0  0  0  0  0  0  0  0  0  0  0
   -0.3895    0.4232    0.9495 H   0  0  0  0  0  0  0  0  0  0  0  0
   -0.3982   -1.0262   -0.0911 H   0  0  0  0  0  0  0  0  0  0  0  0
    1.9261   -0.1454   -0.8783 H   0  0  0  0  0  0  0  0  0  0  0  0
    5.9242    0.1762    3.7047 H   0  0  0  0  0  0  0  0  0  0  0  0
    4.6049   -3.3739   -0.7657 H   0  0  0  0  0  0  0  0  0  0  0  0
    3.2712   -5.4326   -1.0396 H   0  0  0  0  0  0  0  0  0  0  0  0
    0.9096   -4.3438    2.4196 H   0  0  0  0  0  0  0  0  0  0  0  0
    2.2647   -2.2845    2.6902 H   0  0  0  0  0  0  0  0  0  0  0  0
   -0.1498   -4.6890   -1.2829 H   0  0  0  0  0  0  0  0  0  0  0  0
    1.4318   -7.6578   -1.9371 H   0  0  0  0  0  0  0  0  0  0  0  0
  1  2  1  0  0  0  0
  1 25  1  0  0  0  0
  2  3  1  0  0  0  0
  3  4  2  0  0  0  0
  5 11  1  0  0  0  0
  5  3  1  0  0  0  0
  5  7  1  0  0  0  0
  5  6  1  6  0  0  0
  7 11  1  0  0  0  0
  7  9  1  0  0  0  0
  7  8  1  1  0  0  0
  9 28  1  0  0  0  0
 10  9  2  0  0  0  0
 11 12  1  6  0  0  0
 13 11  1  0  0  0  0
 13 18  2  0  0  0  0
 14 13  1  0  0  0  0
 15 14  2  0  0  0  0
 15 16  1  0  0  0  0
 16 19  1  0  0  0  0
 16 17  2  0  0  0  0
 17 18  1  0  0  0  0
 17 31  1  0  0  0  0
 18 32  1  0  0  0  0
 20 21  2  0  0  0  0
 20 19  1  0  0  0  0
 22 20  1  0  0  0  0
 23 20  1  0  0  0  0
 24  1  1  0  0  0  0
 26  1  1  0  0  0  0
 27  2  1  0  0  0  0
 29 14  1  0  0  0  0
 30 15  1  0  0  0  0
 33 22  1  0  0  0  0
 34 23  1  0  0  0  0
M  END
$$$$
