rmsd124.gzmat
 OpenBabel08211713423D

 34 35  0  0  1  0  0  0  0  0999 V2000
    0.0000    0.0000    0.0000 C   0  0  0  0  0  0  0  0  0  0  0  0
    1.4602    0.0000    0.0000 N   0  0  0  0  0  0  0  0  0  0  0  0
    2.2018    0.0000    1.1583 C   0  0  0  0  0  0  0  0  0  0  0  0
    3.4129    0.1060    1.0841 O   0  0  0  0  0  0  0  0  0  0  0  0
    1.4827   -0.1672    2.4596 C   0  0  1  0  0  0  0  0  0  0  0  0
    0.9095   -1.1048    2.5177 H   0  0  0  0  0  0  0  0  0  0  0  0
    2.1938    0.3211    3.7097 C   0  0  2  0  0  0  0  0  0  0  0  0
    3.1796    0.7912    3.5863 H   0  0  0  0  0  0  0  0  0  0  0  0
    2.0588   -0.4973    4.9468 C   0  0  0  0  0  0  0  0  0  0  0  0
    1.0142   -1.0229    5.2457 O   0  0  0  0  0  0  0  0  0  0  0  0
    0.9542    1.0474    3.2010 C   0  0  1  0  0  0  0  0  0  0  0  0
    0.0336    0.8857    3.7952 H   0  0  0  0  0  0  0  0  0  0  0  0
    1.0235    2.3979    2.6080 C   0  0  0  0  0  0  0  0  0  0  0  0
   -0.1608    3.1387    2.5119 C   0  0  0  0  0  0  0  0  0  0  0  0
   -0.1585    4.4109    1.9555 C   0  0  0  0  0  0  0  0  0  0  0  0
    1.0510    4.9416    1.4873 C   0  0  0  0  0  0  0  0  0  0  0  0
    2.2454    4.2168    1.5733 C   0  0  0  0  0  0  0  0  0  0  0  0
    2.2184    2.9447    2.1323 C   0  0  0  0  0  0  0  0  0  0  0  0
    1.0045    6.1090    0.7633 O   0  0  0  0  0  0  0  0  0  0  0  0
    1.3100    7.5540    1.3856 P   0  0  0  0  0  0  0  0  0  0  0  0
    1.0504    8.5402    0.3586 O   0  0  0  0  0  0  0  0  0  0  0  0
    0.4313    7.6989    2.6968 O   0  0  0  0  0  0  0  0  0  0  0  0
    2.7722    7.4156    2.0173 O   0  0  0  0  0  0  0  0  0  0  0  0
   -0.3837    0.1829   -1.0178 H   0  0  0  0  0  0  0  0  0  0  0  0
   -0.4043    0.7915    0.6599 H   0  0  0  0  0  0  0  0  0  0  0  0
   -0.3947   -0.9732    0.3446 H   0  0  0  0  0  0  0  0  0  0  0  0
    1.9319    0.1265   -0.8834 H   0  0  0  0  0  0  0  0  0  0  0  0
    2.9479   -0.6066    5.5797 H   0  0  0  0  0  0  0  0  0  0  0  0
   -1.0962    2.7168    2.8781 H   0  0  0  0  0  0  0  0  0  0  0  0
   -1.0798    4.9850    1.8716 H   0  0  0  0  0  0  0  0  0  0  0  0
    3.1791    4.6340    1.2009 H   0  0  0  0  0  0  0  0  0  0  0  0
    3.1455    2.3676    2.1839 H   0  0  0  0  0  0  0  0  0  0  0  0
    0.9255    7.2552    3.4855 H   0  0  0  0  0  0  0  0  0  0  0  0
    3.4725    7.7176    1.3422 H   0  0  0  0  0  0  0  0  0  0  0  0
  1 26  1  0  0  0  0
  1 25  1  0  0  0  0
  2  1  1  0  0  0  0
  2  3  1  0  0  0  0
  3  5  1  0  0  0  0
  4  3  2  0  0  0  0
  5  6  1  1  0  0  0
  5 11  1  0  0  0  0
  7  5  1  0  0  0  0
  7  9  1  0  0  0  0
  7  8  1  6  0  0  0
  9 10  2  0  0  0  0
  9 28  1  0  0  0  0
 11  7  1  0  0  0  0
 11 12  1  1  0  0  0
 13 11  1  0  0  0  0
 14 13  1  0  0  0  0
 14 29  1  0  0  0  0
 15 14  2  0  0  0  0
 16 17  2  0  0  0  0
 16 15  1  0  0  0  0
 17 18  1  0  0  0  0
 18 32  1  0  0  0  0
 18 13  2  0  0  0  0
 19 20  1  0  0  0  0
 19 16  1  0  0  0  0
 20 23  1  0  0  0  0
 20 22  1  0  0  0  0
 21 20  2  0  0  0  0
 22 33  1  0  0  0  0
 24  1  1  0  0  0  0
 27  2  1  0  0  0  0
 30 15  1  0  0  0  0
 31 17  1  0  0  0  0
 34 23  1  0  0  0  0
M  END
$$$$
