52

O         -0.37990       -0.17250        0.60880
C          0.98650       -0.25370        0.30980
C          1.90490       -0.06780        1.53830
H          1.38870       -0.56110        2.38490
C          3.26300       -0.74950        1.33110
C          4.17540       -0.73380        2.55750
N          2.13830        1.33300        1.87930
C          1.23200        2.20860        2.39500
N         -0.06660        1.84960        2.39810
C         -0.86530        2.79230        2.90600
N         -2.23270        2.74150        3.03810
C         -3.07240        1.63050        2.56870
C         -4.39400        1.58240        3.32980
C         -3.26580        1.70330        1.05170
C         -2.60600        3.95720        3.59180
N         -1.59110        4.75310        3.82260
C         -0.47620        4.04860        3.39730
C          0.92210        4.31920        3.33710
N          1.73620        3.37420        2.84510
N          1.50100        5.48150        3.71880
C          0.86530        6.54740        4.48320
C          1.01640        6.36950        5.98150
C          0.07930        5.61590        6.70440
C          0.24920        5.40470        8.07450
C          1.35530        5.94310        8.73940
C          2.29030        6.69970        8.02780
C          2.11860        6.91070        6.65720
H         -0.46550        0.54630        1.27700
H          1.30150        0.48410       -0.45990
H          1.17220       -1.25670       -0.11330
H          3.77070       -0.27660        0.47010
H          3.07170       -1.79290        1.03590
H          4.44310        0.28760        2.87150
H          5.11540       -1.27070        2.35700
H          3.68540       -1.21940        3.41710
H          3.09180        1.66880        1.92240
H         -2.49790        0.71890        2.79890
H         -5.03750        2.44130        3.08090
H         -4.23280        1.56910        4.41830
H         -4.94250        0.67070        3.05210
H         -3.76980        2.64180        0.77030
H         -3.88300        0.85850        0.71000
H         -2.30170        1.63900        0.52860
H         -3.64590        4.19020        3.81180
H          2.51550        5.45070        3.69690
H         -0.19630        6.57220        4.20960
H          1.32140        7.50040        4.17240
H         -0.78610        5.20550        6.17930
H         -0.48880        4.81920        8.62880
H          1.48580        5.77780        9.81170
H          3.15310        7.13020        8.54220
H          2.84940        7.50920        6.10440
