52

O         -0.01200        0.02260        0.28060
C          1.35860       -0.27020        0.22460
C          2.07590       -0.06650        1.56870
H          1.45110       -0.55510        2.34020
C          3.46160       -0.72240        1.57220
C          4.15810       -0.70760        2.93260
N          2.21950        1.34580        1.92070
C          1.26920        2.13050        2.51170
N          1.70430        3.24660        3.11460
C          0.70850        3.95780        3.64880
N          0.78470        5.15530        4.32430
C          2.01620        5.90380        4.58200
C          1.98680        7.26310        3.88110
C          2.28410        6.01560        6.08370
C         -0.51830        5.47650        4.68650
N         -1.39900        4.58740        4.29860
C         -0.65390        3.62570        3.64740
C         -1.00250        2.42490        2.98180
N         -0.01720        1.71170        2.41290
N         -2.28590        2.01030        2.93340
C         -2.80200        0.89930        2.14340
C         -3.54350        1.36670        0.90590
C         -4.86380        1.82770        1.01570
C         -5.54510        2.31700       -0.10070
C         -4.91110        2.34440       -1.34630
C         -3.59940        1.87730       -1.46580
C         -2.91520        1.39090       -0.34800
H         -0.13850        0.68350        1.00530
H          1.88220        0.34500       -0.53780
H          1.47260       -1.32710       -0.07800
H          4.09290       -0.22420        0.81330
H          3.34470       -1.76360        1.23250
H          4.32240        0.31590        3.30500
H          5.14040       -1.20210        2.88070
H          3.55380       -1.23480        3.68850
H          3.15710        1.71230        2.02900
H          2.80320        5.28470        4.12500
H          1.19870        7.91080        4.29810
H          1.79890        7.14270        2.80400
H          2.95010        7.78010        4.01000
H          1.50790        6.61620        6.58490
H          3.25440        6.50370        6.26310
H          2.30460        5.02030        6.55180
H         -0.74470        6.38810        5.23910
H         -2.95500        2.67090        3.31480
H         -3.47830        0.30610        2.78130
H         -1.95800        0.25650        1.86800
H         -5.36780        1.79850        1.98710
H         -6.57400        2.67160       -0.00020
H         -5.44190        2.72340       -2.22310
H         -3.10260        1.88690       -2.43930
H         -1.89500        1.01260       -0.45030
