
     RDKit          3D

 52 54  0  0  0  0  0  0  0  0999 V2000
    0.0267   -0.0098   -0.0082 O   0  0  0  0  0  0  0  0  0  0  0  0
    1.4352    0.0660    0.0198 C   0  0  0  0  0  0  0  0  0  0  0  0
    1.9837   -0.0336    1.4513 C   0  0  1  0  0  0  0  0  0  0  0  0
    3.0855   -0.0595    1.3879 H   0  0  0  0  0  0  0  0  0  0  0  0
    1.5461    1.1493    2.3198 C   0  0  0  0  0  0  0  0  0  0  0  0
    2.1274    1.1401    3.7325 C   0  0  0  0  0  0  0  0  0  0  0  0
    1.5393   -1.2834    2.0583 N   0  0  0  0  0  0  0  0  0  0  0  0
    2.2073   -2.4740    1.9387 C   0  0  0  0  0  0  0  0  0  0  0  0
    3.2035   -2.5449    1.0453 N   0  0  0  0  0  0  0  0  0  0  0  0
    3.7737   -3.7542    1.0167 C   0  0  0  0  0  0  0  0  0  0  0  0
    4.8224   -4.1843    0.2347 N   0  0  0  0  0  0  0  0  0  0  0  0
    5.5290   -3.3721   -0.7574 C   0  0  0  0  0  0  0  0  0  0  0  0
    7.0142   -3.2546   -0.4116 C   0  0  0  0  0  0  0  0  0  0  0  0
    5.2885   -3.9053   -2.1709 C   0  0  0  0  0  0  0  0  0  0  0  0
    5.0369   -5.5135    0.5780 C   0  0  0  0  0  0  0  0  0  0  0  0
    4.2173   -5.9493    1.5034 N   0  0  0  0  0  0  0  0  0  0  0  0
    3.4163   -4.8638    1.7933 C   0  0  0  0  0  0  0  0  0  0  0  0
    2.3458   -4.6636    2.7029 C   0  0  0  0  0  0  0  0  0  0  0  0
    1.7683   -3.4592    2.7588 N   0  0  0  0  0  0  0  0  0  0  0  0
    1.9106   -5.6740    3.4924 N   0  0  0  0  0  0  0  0  0  0  0  0
    0.9036   -5.5234    4.5273 C   0  0  0  0  0  0  0  0  0  0  0  0
    1.4811   -5.2404    5.9005 C   0  0  0  0  0  0  0  0  0  0  0  0
    2.1282   -4.0196    6.1550 C   0  0  0  0  0  0  0  0  0  0  0  0
    2.6825   -3.7616    7.4089 C   0  0  0  0  0  0  0  0  0  0  0  0
    2.5978   -4.7172    8.4281 C   0  0  0  0  0  0  0  0  0  0  0  0
    1.9548   -5.9322    8.1844 C   0  0  0  0  0  0  0  0  0  0  0  0
    1.4016   -6.1901    6.9258 C   0  0  0  0  0  0  0  0  0  0  0  0
   -0.2009   -0.8384    0.4392 H   0  0  0  0  0  0  0  0  0  0  0  0
    1.7178    1.0361   -0.4203 H   0  0  0  0  0  0  0  0  0  0  0  0
    1.9021   -0.7315   -0.5878 H   0  0  0  0  0  0  0  0  0  0  0  0
    0.4430    1.1696    2.3453 H   0  0  0  0  0  0  0  0  0  0  0  0
    1.8480    2.0737    1.8004 H   0  0  0  0  0  0  0  0  0  0  0  0
    1.8260    0.2433    4.2971 H   0  0  0  0  0  0  0  0  0  0  0  0
    1.7935    2.0185    4.3063 H   0  0  0  0  0  0  0  0  0  0  0  0
    3.2295    1.1523    3.7077 H   0  0  0  0  0  0  0  0  0  0  0  0
    0.8880   -1.2517    2.8325 H   0  0  0  0  0  0  0  0  0  0  0  0
    5.0634   -2.3788   -0.6694 H   0  0  0  0  0  0  0  0  0  0  0  0
    7.5198   -4.2315   -0.4774 H   0  0  0  0  0  0  0  0  0  0  0  0
    7.1483   -2.8660    0.6088 H   0  0  0  0  0  0  0  0  0  0  0  0
    7.5156   -2.5700   -1.1128 H   0  0  0  0  0  0  0  0  0  0  0  0
    5.7220   -4.9107   -2.2969 H   0  0  0  0  0  0  0  0  0  0  0  0
    5.7547   -3.2412   -2.9149 H   0  0  0  0  0  0  0  0  0  0  0  0
    4.2115   -3.9655   -2.3865 H   0  0  0  0  0  0  0  0  0  0  0  0
    5.8210   -6.1024    0.1025 H   0  0  0  0  0  0  0  0  0  0  0  0
    2.4799   -6.5126    3.4791 H   0  0  0  0  0  0  0  0  0  0  0  0
    0.2939   -6.4399    4.5615 H   0  0  0  0  0  0  0  0  0  0  0  0
    0.2530   -4.6954    4.2145 H   0  0  0  0  0  0  0  0  0  0  0  0
    2.1877   -3.2766    5.3566 H   0  0  0  0  0  0  0  0  0  0  0  0
    3.1818   -2.8074    7.5959 H   0  0  0  0  0  0  0  0  0  0  0  0
    3.0318   -4.5128    9.4099 H   0  0  0  0  0  0  0  0  0  0  0  0
    1.8835   -6.6836    8.9748 H   0  0  0  0  0  0  0  0  0  0  0  0
    0.8988   -7.1436    6.7386 H   0  0  0  0  0  0  0  0  0  0  0  0
  1  2  1  0
  1 28  1  0
  2  3  1  0
  2 29  1  0
  2 30  1  0
  3  4  1  6
  3  5  1  0
  3  7  1  0
  5  6  1  0
  5 31  1  0
  5 32  1  0
  6 33  1  0
  6 34  1  0
  6 35  1  0
  7  8  1  0
  7 36  1  0
  8  9  2  0
  8 19  1  0
  9 10  1  0
 10 11  1  0
 10 17  2  0
 11 12  1  0
 11 15  1  0
 12 13  1  0
 12 14  1  0
 12 37  1  0
 13 38  1  0
 13 39  1  0
 13 40  1  0
 14 41  1  0
 14 42  1  0
 14 43  1  0
 15 16  2  0
 15 44  1  0
 16 17  1  0
 17 18  1  0
 18 19  2  0
 18 20  1  0
 20 21  1  0
 20 45  1  0
 21 22  1  0
 21 46  1  0
 21 47  1  0
 22 23  2  0
 22 27  1  0
 23 24  1  0
 23 48  1  0
 24 25  2  0
 24 49  1  0
 25 26  1  0
 25 50  1  0
 26 27  2  0
 26 51  1  0
 27 52  1  0
M  END

