52

O         -0.40190       -0.24520        1.04640
C          0.93030       -0.27880        0.61750
C          1.95100        0.11560        1.71090
H          1.54100       -0.26170        2.66810
C          3.32360       -0.53090        1.47270
C          3.36520       -2.03510        1.73070
N          2.15760        1.55840        1.81140
C          1.24490        2.49690        2.18470
N         -0.04300        2.12670        2.30650
C         -0.85110        3.13950        2.64910
N         -2.21130        3.11600        2.84490
C         -3.06490        1.93620        2.64710
C         -4.37220        2.06800        3.42310
C         -3.28840        1.67380        1.15530
C         -2.56930        4.42300        3.16180
N         -1.55110        5.24810        3.18920
C         -0.46270        4.46400        2.86900
C          0.92330        4.73740        2.72250
N          1.74740        3.73780        2.39300
N          1.39850        5.99100        2.90050
C          2.80620        6.34510        2.86590
C          3.45730        6.36990        4.23480
C          3.62190        5.17680        4.95760
C          4.19850        5.19400        6.22780
C          4.62090        6.40220        6.79440
C          4.46310        7.59240        6.08200
C          3.88250        7.57340        4.80950
H         -0.48420        0.59010        1.56290
H          1.11930        0.37690       -0.26010
H          1.14050       -1.31150        0.29390
H          4.05570       -0.03750        2.13570
H          3.64580       -0.31090        0.43850
H          3.08470       -2.26600        2.77110
H          4.37700       -2.43360        1.55910
H          2.67740       -2.58750        1.07250
H          3.10710        1.90780        1.77600
H         -2.49290        1.09110        3.06370
H         -5.01610        2.85640        3.00200
H         -4.19110        2.29330        4.48480
H         -4.92940        1.12190        3.36240
H         -3.78430        2.53600        0.68130
H         -3.92510        0.78610        1.02050
H         -2.33620        1.47600        0.64410
H         -3.60270        4.69400        3.36900
H          0.73030        6.66340        3.25970
H          2.91030        7.33060        2.38540
H          3.30090        5.60200        2.22590
H          3.29410        4.23650        4.50840
H          4.32320        4.25930        6.78040
H          5.07300        6.41360        7.78920
H          4.79060        8.54000        6.51680
H          3.75960        8.50810        4.25440
