52
rmsd70.gzmat
O          0.00000        0.00000        0.00000
C          1.40800        0.00000        0.00000
C          1.94810        0.00000        1.45390
H          1.13660       -0.39570        2.13030
C          3.20980       -0.87610        1.58920
C          2.82580       -2.35210        1.66530
N          2.28350        1.37560        1.86060
C          1.33970        2.22890        2.36380
N          0.02210        1.85350        2.30580
C         -0.82820        2.77830        2.81430
N         -2.20690        2.73990        2.92740
C         -3.11370        1.70480        2.41410
C         -3.12670        1.74160        0.88090
C         -2.68570        0.32670        2.92740
C         -2.59550        3.99310        3.48060
N         -1.54700        4.76550        3.74520
C         -0.42230        4.04870        3.34840
C          0.97290        4.33380        3.36040
N          1.84050        3.41990        2.85100
N          1.44790        5.47590        3.93460
C          2.84990        5.88310        3.78140
C          3.02060        6.80530        2.60160
C          2.91880        6.29450        1.30650
C          3.06210        7.14270        0.21190
C          3.31770        8.49920        0.40860
C          3.42350        9.00750        1.70180
C          3.27270        8.16240        2.80000
H         -0.32760        0.66960        0.65270
H          1.76180        0.87630       -0.57230
H          1.66710       -0.92710       -0.54070
H          3.77330       -0.59680        2.50280
H          3.89880       -0.69910        0.74250
H          2.22890       -2.56650        2.56100
H          3.71280       -2.99420        1.70320
H          2.23110       -2.66600        0.79840
H          3.25360        1.65900        1.89150
H         -4.14100        1.94490        2.80440
H         -2.12850        1.54070        0.46320
H         -3.44510        2.71740        0.49830
H         -3.80000        0.97970        0.47360
H         -1.68080        0.05390        2.56580
H         -3.37380       -0.45260        2.58450
H         -2.64770        0.29530        4.02220
H         -3.62740        4.23790        3.66390
H          0.77390        6.20910        4.14210
H          3.50140        4.97780        3.66340
H          3.16610        6.36710        4.73560
H          2.72150        5.23060        1.15650
H          2.97260        6.74620       -0.79780
H          3.43260        9.16090       -0.44700
H          3.62060       10.06590        1.85550
H          3.35230        8.56700        3.80650
