52
rmsd180.gzmat
O          0.00000        0.00000        0.00000
C          1.40770        0.00000        0.00000
C          1.94760        0.00000        1.45570
H          1.13690       -0.40090        2.12930
C          3.20570       -0.87960        1.57850
C          3.57240       -1.12520        3.04020
N          2.27860        1.38070        1.85060
C          1.33590        2.21990        2.37850
N          0.01630        1.84210        2.32140
C         -0.82570        2.77290        2.82410
N         -2.20280        2.70250        2.94320
C         -3.04630        1.61330        2.44170
C         -4.01200        1.15860        3.54230
C         -3.80140        2.07630        1.19000
C         -2.62000        3.94450        3.49070
N         -1.58790        4.74240        3.74240
C         -0.44050        4.05770        3.34470
C          0.95120        4.35390        3.33450
N          1.82300        3.40410        2.88700
N          1.53000        5.54630        3.66160
C          0.82390        6.56680        4.44440
C          1.06060        6.38180        5.92080
C          0.42990        5.33550        6.59560
C          0.65110        5.15310        7.95810
C          1.49300        6.02240        8.65060
C          2.11680        7.07140        7.97770
C          1.90420        7.25090        6.61190
H         -0.32900        0.67930        0.63900
H          1.76250        0.87630       -0.57170
H          1.66390       -0.92610       -0.54200
H          4.05610       -0.42330        1.03740
H          3.02070       -1.85020        1.07570
H          3.80220       -0.19150        3.56740
H          4.44900       -1.77680        3.12870
H          2.75110       -1.60700        3.58540
H          3.25350        1.63690        1.94460
H         -2.36070        0.75670        2.17010
H         -4.74990        1.92710        3.79230
H         -3.47220        0.90570        4.46460
H         -4.56090        0.26280        3.22840
H         -4.45220        2.93360        1.39210
H         -4.42500        1.26840        0.78970
H         -3.10510        2.37500        0.39390
H         -3.65590        4.16540        3.67980
H          2.54710        5.57420        3.70800
H         -0.27670        6.54900        4.22110
H          1.18100        7.56370        4.09060
H         -0.23910        4.66460        6.05240
H          0.16460        4.33330        8.48190
H          1.66280        5.88240        9.71560
H          2.77050        7.75150        8.51900
H          2.39540        8.07010        6.09240
