52
rmsd145.gzmat
O          0.00000        0.00000        0.00000
C          1.40850        0.00000        0.00000
C          1.94020        0.00000        1.45770
H          1.13900       -0.43300        2.12240
C          3.22280       -0.84310        1.58150
C          3.60110       -1.06460        3.04420
N          2.22470        1.38890        1.85940
C          1.28400        2.15800        2.49750
N          1.76690        3.29740        3.09180
C          0.79430        4.06930        3.63120
N          0.90510        5.28580        4.28020
C          2.15110        6.02180        4.50880
C          2.04750        7.42080        3.88880
C          2.44020        6.09860        6.01330
C         -0.41260        5.66330        4.65730
N         -1.31290        4.76050        4.28040
C         -0.60650        3.74750        3.63650
C         -0.98920        2.52500        3.02040
N         -0.03350        1.75650        2.42970
N         -2.27880        2.08810        3.07370
C         -2.73890        0.91870        2.31610
C         -3.44570        1.32960        1.05050
C         -4.82340        1.14550        0.93390
C         -5.47560        1.50480       -0.24390
C         -4.75330        2.05010       -1.30380
C         -3.37720        2.24050       -1.18390
C         -2.72270        1.88090       -0.00830
H         -0.32670        0.64410        0.67780
H          1.76000        0.87970       -0.56890
H          1.66840       -0.92430       -0.54290
H          4.05790       -0.36720        1.03340
H          3.06400       -1.82240        1.08720
H          3.78550       -0.11880        3.56880
H          4.50910       -1.67070        3.13490
H          2.80410       -1.58350        3.59140
H          3.19600        1.66500        1.95510
H          2.97730        5.44440        3.99750
H          1.29450        8.03970        4.38760
H          1.77620        7.36390        2.82580
H          3.00740        7.94550        3.95390
H          1.64640        6.61630        6.56220
H          3.37940        6.63040        6.20230
H          2.53610        5.09420        6.44830
H         -0.61310        6.57970        5.18480
H         -2.98900        2.76920        3.33780
H         -3.41010        0.33060        2.98880
H         -1.88060        0.23750        2.07960
H         -5.39280        0.71870        1.75630
H         -6.54930        1.35780       -0.33640
H         -5.26290        2.32630       -2.22420
H         -2.81100        2.66350       -2.01200
H         -1.64400        2.02650        0.07880
