rmsd118.gzmat
 OpenBabel08211713373D

 52 54  0  0  1  0  0  0  0  0999 V2000
    0.0000    0.0000    0.0000 O   0  0  0  0  0  0  0  0  0  0  0  0
    1.4083    0.0000    0.0000 C   0  0  0  0  0  0  0  0  0  0  0  0
    1.9546    0.0000    1.4504 C   0  0  1  0  0  0  0  0  0  0  0  0
    1.1454   -0.3848    2.1367 H   0  0  0  0  0  0  0  0  0  0  0  0
    3.2115   -0.8829    1.5846 C   0  0  0  0  0  0  0  0  0  0  0  0
    2.8298   -2.3607    1.6102 C   0  0  0  0  0  0  0  0  0  0  0  0
    2.3104    1.3666    1.8694 N   0  0  0  0  0  0  0  0  0  0  0  0
    1.3582    2.2681    2.2602 C   0  0  0  0  0  0  0  0  0  0  0  0
    0.0540    1.8484    2.3537 N   0  0  0  0  0  0  0  0  0  0  0  0
   -0.7744    2.7948    2.8515 C   0  0  0  0  0  0  0  0  0  0  0  0
   -2.1272    2.6880    3.1219 N   0  0  0  0  0  0  0  0  0  0  0  0
   -2.9594    1.5159    2.8332 C   0  0  0  0  0  0  0  0  0  0  0  0
   -3.7723    1.1357    4.0763 C   0  0  0  0  0  0  0  0  0  0  0  0
   -3.8708    1.8071    1.6354 C   0  0  0  0  0  0  0  0  0  0  0  0
   -2.5409    3.9607    3.5964 C   0  0  0  0  0  0  0  0  0  0  0  0
   -1.5263    4.8166    3.6570 N   0  0  0  0  0  0  0  0  0  0  0  0
   -0.3973    4.1389    3.1997 C   0  0  0  0  0  0  0  0  0  0  0  0
    0.9650    4.4885    2.9858 C   0  0  0  0  0  0  0  0  0  0  0  0
    1.8301    3.5302    2.5462 N   0  0  0  0  0  0  0  0  0  0  0  0
    1.5062    5.7408    3.0815 N   0  0  0  0  0  0  0  0  0  0  0  0
    0.8794    6.7914    3.8944 C   0  0  0  0  0  0  0  0  0  0  0  0
    1.4385    6.7756    5.2931 C   0  0  0  0  0  0  0  0  0  0  0  0
    2.3655    7.7386    5.6897 C   0  0  0  0  0  0  0  0  0  0  0  0
    2.9103    7.6906    6.9716 C   0  0  0  0  0  0  0  0  0  0  0  0
    2.5310    6.6812    7.8543 C   0  0  0  0  0  0  0  0  0  0  0  0
    1.5954    5.7251    7.4599 C   0  0  0  0  0  0  0  0  0  0  0  0
    1.0446    5.7745    6.1821 C   0  0  0  0  0  0  0  0  0  0  0  0
   -0.3312    0.6570    0.6593 H   0  0  0  0  0  0  0  0  0  0  0  0
    1.7611    0.8728   -0.5773 H   0  0  0  0  0  0  0  0  0  0  0  0
    1.6647   -0.9266   -0.5427 H   0  0  0  0  0  0  0  0  0  0  0  0
    3.7506   -0.6273    2.5207 H   0  0  0  0  0  0  0  0  0  0  0  0
    3.9201   -0.6811    0.7605 H   0  0  0  0  0  0  0  0  0  0  0  0
    2.1719   -2.5922    2.4574 H   0  0  0  0  0  0  0  0  0  0  0  0
    3.7166   -2.9974    1.7019 H   0  0  0  0  0  0  0  0  0  0  0  0
    2.3002   -2.6650    0.6995 H   0  0  0  0  0  0  0  0  0  0  0  0
    3.2442    1.7074    1.6823 H   0  0  0  0  0  0  0  0  0  0  0  0
   -2.2594    0.6674    2.5720 H   0  0  0  0  0  0  0  0  0  0  0  0
   -4.5399    1.8776    4.3162 H   0  0  0  0  0  0  0  0  0  0  0  0
   -3.1257    1.0311    4.9576 H   0  0  0  0  0  0  0  0  0  0  0  0
   -4.2786    0.1744    3.9266 H   0  0  0  0  0  0  0  0  0  0  0  0
   -4.5533    2.6413    1.8264 H   0  0  0  0  0  0  0  0  0  0  0  0
   -4.4767    0.9289    1.3840 H   0  0  0  0  0  0  0  0  0  0  0  0
   -3.2829    2.0627    0.7429 H   0  0  0  0  0  0  0  0  0  0  0  0
   -3.5600    4.1617    3.8772 H   0  0  0  0  0  0  0  0  0  0  0  0
    2.5184    5.8138    2.9778 H   0  0  0  0  0  0  0  0  0  0  0  0
   -0.2365    6.6762    3.9106 H   0  0  0  0  0  0  0  0  0  0  0  0
    1.0668    7.7654    3.3824 H   0  0  0  0  0  0  0  0  0  0  0  0
    2.6677    8.5264    5.0038 H   0  0  0  0  0  0  0  0  0  0  0  0
    3.6348    8.4404    7.2812 H   0  0  0  0  0  0  0  0  0  0  0  0
    2.9654    6.6394    8.8505 H   0  0  0  0  0  0  0  0  0  0  0  0
    1.2969    4.9384    8.1498 H   0  0  0  0  0  0  0  0  0  0  0  0
    0.3077    5.0315    5.8699 H   0  0  0  0  0  0  0  0  0  0  0  0
  1 28  1  0  0  0  0
  2  1  1  0  0  0  0
  2  3  1  0  0  0  0
  3  5  1  0  0  0  0
  3  7  1  0  0  0  0
  3  4  1  1  0  0  0
  5  6  1  0  0  0  0
  5 31  1  0  0  0  0
  6 34  1  0  0  0  0
  6 33  1  0  0  0  0
  7  8  1  0  0  0  0
  8  9  2  0  0  0  0
  8 19  2  0  0  0  0
  9 10  2  0  0  0  0
 10 11  1  0  0  0  0
 10 17  1  0  0  0  0
 11 15  1  0  0  0  0
 12 11  1  0  0  0  0
 12 13  1  0  0  0  0
 13 38  1  0  0  0  0
 13 39  1  0  0  0  0
 14 41  1  0  0  0  0
 14 12  1  0  0  0  0
 15 16  2  0  0  0  0
 15 44  1  0  0  0  0
 17 16  2  0  0  0  0
 18 20  1  0  0  0  0
 18 17  1  0  0  0  0
 19 18  2  0  0  0  0
 20 21  1  0  0  0  0
 21 46  1  0  0  0  0
 21 22  1  0  0  0  0
 22 23  2  0  0  0  0
 22 27  1  0  0  0  0
 23 24  1  0  0  0  0
 24 49  1  0  0  0  0
 24 25  2  0  0  0  0
 25 50  1  0  0  0  0
 26 25  1  0  0  0  0
 26 51  1  0  0  0  0
 27 26  2  0  0  0  0
 29  2  1  0  0  0  0
 30  2  1  0  0  0  0
 32  5  1  0  0  0  0
 35  6  1  0  0  0  0
 36  7  1  0  0  0  0
 37 12  1  0  0  0  0
 40 13  1  0  0  0  0
 42 14  1  0  0  0  0
 43 14  1  0  0  0  0
 45 20  1  0  0  0  0
 47 21  1  0  0  0  0
 48 23  1  0  0  0  0
 52 27  1  0  0  0  0
M  END
$$$$
