52
rmsd99.gzmat
O          0.00000        0.00000        0.00000
C          1.41080        0.00000        0.00000
C          1.95760        0.00000        1.45010
H          3.08160       -0.01410        1.40800
C          1.47130        1.24460        2.21350
C          2.25010        1.44560        3.51030
N          1.46290       -1.21290        2.12700
C          2.16940       -2.38960        2.05820
N          3.16780       -2.49880        1.12750
C          3.74550       -3.72560        1.11600
N          4.78260       -4.19220        0.32760
C          5.47960       -3.42840       -0.70970
C          6.95590       -3.26270       -0.32700
C          5.33200       -4.13660       -2.06230
C          5.01850       -5.53580        0.72600
N          4.19250       -5.91570        1.69670
C          3.37840       -4.82000        1.96950
C          2.31460       -4.59230        2.88850
N          1.74000       -3.36220        2.94150
N          1.83230       -5.60910        3.66020
C          0.87210       -5.35560        4.74090
C          1.58190       -4.98990        6.01910
C          1.91660       -3.65750        6.26400
C          2.58510       -3.31400        7.43620
C          2.92060       -4.30020        8.36270
C          2.59080       -5.63160        8.11460
C          1.91910       -5.97810        6.94390
H         -0.31670       -0.80560        0.46290
H          1.67620        0.92430       -0.53900
H          1.77800       -0.88120       -0.56050
H          0.38280        1.17420        2.40990
H          1.57690        2.13590        1.56400
H          2.17270        0.57680        4.17490
H          1.88260        2.31660        4.06460
H          3.31750        1.60950        3.31700
H          0.82210       -1.09240        2.90320
H          4.98920       -2.41190       -0.76280
H          7.47640       -4.22400       -0.25700
H          7.05870       -2.76440        0.64680
H          7.48370       -2.65170       -1.06740
H          5.79000       -5.13130       -2.06110
H          5.80560       -3.55420       -2.86050
H          4.27410       -4.26440       -2.32980
H          5.78480       -6.13940        0.27160
H          2.40350       -6.44720        3.73510
H          0.25060       -6.27330        4.86520
H          0.16630       -4.54160        4.43140
H          1.66380       -2.89160        5.52750
H          2.84940       -2.27620        7.62720
H          3.44230       -4.03110        9.27830
H          2.86100       -6.40100        8.83490
H          1.66200       -7.01780        6.75510
