52
rmsd92.gzmat
O          0.00000        0.00000        0.00000
C          1.40800        0.00000        0.00000
C          1.95160        0.00000        1.45230
H          1.13010       -0.35620        2.13940
C          3.18390       -0.91540        1.59580
C          2.76050       -2.38200        1.61460
N          2.34520        1.35760        1.86710
C          1.41380        2.30960        2.18590
N          0.09090        1.94850        2.22770
C         -0.72590        2.95630        2.61940
N         -2.09710        2.94150        2.79760
C         -2.97780        1.79640        2.54710
C         -3.83380        1.51880        3.78900
C         -3.85180        2.07030        1.31710
C         -2.46500        4.26380        3.17030
N         -1.40750        5.06570        3.25630
C         -0.29990        4.29290        2.92000
C          1.09390        4.56500        2.80560
N          1.93790        3.55850        2.45330
N          1.57840        5.82450        2.97790
C          3.01710        6.10410        3.01790
C          3.46400        6.50080        4.40060
C          3.15690        5.69540        5.49850
C          3.58330        6.06420        6.77190
C          4.32680        7.23040        6.95010
C          4.64070        8.02980        5.85230
C          4.20680        7.66840        4.57820
H         -0.32930        0.69170        0.62460
H          1.76340        0.87130       -0.57760
H          1.66410       -0.92760       -0.54140
H          3.72170       -0.67600        2.53680
H          3.90410       -0.73250        0.77760
H          2.11850       -2.60430        2.47650
H          3.63000       -3.04600        1.67390
H          2.19690       -2.65740        0.71450
H          3.29780        1.65860        1.70710
H         -2.31590        0.90320        2.34380
H         -4.51400        2.34560        4.01770
H         -3.20670        1.35440        4.67570
H         -4.44340        0.61850        3.64650
H         -4.47540        2.96170        1.44200
H         -4.51560        1.22130        1.11540
H         -3.23760        2.22450        0.41940
H         -3.48740        4.53850        3.36150
H          0.95430        6.52980        3.35970
H          3.22560        6.90750        2.27040
H          3.60220        5.20810        2.67680
H          2.58580        4.77640        5.35720
H          3.33740        5.43950        7.62870
H          4.66210        7.51660        7.94440
H          5.22260        8.93850        5.98980
H          4.45250        8.29970        3.72690
