rmsd180.gzmat
 OpenBabel08211713373D

 52 54  0  0  1  0  0  0  0  0999 V2000
    0.0000    0.0000    0.0000 O   0  0  0  0  0  0  0  0  0  0  0  0
    1.4077    0.0000    0.0000 C   0  0  0  0  0  0  0  0  0  0  0  0
    1.9476    0.0000    1.4557 C   0  0  1  0  0  0  0  0  0  0  0  0
    1.1369   -0.4009    2.1293 H   0  0  0  0  0  0  0  0  0  0  0  0
    3.2057   -0.8796    1.5785 C   0  0  0  0  0  0  0  0  0  0  0  0
    3.5724   -1.1252    3.0402 C   0  0  0  0  0  0  0  0  0  0  0  0
    2.2786    1.3807    1.8506 N   0  0  0  0  0  0  0  0  0  0  0  0
    1.3359    2.2199    2.3785 C   0  0  0  0  0  0  0  0  0  0  0  0
    0.0163    1.8421    2.3214 N   0  0  0  0  0  0  0  0  0  0  0  0
   -0.8257    2.7729    2.8241 C   0  0  0  0  0  0  0  0  0  0  0  0
   -2.2028    2.7025    2.9432 N   0  0  0  0  0  0  0  0  0  0  0  0
   -3.0463    1.6133    2.4417 C   0  0  0  0  0  0  0  0  0  0  0  0
   -4.0120    1.1586    3.5423 C   0  0  0  0  0  0  0  0  0  0  0  0
   -3.8014    2.0763    1.1900 C   0  0  0  0  0  0  0  0  0  0  0  0
   -2.6200    3.9445    3.4907 C   0  0  0  0  0  0  0  0  0  0  0  0
   -1.5879    4.7424    3.7424 N   0  0  0  0  0  0  0  0  0  0  0  0
   -0.4405    4.0577    3.3447 C   0  0  0  0  0  0  0  0  0  0  0  0
    0.9512    4.3539    3.3345 C   0  0  0  0  0  0  0  0  0  0  0  0
    1.8230    3.4041    2.8870 N   0  0  0  0  0  0  0  0  0  0  0  0
    1.5300    5.5463    3.6616 N   0  0  0  0  0  0  0  0  0  0  0  0
    0.8239    6.5668    4.4444 C   0  0  0  0  0  0  0  0  0  0  0  0
    1.0606    6.3818    5.9208 C   0  0  0  0  0  0  0  0  0  0  0  0
    0.4299    5.3355    6.5956 C   0  0  0  0  0  0  0  0  0  0  0  0
    0.6511    5.1531    7.9581 C   0  0  0  0  0  0  0  0  0  0  0  0
    1.4930    6.0224    8.6506 C   0  0  0  0  0  0  0  0  0  0  0  0
    2.1168    7.0714    7.9777 C   0  0  0  0  0  0  0  0  0  0  0  0
    1.9042    7.2509    6.6119 C   0  0  0  0  0  0  0  0  0  0  0  0
   -0.3290    0.6793    0.6390 H   0  0  0  0  0  0  0  0  0  0  0  0
    1.7625    0.8763   -0.5717 H   0  0  0  0  0  0  0  0  0  0  0  0
    1.6639   -0.9261   -0.5420 H   0  0  0  0  0  0  0  0  0  0  0  0
    4.0561   -0.4233    1.0374 H   0  0  0  0  0  0  0  0  0  0  0  0
    3.0207   -1.8502    1.0757 H   0  0  0  0  0  0  0  0  0  0  0  0
    3.8022   -0.1915    3.5674 H   0  0  0  0  0  0  0  0  0  0  0  0
    4.4490   -1.7768    3.1287 H   0  0  0  0  0  0  0  0  0  0  0  0
    2.7511   -1.6070    3.5854 H   0  0  0  0  0  0  0  0  0  0  0  0
    3.2535    1.6369    1.9446 H   0  0  0  0  0  0  0  0  0  0  0  0
   -2.3607    0.7567    2.1701 H   0  0  0  0  0  0  0  0  0  0  0  0
   -4.7499    1.9271    3.7923 H   0  0  0  0  0  0  0  0  0  0  0  0
   -3.4722    0.9057    4.4646 H   0  0  0  0  0  0  0  0  0  0  0  0
   -4.5609    0.2628    3.2284 H   0  0  0  0  0  0  0  0  0  0  0  0
   -4.4522    2.9336    1.3921 H   0  0  0  0  0  0  0  0  0  0  0  0
   -4.4250    1.2684    0.7897 H   0  0  0  0  0  0  0  0  0  0  0  0
   -3.1051    2.3750    0.3939 H   0  0  0  0  0  0  0  0  0  0  0  0
   -3.6559    4.1654    3.6798 H   0  0  0  0  0  0  0  0  0  0  0  0
    2.5471    5.5742    3.7080 H   0  0  0  0  0  0  0  0  0  0  0  0
   -0.2767    6.5490    4.2211 H   0  0  0  0  0  0  0  0  0  0  0  0
    1.1810    7.5637    4.0906 H   0  0  0  0  0  0  0  0  0  0  0  0
   -0.2391    4.6646    6.0524 H   0  0  0  0  0  0  0  0  0  0  0  0
    0.1646    4.3333    8.4819 H   0  0  0  0  0  0  0  0  0  0  0  0
    1.6628    5.8824    9.7156 H   0  0  0  0  0  0  0  0  0  0  0  0
    2.7705    7.7515    8.5190 H   0  0  0  0  0  0  0  0  0  0  0  0
    2.3954    8.0701    6.0924 H   0  0  0  0  0  0  0  0  0  0  0  0
  1 28  1  0  0  0  0
  2  1  1  0  0  0  0
  2  3  1  0  0  0  0
  3  5  1  0  0  0  0
  3  7  1  0  0  0  0
  3  4  1  1  0  0  0
  5  6  1  0  0  0  0
  6 34  1  0  0  0  0
  6 33  1  0  0  0  0
  6 35  1  0  0  0  0
  7 36  1  0  0  0  0
  7  8  1  0  0  0  0
  8 19  2  0  0  0  0
  9  8  2  0  0  0  0
  9 10  2  0  0  0  0
 10 11  1  0  0  0  0
 10 17  1  0  0  0  0
 11 15  1  0  0  0  0
 12 11  1  0  0  0  0
 12 13  1  0  0  0  0
 13 38  1  0  0  0  0
 13 39  1  0  0  0  0
 14 41  1  0  0  0  0
 14 12  1  0  0  0  0
 15 44  1  0  0  0  0
 15 16  2  0  0  0  0
 17 16  2  0  0  0  0
 18 17  1  0  0  0  0
 18 20  1  0  0  0  0
 19 18  2  0  0  0  0
 20 45  1  0  0  0  0
 20 21  1  0  0  0  0
 21 22  1  0  0  0  0
 22 23  2  0  0  0  0
 22 27  1  0  0  0  0
 23 24  1  0  0  0  0
 24 49  1  0  0  0  0
 24 25  2  0  0  0  0
 25 50  1  0  0  0  0
 26 51  1  0  0  0  0
 26 25  1  0  0  0  0
 27 26  2  0  0  0  0
 29  2  1  0  0  0  0
 30  2  1  0  0  0  0
 31  5  1  0  0  0  0
 32  5  1  0  0  0  0
 37 12  1  0  0  0  0
 40 13  1  0  0  0  0
 42 14  1  0  0  0  0
 43 14  1  0  0  0  0
 46 21  1  0  0  0  0
 47 21  1  0  0  0  0
 48 23  1  0  0  0  0
 52 27  1  0  0  0  0
M  END
$$$$
