
     RDKit          3D

 52 54  0  0  0  0  0  0  0  0999 V2000
    0.1927    0.1192   -0.4370 O   0  0  0  0  0  0  0  0  0  0  0  0
    1.5321   -0.1783   -0.1672 C   0  0  0  0  0  0  0  0  0  0  0  0
    1.9047   -0.0813    1.3254 C   0  0  1  0  0  0  0  0  0  0  0  0
    1.0577   -0.5112    1.8925 H   0  0  0  0  0  0  0  0  0  0  0  0
    3.1790   -0.8710    1.6573 C   0  0  0  0  0  0  0  0  0  0  0  0
    3.0188   -2.3886    1.5977 C   0  0  0  0  0  0  0  0  0  0  0  0
    2.1087    1.2992    1.7655 N   0  0  0  0  0  0  0  0  0  0  0  0
    1.1407    2.2188    2.0386 C   0  0  0  0  0  0  0  0  0  0  0  0
    1.5303    3.3105    2.7210 N   0  0  0  0  0  0  0  0  0  0  0  0
    0.5266    4.1548    2.9425 C   0  0  0  0  0  0  0  0  0  0  0  0
    0.5848    5.3605    3.6068 N   0  0  0  0  0  0  0  0  0  0  0  0
    1.7936    5.9412    4.1951 C   0  0  0  0  0  0  0  0  0  0  0  0
    2.1385    7.2742    3.5296 C   0  0  0  0  0  0  0  0  0  0  0  0
    1.6620    6.0513    5.7150 C   0  0  0  0  0  0  0  0  0  0  0  0
   -0.7046    5.8685    3.6021 C   0  0  0  0  0  0  0  0  0  0  0  0
   -1.5644    5.0922    2.9924 N   0  0  0  0  0  0  0  0  0  0  0  0
   -0.8225    4.0026    2.5620 C   0  0  0  0  0  0  0  0  0  0  0  0
   -1.1187    2.8168    1.8408 C   0  0  0  0  0  0  0  0  0  0  0  0
   -0.1091    1.9592    1.5980 N   0  0  0  0  0  0  0  0  0  0  0  0
   -2.3303    2.4828    1.3413 N   0  0  0  0  0  0  0  0  0  0  0  0
   -3.5906    3.1572    1.6289 C   0  0  0  0  0  0  0  0  0  0  0  0
   -4.3201    2.5579    2.8154 C   0  0  0  0  0  0  0  0  0  0  0  0
   -4.0499    3.0092    4.1161 C   0  0  0  0  0  0  0  0  0  0  0  0
   -4.6810    2.4186    5.2132 C   0  0  0  0  0  0  0  0  0  0  0  0
   -5.5884    1.3713    5.0253 C   0  0  0  0  0  0  0  0  0  0  0  0
   -5.8667    0.9194    3.7325 C   0  0  0  0  0  0  0  0  0  0  0  0
   -5.2354    1.5119    2.6357 C   0  0  0  0  0  0  0  0  0  0  0  0
   -0.0640    0.8356    0.1847 H   0  0  0  0  0  0  0  0  0  0  0  0
    2.2390    0.4786   -0.7217 H   0  0  0  0  0  0  0  0  0  0  0  0
    1.7174   -1.2090   -0.5150 H   0  0  0  0  0  0  0  0  0  0  0  0
    3.4995   -0.5865    2.6746 H   0  0  0  0  0  0  0  0  0  0  0  0
    3.9871   -0.5474    0.9756 H   0  0  0  0  0  0  0  0  0  0  0  0
    2.2310   -2.7305    2.2885 H   0  0  0  0  0  0  0  0  0  0  0  0
    3.9558   -2.8919    1.8820 H   0  0  0  0  0  0  0  0  0  0  0  0
    2.7499   -2.7381    0.5895 H   0  0  0  0  0  0  0  0  0  0  0  0
    3.0129    1.5432    2.1509 H   0  0  0  0  0  0  0  0  0  0  0  0
    2.5803    5.2092    3.9578 H   0  0  0  0  0  0  0  0  0  0  0  0
    1.3648    8.0334    3.7288 H   0  0  0  0  0  0  0  0  0  0  0  0
    2.2309    7.1545    2.4400 H   0  0  0  0  0  0  0  0  0  0  0  0
    3.0938    7.6586    3.9187 H   0  0  0  0  0  0  0  0  0  0  0  0
    0.8692    6.7629    5.9976 H   0  0  0  0  0  0  0  0  0  0  0  0
    2.6059    6.4080    6.1549 H   0  0  0  0  0  0  0  0  0  0  0  0
    1.4210    5.0735    6.1576 H   0  0  0  0  0  0  0  0  0  0  0  0
   -0.9444    6.8217    4.0724 H   0  0  0  0  0  0  0  0  0  0  0  0
   -2.3761    1.5438    0.9575 H   0  0  0  0  0  0  0  0  0  0  0  0
   -4.2204    3.0870    0.7283 H   0  0  0  0  0  0  0  0  0  0  0  0
   -3.3728    4.2159    1.8121 H   0  0  0  0  0  0  0  0  0  0  0  0
   -3.3455    3.8327    4.2533 H   0  0  0  0  0  0  0  0  0  0  0  0
   -4.4665    2.7804    6.2221 H   0  0  0  0  0  0  0  0  0  0  0  0
   -6.0820    0.9112    5.8849 H   0  0  0  0  0  0  0  0  0  0  0  0
   -6.5800    0.1061    3.5774 H   0  0  0  0  0  0  0  0  0  0  0  0
   -5.4602    1.1593    1.6243 H   0  0  0  0  0  0  0  0  0  0  0  0
  1  2  1  0
  1 28  1  0
  2  3  1  0
  2 29  1  0
  2 30  1  0
  3  4  1  1
  3  5  1  0
  3  7  1  0
  5  6  1  0
  5 31  1  0
  5 32  1  0
  6 33  1  0
  6 34  1  0
  6 35  1  0
  7  8  1  0
  7 36  1  0
  8  9  2  0
  8 19  1  0
  9 10  1  0
 10 11  1  0
 10 17  2  0
 11 12  1  0
 11 15  1  0
 12 13  1  0
 12 14  1  0
 12 37  1  0
 13 38  1  0
 13 39  1  0
 13 40  1  0
 14 41  1  0
 14 42  1  0
 14 43  1  0
 15 16  2  0
 15 44  1  0
 16 17  1  0
 17 18  1  0
 18 19  2  0
 18 20  1  0
 20 21  1  0
 20 45  1  0
 21 22  1  0
 21 46  1  0
 21 47  1  0
 22 23  2  0
 22 27  1  0
 23 24  1  0
 23 48  1  0
 24 25  2  0
 24 49  1  0
 25 26  1  0
 25 50  1  0
 26 27  2  0
 26 51  1  0
 27 52  1  0
M  END

