52
rmsd163.gzmat
O          0.00000        0.00000        0.00000
C          1.41140        0.00000        0.00000
C          1.95520        0.00000        1.45220
H          3.07920       -0.00890        1.41650
C          1.45750        1.24410        2.20860
C          2.16570        1.41200        3.54950
N          1.46580       -1.21560        2.12560
C          2.14980       -2.40000        2.02510
N          3.17640       -2.48700        1.12170
C          3.72640       -3.72510        1.06810
N          4.77980       -4.17610        0.29260
C          5.55670       -3.36590       -0.64810
C          7.01880       -3.30140       -0.18890
C          5.44200       -3.95610       -2.05910
C          4.96430       -5.54650        0.62090
N          4.09370       -5.95600        1.53880
C          3.30150       -4.85340        1.84710
C          2.22200       -4.64290        2.75110
N          1.67830       -3.40160        2.85310
N          1.69550       -5.68240        3.46170
C          0.74900       -5.45160        4.55980
C          1.47770       -5.27120        5.86690
C          2.09470       -4.05060        6.14580
C          2.79020       -3.87950        7.33950
C          2.86260       -4.92470        8.25980
C          2.24210       -6.14160        7.98270
C          1.55060       -6.31810        6.78550
H         -0.31800       -0.81360        0.44800
H          1.67660        0.92500       -0.53810
H          1.77920       -0.88010       -0.56150
H          0.35830        1.19590        2.34200
H          1.62260        2.14050        1.57830
H          1.99860        0.55500        4.21310
H          1.81310        2.30650        4.07560
H          3.25030        1.51380        3.42020
H          0.79460       -1.11140        2.87630
H          5.11420       -2.32630       -0.63890
H          7.49540       -4.28760       -0.18390
H          7.09630       -2.89760        0.82980
H          7.60480       -2.65080       -0.84720
H          5.85040       -4.97020       -2.11790
H          5.98200       -3.33810       -2.78510
H          4.39360       -4.00660       -2.38260
H          5.72780       -6.14600        0.15670
H          2.23510       -6.54440        3.49200
H          0.04940       -6.31980        4.59220
H          0.11840       -4.55230        4.33410
H          2.03480       -3.23600        5.42040
H          3.27920       -2.93100        7.55280
H          3.40520       -4.79090        9.19280
H          2.29990       -6.95650        8.70120
H          1.07190       -7.27160        6.57380
