rmsd145.gzmat
 OpenBabel08211713373D

 52 54  0  0  1  0  0  0  0  0999 V2000
    0.0000    0.0000    0.0000 O   0  0  0  0  0  0  0  0  0  0  0  0
    1.4085    0.0000    0.0000 C   0  0  0  0  0  0  0  0  0  0  0  0
    1.9402    0.0000    1.4577 C   0  0  1  0  0  0  0  0  0  0  0  0
    1.1390   -0.4330    2.1224 H   0  0  0  0  0  0  0  0  0  0  0  0
    3.2228   -0.8431    1.5815 C   0  0  0  0  0  0  0  0  0  0  0  0
    3.6011   -1.0646    3.0442 C   0  0  0  0  0  0  0  0  0  0  0  0
    2.2247    1.3889    1.8594 N   0  0  0  0  0  0  0  0  0  0  0  0
    1.2840    2.1580    2.4975 C   0  0  0  0  0  0  0  0  0  0  0  0
    1.7669    3.2974    3.0918 N   0  0  0  0  0  0  0  0  0  0  0  0
    0.7943    4.0693    3.6312 C   0  0  0  0  0  0  0  0  0  0  0  0
    0.9051    5.2858    4.2802 N   0  0  0  0  0  0  0  0  0  0  0  0
    2.1511    6.0218    4.5088 C   0  0  0  0  0  0  0  0  0  0  0  0
    2.0475    7.4208    3.8888 C   0  0  0  0  0  0  0  0  0  0  0  0
    2.4402    6.0986    6.0133 C   0  0  0  0  0  0  0  0  0  0  0  0
   -0.4126    5.6633    4.6573 C   0  0  0  0  0  0  0  0  0  0  0  0
   -1.3129    4.7605    4.2804 N   0  0  0  0  0  0  0  0  0  0  0  0
   -0.6065    3.7475    3.6365 C   0  0  0  0  0  0  0  0  0  0  0  0
   -0.9892    2.5250    3.0204 C   0  0  0  0  0  0  0  0  0  0  0  0
   -0.0335    1.7565    2.4297 N   0  0  0  0  0  0  0  0  0  0  0  0
   -2.2788    2.0881    3.0737 N   0  0  0  0  0  0  0  0  0  0  0  0
   -2.7389    0.9187    2.3161 C   0  0  0  0  0  0  0  0  0  0  0  0
   -3.4457    1.3296    1.0505 C   0  0  0  0  0  0  0  0  0  0  0  0
   -4.8234    1.1455    0.9339 C   0  0  0  0  0  0  0  0  0  0  0  0
   -5.4756    1.5048   -0.2439 C   0  0  0  0  0  0  0  0  0  0  0  0
   -4.7533    2.0501   -1.3038 C   0  0  0  0  0  0  0  0  0  0  0  0
   -3.3772    2.2405   -1.1839 C   0  0  0  0  0  0  0  0  0  0  0  0
   -2.7227    1.8809   -0.0083 C   0  0  0  0  0  0  0  0  0  0  0  0
   -0.3267    0.6441    0.6778 H   0  0  0  0  0  0  0  0  0  0  0  0
    1.7600    0.8797   -0.5689 H   0  0  0  0  0  0  0  0  0  0  0  0
    1.6684   -0.9243   -0.5429 H   0  0  0  0  0  0  0  0  0  0  0  0
    4.0579   -0.3672    1.0334 H   0  0  0  0  0  0  0  0  0  0  0  0
    3.0640   -1.8224    1.0872 H   0  0  0  0  0  0  0  0  0  0  0  0
    3.7855   -0.1188    3.5688 H   0  0  0  0  0  0  0  0  0  0  0  0
    4.5091   -1.6707    3.1349 H   0  0  0  0  0  0  0  0  0  0  0  0
    2.8041   -1.5835    3.5914 H   0  0  0  0  0  0  0  0  0  0  0  0
    3.1960    1.6650    1.9551 H   0  0  0  0  0  0  0  0  0  0  0  0
    2.9773    5.4444    3.9975 H   0  0  0  0  0  0  0  0  0  0  0  0
    1.2945    8.0397    4.3876 H   0  0  0  0  0  0  0  0  0  0  0  0
    1.7762    7.3639    2.8258 H   0  0  0  0  0  0  0  0  0  0  0  0
    3.0074    7.9455    3.9539 H   0  0  0  0  0  0  0  0  0  0  0  0
    1.6464    6.6163    6.5622 H   0  0  0  0  0  0  0  0  0  0  0  0
    3.3794    6.6304    6.2023 H   0  0  0  0  0  0  0  0  0  0  0  0
    2.5361    5.0942    6.4483 H   0  0  0  0  0  0  0  0  0  0  0  0
   -0.6131    6.5797    5.1848 H   0  0  0  0  0  0  0  0  0  0  0  0
   -2.9890    2.7692    3.3378 H   0  0  0  0  0  0  0  0  0  0  0  0
   -3.4101    0.3306    2.9888 H   0  0  0  0  0  0  0  0  0  0  0  0
   -1.8806    0.2375    2.0796 H   0  0  0  0  0  0  0  0  0  0  0  0
   -5.3928    0.7187    1.7563 H   0  0  0  0  0  0  0  0  0  0  0  0
   -6.5493    1.3578   -0.3364 H   0  0  0  0  0  0  0  0  0  0  0  0
   -5.2629    2.3263   -2.2242 H   0  0  0  0  0  0  0  0  0  0  0  0
   -2.8110    2.6635   -2.0120 H   0  0  0  0  0  0  0  0  0  0  0  0
   -1.6440    2.0265    0.0788 H   0  0  0  0  0  0  0  0  0  0  0  0
  1  2  1  0  0  0  0
  1 28  1  0  0  0  0
  2  3  1  0  0  0  0
  3  5  1  0  0  0  0
  3  7  1  0  0  0  0
  3  4  1  1  0  0  0
  5  6  1  0  0  0  0
  6 34  1  0  0  0  0
  6 33  1  0  0  0  0
  6 35  1  0  0  0  0
  7 36  1  0  0  0  0
  7  8  1  0  0  0  0
  8  9  2  0  0  0  0
  9 10  2  0  0  0  0
 10 17  1  0  0  0  0
 10 11  1  0  0  0  0
 11 12  1  0  0  0  0
 11 15  1  0  0  0  0
 12 14  1  0  0  0  0
 13 40  1  0  0  0  0
 13 38  1  0  0  0  0
 13 12  1  0  0  0  0
 14 42  1  0  0  0  0
 14 43  1  0  0  0  0
 14 41  1  0  0  0  0
 15 44  1  0  0  0  0
 16 15  2  0  0  0  0
 17 16  2  0  0  0  0
 18 20  1  0  0  0  0
 18 17  1  0  0  0  0
 19  8  2  0  0  0  0
 19 18  2  0  0  0  0
 20 45  1  0  0  0  0
 21 46  1  0  0  0  0
 21 20  1  0  0  0  0
 22 21  1  0  0  0  0
 23 22  1  0  0  0  0
 23 48  1  0  0  0  0
 24 23  2  0  0  0  0
 25 26  2  0  0  0  0
 25 24  1  0  0  0  0
 26 27  1  0  0  0  0
 27 52  1  0  0  0  0
 27 22  2  0  0  0  0
 29  2  1  0  0  0  0
 30  2  1  0  0  0  0
 31  5  1  0  0  0  0
 32  5  1  0  0  0  0
 37 12  1  0  0  0  0
 39 13  1  0  0  0  0
 47 21  1  0  0  0  0
 49 24  1  0  0  0  0
 50 25  1  0  0  0  0
 51 26  1  0  0  0  0
M  END
$$$$
