rmsd213.gzmat
 OpenBabel08211713373D

 52 54  0  0  1  0  0  0  0  0999 V2000
    0.0000    0.0000    0.0000 O   0  0  0  0  0  0  0  0  0  0  0  0
    1.4078    0.0000    0.0000 C   0  0  0  0  0  0  0  0  0  0  0  0
    1.9397    0.0000    1.4591 C   0  0  1  0  0  0  0  0  0  0  0  0
    1.1186   -0.3799    2.1311 H   0  0  0  0  0  0  0  0  0  0  0  0
    3.1809   -0.9028    1.5923 C   0  0  0  0  0  0  0  0  0  0  0  0
    3.5659   -1.1143    3.0546 C   0  0  0  0  0  0  0  0  0  0  0  0
    2.2943    1.3758    1.8449 N   0  0  0  0  0  0  0  0  0  0  0  0
    1.3634    2.2542    2.3309 C   0  0  0  0  0  0  0  0  0  0  0  0
    0.0326    1.9241    2.2403 N   0  0  0  0  0  0  0  0  0  0  0  0
   -0.7964    2.8918    2.6989 C   0  0  0  0  0  0  0  0  0  0  0  0
   -2.1792    2.8954    2.7722 N   0  0  0  0  0  0  0  0  0  0  0  0
   -3.1040    1.8604    2.2933 C   0  0  0  0  0  0  0  0  0  0  0  0
   -3.0581    1.7826    0.7625 C   0  0  0  0  0  0  0  0  0  0  0  0
   -2.7495    0.5089    2.9221 C   0  0  0  0  0  0  0  0  0  0  0  0
   -2.5490    4.1689    3.2856 C   0  0  0  0  0  0  0  0  0  0  0  0
   -1.4876    4.9193    3.5596 N   0  0  0  0  0  0  0  0  0  0  0  0
   -0.3692    4.1658    3.2144 C   0  0  0  0  0  0  0  0  0  0  0  0
    1.0336    4.3990    3.2661 C   0  0  0  0  0  0  0  0  0  0  0  0
    1.8862    3.4243    2.8327 N   0  0  0  0  0  0  0  0  0  0  0  0
    1.6218    5.5327    3.7167 N   0  0  0  0  0  0  0  0  0  0  0  0
    0.8215    6.6499    4.2391 C   0  0  0  0  0  0  0  0  0  0  0  0
    1.7458    7.6864    4.8132 C   0  0  0  0  0  0  0  0  0  0  0  0
    2.3940    8.5857    3.9650 C   0  0  0  0  0  0  0  0  0  0  0  0
    3.2531    9.5449    4.4962 C   0  0  0  0  0  0  0  0  0  0  0  0
    3.4591    9.6111    5.8735 C   0  0  0  0  0  0  0  0  0  0  0  0
    2.8109    8.7131    6.7199 C   0  0  0  0  0  0  0  0  0  0  0  0
    1.9579    7.7465    6.1911 C   0  0  0  0  0  0  0  0  0  0  0  0
   -0.3255    0.6936    0.6303 H   0  0  0  0  0  0  0  0  0  0  0  0
    1.7644    0.8782   -0.5677 H   0  0  0  0  0  0  0  0  0  0  0  0
    1.6662   -0.9241   -0.5437 H   0  0  0  0  0  0  0  0  0  0  0  0
    4.0326   -0.4816    1.0250 H   0  0  0  0  0  0  0  0  0  0  0  0
    2.9660   -1.8833    1.1212 H   0  0  0  0  0  0  0  0  0  0  0  0
    3.7864   -0.1668    3.5619 H   0  0  0  0  0  0  0  0  0  0  0  0
    4.4546   -1.7486    3.1454 H   0  0  0  0  0  0  0  0  0  0  0  0
    2.7585   -1.6002    3.6170 H   0  0  0  0  0  0  0  0  0  0  0  0
    3.2735    1.6094    1.9585 H   0  0  0  0  0  0  0  0  0  0  0  0
   -4.1358    2.1659    2.6216 H   0  0  0  0  0  0  0  0  0  0  0  0
   -2.0627    1.4816    0.4015 H   0  0  0  0  0  0  0  0  0  0  0  0
   -3.2908    2.7461    0.2964 H   0  0  0  0  0  0  0  0  0  0  0  0
   -3.7699    1.0405    0.3843 H   0  0  0  0  0  0  0  0  0  0  0  0
   -1.7509    0.1675    2.6037 H   0  0  0  0  0  0  0  0  0  0  0  0
   -3.4663   -0.2636    2.6262 H   0  0  0  0  0  0  0  0  0  0  0  0
   -2.7322    0.5605    4.0165 H   0  0  0  0  0  0  0  0  0  0  0  0
   -3.5777    4.4461    3.4356 H   0  0  0  0  0  0  0  0  0  0  0  0
    2.6311    5.6092    3.7316 H   0  0  0  0  0  0  0  0  0  0  0  0
    0.0909    6.2730    5.0009 H   0  0  0  0  0  0  0  0  0  0  0  0
    0.1884    7.0735    3.4177 H   0  0  0  0  0  0  0  0  0  0  0  0
    2.2283    8.5376    2.8891 H   0  0  0  0  0  0  0  0  0  0  0  0
    3.7637   10.2436    3.8366 H   0  0  0  0  0  0  0  0  0  0  0  0
    4.1269   10.3634    6.2881 H   0  0  0  0  0  0  0  0  0  0  0  0
    2.9715    8.7664    7.7946 H   0  0  0  0  0  0  0  0  0  0  0  0
    1.4603    7.0383    6.8531 H   0  0  0  0  0  0  0  0  0  0  0  0
  1 28  1  0  0  0  0
  2  1  1  0  0  0  0
  2  3  1  0  0  0  0
  3  5  1  0  0  0  0
  3  7  1  0  0  0  0
  3  4  1  1  0  0  0
  5  6  1  0  0  0  0
  6 34  1  0  0  0  0
  6 33  1  0  0  0  0
  6 35  1  0  0  0  0
  7 36  1  0  0  0  0
  7  8  1  0  0  0  0
  8 19  2  0  0  0  0
  9  8  2  0  0  0  0
  9 10  2  0  0  0  0
 10 11  1  0  0  0  0
 10 17  1  0  0  0  0
 11 15  1  0  0  0  0
 12 37  1  0  0  0  0
 12 11  1  0  0  0  0
 12 14  1  0  0  0  0
 13 12  1  0  0  0  0
 14 43  1  0  0  0  0
 15 44  1  0  0  0  0
 15 16  2  0  0  0  0
 17 18  1  0  0  0  0
 17 16  2  0  0  0  0
 18 20  1  0  0  0  0
 19 18  2  0  0  0  0
 20 45  1  0  0  0  0
 20 21  1  0  0  0  0
 21 22  1  0  0  0  0
 21 46  1  0  0  0  0
 22 27  2  0  0  0  0
 23 24  2  0  0  0  0
 23 22  1  0  0  0  0
 24 25  1  0  0  0  0
 25 50  1  0  0  0  0
 25 26  2  0  0  0  0
 26 51  1  0  0  0  0
 27 26  1  0  0  0  0
 27 52  1  0  0  0  0
 29  2  1  0  0  0  0
 30  2  1  0  0  0  0
 31  5  1  0  0  0  0
 32  5  1  0  0  0  0
 38 13  1  0  0  0  0
 39 13  1  0  0  0  0
 40 13  1  0  0  0  0
 41 14  1  0  0  0  0
 42 14  1  0  0  0  0
 47 21  1  0  0  0  0
 48 23  1  0  0  0  0
 49 24  1  0  0  0  0
M  END
$$$$
