39
rmsd126.gzmat
O          0.00000        0.00000        0.00000
C          1.19880        0.00000        0.00000
O          1.83340        0.00000        1.20110
C          2.07110       -0.03230       -1.23210
C          3.31320        0.77950       -1.08140
C          3.21970        2.15530       -0.85700
C          4.37520        2.91520       -0.72990
C          5.63830        2.32480       -0.81830
O          6.83930        2.96350       -0.80220
C          6.92670        4.10550       -0.01730
C          7.45450        5.22480       -0.65110
C          7.64500        6.37640        0.10930
C          7.28540        6.36240        1.45710
O          7.42770        7.46320        2.24410
C          6.75010        5.22740        2.09620
C          6.58840        4.07510        1.33580
C          6.32780        5.28580        3.53660
C          4.79410        5.26470        3.60520
C          6.92490        4.11950        4.33310
C          5.71100        0.94270       -1.03990
C          4.56760        0.17130       -1.17950
Cl         7.23360        0.20100       -1.14030
Cl         4.20480        4.58630       -0.48170
H          2.81610        0.02890        1.15870
H          1.47670        0.33220       -2.10720
H          2.29120       -1.09580       -1.48080
H          2.23650        2.63150       -0.78660
H          7.70300        5.19530       -1.71050
H          8.05480        7.27190       -0.34870
H          7.81060        8.22640        1.74840
H          6.18980        3.16510        1.78180
H          6.69120        6.24180        3.99880
H          4.38390        4.32700        3.21480
H          4.36110        6.08140        3.01520
H          4.44480        5.37780        4.63650
H          6.50720        3.15610        4.02350
H          6.72550        4.23460        5.40420
H          8.01190        4.06720        4.20260
H          4.64780       -0.90160       -1.36790
