39
rmsd66.gzmat
O          0.00000        0.00000        0.00000
C          1.19960        0.00000        0.00000
O          1.82800        0.00000        1.20260
C          2.05620        0.02760       -1.24380
C          3.43540       -0.49630       -1.02950
C          4.51370        0.38740       -0.92440
C          5.78890       -0.11540       -0.71620
C          6.02390       -1.49340       -0.62390
O          7.33250       -1.85330       -0.51950
C          7.59070       -2.98670        0.24340
C          7.26360       -3.02650        1.59340
C          7.62860       -4.15650        2.32110
C          8.30100       -5.19090        1.66890
O          8.67070       -6.32370        2.32500
C          8.64160       -5.14280        0.30380
C          8.27870       -4.00830       -0.41280
C          9.35390       -6.29090       -0.35340
C          8.48570       -6.86480       -1.48150
C         10.71430       -5.82890       -0.89130
C          4.93480       -2.36070       -0.73930
C          3.64930       -1.87360       -0.93640
Cl         5.15050       -4.04280       -0.65800
Cl         7.09340        0.95810       -0.56660
H          2.81120       -0.00930        1.17170
H          2.06550        1.07120       -1.63760
H          1.53530       -0.55140       -2.04640
H          4.35410        1.46530       -1.00720
H          6.73710       -2.20010        2.06520
H          7.38770       -4.22880        3.37740
H          8.39660       -6.30930        3.27350
H          8.51160       -3.91260       -1.47330
H          9.53330       -7.10520        0.39820
H          8.32280       -6.13520       -2.28200
H          7.50110       -7.16630       -1.10560
H          8.95550       -7.74740       -1.92800
H         10.60590       -5.09820       -1.69920
H         11.28900       -6.67450       -1.28410
H         11.31160       -5.36030       -0.10070
H          2.80560       -2.56470       -1.02370
