39

O          0.66470       -0.05960        1.38760
C          1.75180       -0.12500        0.88760
O          2.87160        0.01920        1.62370
C          1.96190       -0.33070       -0.62220
C          3.26080       -1.00780       -0.97590
C          4.40610       -0.24780       -1.25240
C          5.63730       -0.87700       -1.45660
C          5.75310       -2.27460       -1.40930
O          6.94900       -2.88210       -1.60090
C          7.74530       -3.12710       -0.48990
C          8.95410       -3.77990       -0.71020
C          9.78560       -4.04360        0.37930
C          9.41550       -3.66200        1.67360
O         10.20530       -3.91350        2.75840
C          8.19430       -2.99550        1.89960
C          7.37300       -2.73910        0.79820
C          7.79350       -2.61410        3.31440
C          6.77340       -1.47360        3.37780
C          7.28680       -3.85110        4.07740
C          4.59490       -3.02540       -1.13910
C          3.36400       -2.40500       -0.92980
Cl         4.72700       -4.75300       -1.03750
Cl         7.05990        0.07310       -1.75200
H          3.65820       -0.10570        1.06790
H          1.90910        0.66970       -1.08320
H          1.09070       -0.89400       -0.98200
H          4.35530        0.84120       -1.30770
H          9.23200       -4.07280       -1.72340
H         10.73940       -4.55590        0.22050
H         11.01470       -4.35410        2.47080
H          6.42590       -2.22600        0.95130
H          8.71410       -2.27510        3.81800
H          5.78930       -1.77750        2.98320
H          7.11160       -0.59320        2.80890
H          6.61510       -1.16360        4.42200
H          6.37310       -4.24800        3.60540
H          7.04830       -3.59520        5.12240
H          8.04530       -4.64670        4.08370
H          2.49030       -3.02000       -0.71000
