39
rmsd64.gzmat
O          0.00000        0.00000        0.00000
C          1.19830        0.00000        0.00000
O          1.83480        0.00000        1.20020
C          2.07640        0.03520       -1.22920
C          3.22350       -0.91210       -1.11920
C          4.51540       -0.43160       -0.90210
C          5.57500       -1.32580       -0.80280
C          5.37050       -2.70130       -0.91790
O          6.33760       -3.65910       -0.94900
C          7.42700       -3.45920       -0.11140
C          8.67490       -3.56920       -0.71530
C          9.80260       -3.46670        0.09500
C          9.63460       -3.25070        1.46340
O         10.70110       -3.12190        2.29890
C          8.37030       -3.15070        2.07370
C          7.24990       -3.26470        1.25830
C          8.24310       -2.91640        3.55230
C          7.59670       -1.54700        3.80320
C          7.41870       -4.03770        4.19820
C          4.06370       -3.16560       -1.12480
C          2.99700       -2.28860       -1.23380
Cl         3.78920       -4.83440       -1.23850
Cl         7.13190       -0.69700       -0.54760
H          2.81560       -0.06720        1.15570
H          2.41120        1.08290       -1.40300
H          1.45530       -0.20140       -2.12800
H          4.69920        0.64280       -0.82650
H          8.75780       -3.72560       -1.78940
H         10.79540       -3.54670       -0.33750
H         11.55930       -3.18960        1.81580
H          6.24720       -3.19890        1.67810
H          9.26170       -2.91590        4.02480
H          6.57850       -1.49780        3.40360
H          8.17600       -0.74640        3.32850
H          7.54450       -1.32820        4.87510
H          6.38030       -4.03370        3.85020
H          7.40140       -3.93600        5.28850
H          7.84180       -5.02140        3.96410
H          1.98360       -2.66500       -1.40180
