rmsd64.gzmat
 OpenBabel08211713373D

 39 40  0  0  0  0  0  0  0  0999 V2000
    0.0000    0.0000    0.0000 O   0  0  0  0  0  0  0  0  0  0  0  0
    1.1983    0.0000    0.0000 C   0  0  0  0  0  0  0  0  0  0  0  0
    1.8348    0.0000    1.2002 O   0  0  0  0  0  0  0  0  0  0  0  0
    2.0764    0.0352   -1.2292 C   0  0  0  0  0  0  0  0  0  0  0  0
    3.2235   -0.9121   -1.1192 C   0  0  0  0  0  0  0  0  0  0  0  0
    4.5154   -0.4316   -0.9021 C   0  0  0  0  0  0  0  0  0  0  0  0
    5.5750   -1.3258   -0.8028 C   0  0  0  0  0  0  0  0  0  0  0  0
    5.3705   -2.7013   -0.9179 C   0  0  0  0  0  0  0  0  0  0  0  0
    6.3376   -3.6591   -0.9490 O   0  0  0  0  0  0  0  0  0  0  0  0
    7.4270   -3.4592   -0.1114 C   0  0  0  0  0  0  0  0  0  0  0  0
    8.6749   -3.5692   -0.7153 C   0  0  0  0  0  0  0  0  0  0  0  0
    9.8026   -3.4667    0.0950 C   0  0  0  0  0  0  0  0  0  0  0  0
    9.6346   -3.2507    1.4634 C   0  0  0  0  0  0  0  0  0  0  0  0
   10.7011   -3.1219    2.2989 O   0  0  0  0  0  0  0  0  0  0  0  0
    8.3703   -3.1507    2.0737 C   0  0  0  0  0  0  0  0  0  0  0  0
    7.2499   -3.2647    1.2583 C   0  0  0  0  0  0  0  0  0  0  0  0
    8.2431   -2.9164    3.5523 C   0  0  0  0  0  0  0  0  0  0  0  0
    7.5967   -1.5470    3.8032 C   0  0  0  0  0  0  0  0  0  0  0  0
    7.4187   -4.0377    4.1982 C   0  0  0  0  0  0  0  0  0  0  0  0
    4.0637   -3.1656   -1.1248 C   0  0  0  0  0  0  0  0  0  0  0  0
    2.9970   -2.2886   -1.2338 C   0  0  0  0  0  0  0  0  0  0  0  0
    3.7892   -4.8344   -1.2385 Cl  0  0  0  0  0  0  0  0  0  0  0  0
    7.1319   -0.6970   -0.5476 Cl  0  0  0  0  0  0  0  0  0  0  0  0
    2.8156   -0.0672    1.1557 H   0  0  0  0  0  0  0  0  0  0  0  0
    2.4112    1.0829   -1.4030 H   0  0  0  0  0  0  0  0  0  0  0  0
    1.4553   -0.2014   -2.1280 H   0  0  0  0  0  0  0  0  0  0  0  0
    4.6992    0.6428   -0.8265 H   0  0  0  0  0  0  0  0  0  0  0  0
    8.7578   -3.7256   -1.7894 H   0  0  0  0  0  0  0  0  0  0  0  0
   10.7954   -3.5467   -0.3375 H   0  0  0  0  0  0  0  0  0  0  0  0
   11.5593   -3.1896    1.8158 H   0  0  0  0  0  0  0  0  0  0  0  0
    6.2472   -3.1989    1.6781 H   0  0  0  0  0  0  0  0  0  0  0  0
    9.2617   -2.9159    4.0248 H   0  0  0  0  0  0  0  0  0  0  0  0
    6.5785   -1.4978    3.4036 H   0  0  0  0  0  0  0  0  0  0  0  0
    8.1760   -0.7464    3.3285 H   0  0  0  0  0  0  0  0  0  0  0  0
    7.5445   -1.3282    4.8751 H   0  0  0  0  0  0  0  0  0  0  0  0
    6.3803   -4.0337    3.8502 H   0  0  0  0  0  0  0  0  0  0  0  0
    7.4014   -3.9360    5.2885 H   0  0  0  0  0  0  0  0  0  0  0  0
    7.8418   -5.0214    3.9641 H   0  0  0  0  0  0  0  0  0  0  0  0
    1.9836   -2.6650   -1.4018 H   0  0  0  0  0  0  0  0  0  0  0  0
  2  1  2  0  0  0  0
  2  3  1  0  0  0  0
  4  5  1  0  0  0  0
  4  2  1  0  0  0  0
  5  6  2  0  0  0  0
  6 27  1  0  0  0  0
  6  7  1  0  0  0  0
  7 23  1  0  0  0  0
  8  7  2  0  0  0  0
  9  8  1  0  0  0  0
  9 10  1  0  0  0  0
 10 16  1  0  0  0  0
 11 10  2  0  0  0  0
 11 12  1  0  0  0  0
 12 13  2  0  0  0  0
 13 15  1  0  0  0  0
 13 14  1  0  0  0  0
 15 17  1  0  0  0  0
 16 31  1  0  0  0  0
 16 15  2  0  0  0  0
 17 18  1  0  0  0  0
 17 32  1  0  0  0  0
 17 19  1  0  0  0  0
 18 35  1  0  0  0  0
 19 37  1  0  0  0  0
 20  8  1  0  0  0  0
 21 20  2  0  0  0  0
 21  5  1  0  0  0  0
 22 20  1  0  0  0  0
 24  3  1  0  0  0  0
 25  4  1  0  0  0  0
 26  4  1  0  0  0  0
 28 11  1  0  0  0  0
 29 12  1  0  0  0  0
 30 14  1  0  0  0  0
 33 18  1  0  0  0  0
 34 18  1  0  0  0  0
 36 19  1  0  0  0  0
 38 19  1  0  0  0  0
 39 21  1  0  0  0  0
M  END
$$$$
