39
rmsd84.gzmat
O          0.00000        0.00000        0.00000
C          1.19820        0.00000        0.00000
O          1.83430        0.00000        1.20050
C          2.07520        0.03050       -1.23050
C          3.22530       -0.91150       -1.10940
C          4.51790       -0.42450       -0.89740
C          5.56790       -1.32070       -0.75810
C          5.36070       -2.70170       -0.83990
O          6.47930       -3.47900       -0.77710
C          6.33970       -4.65790       -0.05320
C          5.91250       -4.64510        1.26920
C          5.87500       -5.85580        1.95650
C          6.26520       -7.02010        1.29390
O          6.24070       -8.23200        1.91220
C          6.70320       -7.03000       -0.04370
C          6.74170       -5.81610       -0.72030
C          7.09320       -8.31580       -0.71600
C          6.13970       -8.59830       -1.88500
C          8.54640       -8.23990       -1.20270
C          4.06400       -3.16870       -1.06970
C          2.99980       -2.28780       -1.20190
Cl         3.76030       -4.83350       -1.20060
Cl         7.13350       -0.73410       -0.47360
H          2.81540       -0.05850        1.15740
H          2.40360        1.07790       -1.41560
H          1.45450       -0.21910       -2.12570
H          4.70270        0.65060       -0.84620
H          5.61390       -3.71730        1.75150
H          5.54210       -5.88940        2.98950
H          5.94530       -8.16240        2.85150
H          7.06860       -5.75970       -1.75860
H          7.01300       -9.16450        0.01420
H          6.17730       -7.80740       -2.64190
H          5.10250       -8.67110       -1.53700
H          6.39270       -9.54250       -2.37840
H          8.65910       -7.53860       -2.03610
H          8.89860       -9.21920       -1.54390
H          9.21510       -7.91080       -0.39890
H          1.98810       -2.66550       -1.37800
