39

O          1.11900        1.23720        1.37340
C          2.02040        0.56930        0.95190
O          2.74110       -0.22850        1.76370
C          2.45860        0.60140       -0.52140
C          3.13150       -0.65700       -1.00700
C          4.52230       -0.80610       -0.89830
C          5.13610       -2.00240       -1.27770
C          4.38360       -3.07380       -1.78630
O          4.97650       -4.21550       -2.20840
C          5.37360       -5.15940       -1.27200
C          4.88720       -5.18450        0.03070
C          5.33470       -6.18960        0.89440
C          6.24840       -7.15160        0.46090
O          6.70480       -8.14120        1.28280
C          6.73910       -7.13170       -0.86450
C          6.28510       -6.12110       -1.71270
C          7.75770       -8.17310       -1.29520
C          7.82260       -8.38090       -2.80980
C          9.14620       -7.83020       -0.72560
C          2.98950       -2.91530       -1.87950
C          2.36970       -1.72380       -1.50230
Cl         2.03900       -4.24300       -2.46910
Cl         6.85890       -2.17440       -1.14470
H          3.39200       -0.73130        1.24710
H          3.13900        1.46380       -0.62080
H          1.56010        0.83790       -1.10640
H          5.14590        0.01210       -0.53290
H          4.16690       -4.44280        0.37710
H          4.96000       -6.22410        1.92190
H          6.28190       -8.06100        2.14710
H          6.63330       -6.05520       -2.74300
H          7.44320       -9.12390       -0.83320
H          8.22290       -7.49340       -3.32660
H          6.83110       -8.60190       -3.23440
H          8.49110       -9.22260       -3.04810
H          9.50840       -6.87520       -1.14020
H          9.87720       -8.61370       -0.98310
H          9.11200       -7.74060        0.36930
H          1.28560       -1.63950       -1.58940
