39
rmsd95.gzmat
O          0.00000        0.00000        0.00000
C          1.19860        0.00000        0.00000
O          1.83320        0.00000        1.20110
C          2.07310        0.03960       -1.23170
C          3.25120       -0.86740       -1.11320
C          4.52050       -0.34340       -0.86700
C          5.61110       -1.19870       -0.75910
C          5.45880       -2.57990       -0.88690
O          6.45560       -3.50690       -0.89050
C          7.52790       -3.24880       -0.04440
C          7.34810       -3.20040        1.33250
C          8.47430       -3.02370        2.13260
C          9.72330       -2.90280        1.52170
O         10.85540       -2.71140        2.25110
C          9.90460       -2.96680        0.12740
C          8.77520       -3.14860       -0.66230
C         11.27090       -2.82130       -0.48050
C         11.61620       -4.06550       -1.30910
C         11.31930       -1.55420       -1.34540
C          4.17430       -3.08810       -1.12980
C          3.07880       -2.24960       -1.25130
Cl         3.96280       -4.76440       -1.27240
Cl         7.13870       -0.50880       -0.48130
H          2.81320       -0.07700        1.16070
H          2.37380        1.09460       -1.42450
H          1.45590       -0.23040       -2.12370
H          4.66280        0.73600       -0.77480
H          6.35670       -3.29640        1.76980
H          8.37640       -2.97710        3.21270
H         10.66980       -2.67440        3.22020
H          8.84910       -3.20080       -1.74870
H         12.03870       -2.71970        0.33200
H         10.95350       -4.17680       -2.17380
H         11.52730       -4.97640       -0.70550
H         12.64430       -4.01550       -1.68390
H         10.59360       -1.59170       -2.16500
H         12.31200       -1.41640       -1.78700
H         11.09480       -0.66280       -0.74780
H          2.08410       -2.66010       -1.44720
