rmsd7.gzmat
 OpenBabel08211713373D

 39 40  0  0  0  0  0  0  0  0999 V2000
    0.0000    0.0000    0.0000 O   0  0  0  0  0  0  0  0  0  0  0  0
    1.1990    0.0000    0.0000 C   0  0  0  0  0  0  0  0  0  0  0  0
    1.8301    0.0000    1.2016 O   0  0  0  0  0  0  0  0  0  0  0  0
    2.0614    0.0392   -1.2397 C   0  0  0  0  0  0  0  0  0  0  0  0
    3.3624   -0.6693   -1.0697 C   0  0  0  0  0  0  0  0  0  0  0  0
    4.5241    0.0553   -0.7852 C   0  0  0  0  0  0  0  0  0  0  0  0
    5.7242   -0.6184   -0.6237 C   0  0  0  0  0  0  0  0  0  0  0  0
    5.8060   -2.0118   -0.7594 C   0  0  0  0  0  0  0  0  0  0  0  0
    7.0654   -2.5175   -0.6722 O   0  0  0  0  0  0  0  0  0  0  0  0
    7.1753   -3.8244   -0.2108 C   0  0  0  0  0  0  0  0  0  0  0  0
    6.8430   -4.1372    1.1016 C   0  0  0  0  0  0  0  0  0  0  0  0
    7.0616   -5.4419    1.5372 C   0  0  0  0  0  0  0  0  0  0  0  0
    7.5966   -6.3709    0.6436 C   0  0  0  0  0  0  0  0  0  0  0  0
    7.8191   -7.6620    1.0093 O   0  0  0  0  0  0  0  0  0  0  0  0
    7.9404   -6.0490   -0.6830 C   0  0  0  0  0  0  0  0  0  0  0  0
    7.7285   -4.7417   -1.1053 C   0  0  0  0  0  0  0  0  0  0  0  0
    8.4894   -7.0945   -1.6120 C   0  0  0  0  0  0  0  0  0  0  0  0
    7.5178   -7.3040   -2.7820 C   0  0  0  0  0  0  0  0  0  0  0  0
    9.8767   -6.6812   -2.1192 C   0  0  0  0  0  0  0  0  0  0  0  0
    4.6357   -2.7165   -1.0511 C   0  0  0  0  0  0  0  0  0  0  0  0
    3.4213   -2.0584   -1.2011 C   0  0  0  0  0  0  0  0  0  0  0  0
    4.6534   -4.4031   -1.2514 Cl  0  0  0  0  0  0  0  0  0  0  0  0
    7.1275    0.2601   -0.2529 Cl  0  0  0  0  0  0  0  0  0  0  0  0
    2.8130   -0.0192    1.1657 H   0  0  0  0  0  0  0  0  0  0  0  0
    2.2059    1.1045   -1.5353 H   0  0  0  0  0  0  0  0  0  0  0  0
    1.4818   -0.3960   -2.0907 H   0  0  0  0  0  0  0  0  0  0  0  0
    4.4878    1.1438   -0.6981 H   0  0  0  0  0  0  0  0  0  0  0  0
    6.4219   -3.3853    1.7653 H   0  0  0  0  0  0  0  0  0  0  0  0
    6.8131   -5.7282    2.5547 H   0  0  0  0  0  0  0  0  0  0  0  0
    7.5555   -7.8328    1.9458 H   0  0  0  0  0  0  0  0  0  0  0  0
    7.9736   -4.4304   -2.1207 H   0  0  0  0  0  0  0  0  0  0  0  0
    8.5940   -8.0698   -1.0661 H   0  0  0  0  0  0  0  0  0  0  0  0
    7.4043   -6.3967   -3.3849 H   0  0  0  0  0  0  0  0  0  0  0  0
    6.5213   -7.5845   -2.4202 H   0  0  0  0  0  0  0  0  0  0  0  0
    7.8671   -8.1024   -3.4453 H   0  0  0  0  0  0  0  0  0  0  0  0
    9.8387   -5.7571   -2.7050 H   0  0  0  0  0  0  0  0  0  0  0  0
   10.3094   -7.4600   -2.7566 H   0  0  0  0  0  0  0  0  0  0  0  0
   10.5675   -6.5155   -1.2846 H   0  0  0  0  0  0  0  0  0  0  0  0
    2.5126   -2.6247   -1.4268 H   0  0  0  0  0  0  0  0  0  0  0  0
  1  2  2  0  0  0  0
  2  3  1  0  0  0  0
  4  5  1  0  0  0  0
  4  2  1  0  0  0  0
  5  6  1  0  0  0  0
  6 27  1  0  0  0  0
  6  7  2  0  0  0  0
  7 23  1  0  0  0  0
  8  9  1  0  0  0  0
  8  7  1  0  0  0  0
  9 10  1  0  0  0  0
 10 11  2  0  0  0  0
 11 12  1  0  0  0  0
 11 28  1  0  0  0  0
 12 29  1  0  0  0  0
 13 14  1  0  0  0  0
 13 12  2  0  0  0  0
 14 30  1  0  0  0  0
 15 13  1  0  0  0  0
 16 15  2  0  0  0  0
 16 10  1  0  0  0  0
 17 32  1  0  0  0  0
 17 15  1  0  0  0  0
 18 34  1  0  0  0  0
 18 17  1  0  0  0  0
 19 17  1  0  0  0  0
 19 38  1  0  0  0  0
 20  8  2  0  0  0  0
 21  5  2  0  0  0  0
 21 20  1  0  0  0  0
 22 20  1  0  0  0  0
 24  3  1  0  0  0  0
 25  4  1  0  0  0  0
 26  4  1  0  0  0  0
 31 16  1  0  0  0  0
 33 18  1  0  0  0  0
 35 18  1  0  0  0  0
 36 19  1  0  0  0  0
 37 19  1  0  0  0  0
 39 21  1  0  0  0  0
M  END
$$$$
