rmsd112.gzmat
 OpenBabel08211713373D

 39 40  0  0  0  0  0  0  0  0999 V2000
    0.0000    0.0000    0.0000 O   0  0  0  0  0  0  0  0  0  0  0  0
    1.1982    0.0000    0.0000 C   0  0  0  0  0  0  0  0  0  0  0  0
    1.8347    0.0000    1.2001 O   0  0  0  0  0  0  0  0  0  0  0  0
    2.0746    0.0309   -1.2306 C   0  0  0  0  0  0  0  0  0  0  0  0
    3.2091   -0.9314   -1.1217 C   0  0  0  0  0  0  0  0  0  0  0  0
    4.4995   -0.4709   -0.8449 C   0  0  0  0  0  0  0  0  0  0  0  0
    5.5361   -1.3841   -0.7246 C   0  0  0  0  0  0  0  0  0  0  0  0
    5.3218   -2.7578   -0.8935 C   0  0  0  0  0  0  0  0  0  0  0  0
    6.4412   -3.5321   -0.8458 O   0  0  0  0  0  0  0  0  0  0  0  0
    6.2756   -4.7968   -0.2923 C   0  0  0  0  0  0  0  0  0  0  0  0
    5.8712   -4.9485    1.0284 C   0  0  0  0  0  0  0  0  0  0  0  0
    5.8108   -6.2388    1.5495 C   0  0  0  0  0  0  0  0  0  0  0  0
    6.1516   -7.3144    0.7282 C   0  0  0  0  0  0  0  0  0  0  0  0
    6.0967   -8.5976    1.1766 O   0  0  0  0  0  0  0  0  0  0  0  0
    6.5667   -7.1576   -0.6080 C   0  0  0  0  0  0  0  0  0  0  0  0
    6.6327   -5.8655   -1.1160 C   0  0  0  0  0  0  0  0  0  0  0  0
    6.8790   -8.3541   -1.4613 C   0  0  0  0  0  0  0  0  0  0  0  0
    5.7581   -8.5341   -2.4958 C   0  0  0  0  0  0  0  0  0  0  0  0
    8.2396   -8.1950   -2.1513 C   0  0  0  0  0  0  0  0  0  0  0  0
    4.0276   -3.1969   -1.1834 C   0  0  0  0  0  0  0  0  0  0  0  0
    2.9749   -2.2983   -1.2940 C   0  0  0  0  0  0  0  0  0  0  0  0
    3.7027   -4.8462   -1.4237 Cl  0  0  0  0  0  0  0  0  0  0  0  0
    7.0970   -0.8286   -0.3599 Cl  0  0  0  0  0  0  0  0  0  0  0  0
    2.8167   -0.0504    1.1568 H   0  0  0  0  0  0  0  0  0  0  0  0
    2.4222    1.0741   -1.4039 H   0  0  0  0  0  0  0  0  0  0  0  0
    1.4483   -0.1956   -2.1277 H   0  0  0  0  0  0  0  0  0  0  0  0
    4.6938    0.5978   -0.7308 H   0  0  0  0  0  0  0  0  0  0  0  0
    5.6075   -4.0848    1.6345 H   0  0  0  0  0  0  0  0  0  0  0  0
    5.4963   -6.4002    2.5762 H   0  0  0  0  0  0  0  0  0  0  0  0
    5.8065   -8.6489    2.1189 H   0  0  0  0  0  0  0  0  0  0  0  0
    6.9421   -5.6785   -2.1444 H   0  0  0  0  0  0  0  0  0  0  0  0
    6.9206   -9.2752   -0.8208 H   0  0  0  0  0  0  0  0  0  0  0  0
    5.6597   -7.6559   -3.1442 H   0  0  0  0  0  0  0  0  0  0  0  0
    4.7906   -8.6883   -2.0027 H   0  0  0  0  0  0  0  0  0  0  0  0
    5.9469   -9.4024   -3.1352 H   0  0  0  0  0  0  0  0  0  0  0  0
    8.2313   -7.3886   -2.8923 H   0  0  0  0  0  0  0  0  0  0  0  0
    8.5251   -9.1155   -2.6715 H   0  0  0  0  0  0  0  0  0  0  0  0
    9.0267   -7.9684   -1.4229 H   0  0  0  0  0  0  0  0  0  0  0  0
    1.9649   -2.6563   -1.5171 H   0  0  0  0  0  0  0  0  0  0  0  0
  2  1  2  0  0  0  0
  2  3  1  0  0  0  0
  4  5  1  0  0  0  0
  4  2  1  0  0  0  0
  5  6  2  0  0  0  0
  6 27  1  0  0  0  0
  6  7  1  0  0  0  0
  7 23  1  0  0  0  0
  8  9  1  0  0  0  0
  8  7  2  0  0  0  0
  9 10  1  0  0  0  0
 10 11  2  0  0  0  0
 11 12  1  0  0  0  0
 11 28  1  0  0  0  0
 12 29  1  0  0  0  0
 13 14  1  0  0  0  0
 13 12  2  0  0  0  0
 14 30  1  0  0  0  0
 15 13  1  0  0  0  0
 16 15  2  0  0  0  0
 16 10  1  0  0  0  0
 17 32  1  0  0  0  0
 17 15  1  0  0  0  0
 18 34  1  0  0  0  0
 18 17  1  0  0  0  0
 19 17  1  0  0  0  0
 19 38  1  0  0  0  0
 20  8  1  0  0  0  0
 21 20  2  0  0  0  0
 21  5  1  0  0  0  0
 22 20  1  0  0  0  0
 24  3  1  0  0  0  0
 25  4  1  0  0  0  0
 26  4  1  0  0  0  0
 31 16  1  0  0  0  0
 33 18  1  0  0  0  0
 35 18  1  0  0  0  0
 36 19  1  0  0  0  0
 37 19  1  0  0  0  0
 39 21  1  0  0  0  0
M  END
$$$$
