
     RDKit          3D

 39 40  0  0  0  0  0  0  0  0999 V2000
    1.1190    1.2372    1.3734 O   0  0  0  0  0  0  0  0  0  0  0  0
    2.0204    0.5693    0.9519 C   0  0  0  0  0  0  0  0  0  0  0  0
    2.7411   -0.2285    1.7637 O   0  0  0  0  0  0  0  0  0  0  0  0
    2.4586    0.6014   -0.5214 C   0  0  0  0  0  0  0  0  0  0  0  0
    3.1315   -0.6570   -1.0070 C   0  0  0  0  0  0  0  0  0  0  0  0
    4.5223   -0.8061   -0.8983 C   0  0  0  0  0  0  0  0  0  0  0  0
    5.1361   -2.0024   -1.2777 C   0  0  0  0  0  0  0  0  0  0  0  0
    4.3836   -3.0738   -1.7863 C   0  0  0  0  0  0  0  0  0  0  0  0
    4.9765   -4.2155   -2.2084 O   0  0  0  0  0  0  0  0  0  0  0  0
    5.3736   -5.1594   -1.2720 C   0  0  0  0  0  0  0  0  0  0  0  0
    4.8872   -5.1845    0.0307 C   0  0  0  0  0  0  0  0  0  0  0  0
    5.3347   -6.1896    0.8944 C   0  0  0  0  0  0  0  0  0  0  0  0
    6.2484   -7.1516    0.4609 C   0  0  0  0  0  0  0  0  0  0  0  0
    6.7048   -8.1412    1.2828 O   0  0  0  0  0  0  0  0  0  0  0  0
    6.7391   -7.1317   -0.8645 C   0  0  0  0  0  0  0  0  0  0  0  0
    6.2851   -6.1211   -1.7127 C   0  0  0  0  0  0  0  0  0  0  0  0
    7.7577   -8.1731   -1.2952 C   0  0  0  0  0  0  0  0  0  0  0  0
    7.8226   -8.3809   -2.8098 C   0  0  0  0  0  0  0  0  0  0  0  0
    9.1462   -7.8302   -0.7256 C   0  0  0  0  0  0  0  0  0  0  0  0
    2.9895   -2.9153   -1.8795 C   0  0  0  0  0  0  0  0  0  0  0  0
    2.3697   -1.7238   -1.5023 C   0  0  0  0  0  0  0  0  0  0  0  0
    2.0390   -4.2430   -2.4691 Cl  0  0  0  0  0  0  0  0  0  0  0  0
    6.8589   -2.1744   -1.1447 Cl  0  0  0  0  0  0  0  0  0  0  0  0
    3.3920   -0.7313    1.2471 H   0  0  0  0  0  0  0  0  0  0  0  0
    3.1390    1.4638   -0.6208 H   0  0  0  0  0  0  0  0  0  0  0  0
    1.5601    0.8379   -1.1064 H   0  0  0  0  0  0  0  0  0  0  0  0
    5.1459    0.0121   -0.5329 H   0  0  0  0  0  0  0  0  0  0  0  0
    4.1669   -4.4428    0.3771 H   0  0  0  0  0  0  0  0  0  0  0  0
    4.9600   -6.2241    1.9219 H   0  0  0  0  0  0  0  0  0  0  0  0
    6.2819   -8.0610    2.1471 H   0  0  0  0  0  0  0  0  0  0  0  0
    6.6333   -6.0552   -2.7430 H   0  0  0  0  0  0  0  0  0  0  0  0
    7.4432   -9.1239   -0.8332 H   0  0  0  0  0  0  0  0  0  0  0  0
    8.2229   -7.4934   -3.3266 H   0  0  0  0  0  0  0  0  0  0  0  0
    6.8311   -8.6019   -3.2344 H   0  0  0  0  0  0  0  0  0  0  0  0
    8.4911   -9.2226   -3.0481 H   0  0  0  0  0  0  0  0  0  0  0  0
    9.5084   -6.8752   -1.1402 H   0  0  0  0  0  0  0  0  0  0  0  0
    9.8772   -8.6137   -0.9831 H   0  0  0  0  0  0  0  0  0  0  0  0
    9.1120   -7.7406    0.3693 H   0  0  0  0  0  0  0  0  0  0  0  0
    1.2856   -1.6395   -1.5894 H   0  0  0  0  0  0  0  0  0  0  0  0
  1  2  2  0
  2  3  1  0
  2  4  1  0
  3 24  1  0
  4  5  1  0
  4 25  1  0
  4 26  1  0
  5  6  2  0
  5 21  1  0
  6  7  1  0
  6 27  1  0
  7  8  2  0
  7 23  1  0
  8  9  1  0
  8 20  1  0
  9 10  1  0
 10 11  2  0
 10 16  1  0
 11 12  1  0
 11 28  1  0
 12 13  2  0
 12 29  1  0
 13 14  1  0
 13 15  1  0
 14 30  1  0
 15 16  2  0
 15 17  1  0
 16 31  1  0
 17 18  1  0
 17 19  1  0
 17 32  1  0
 18 33  1  0
 18 34  1  0
 18 35  1  0
 19 36  1  0
 19 37  1  0
 19 38  1  0
 20 21  2  0
 20 22  1  0
 21 39  1  0
M  END

