rmsd43.gzmat
 OpenBabel08211713363D

 54 58  0  0  1  0  0  0  0  0999 V2000
    0.0000    0.0000    0.0000 O   0  0  0  0  0  0  0  0  0  0  0  0
    1.2013    0.0000    0.0000 C   0  0  0  0  0  0  0  0  0  0  0  0
    1.9913    0.0000    1.1611 N   0  0  0  0  0  0  0  0  0  0  0  0
    1.4421   -0.0834    2.5132 C   0  0  0  0  0  0  0  0  0  0  0  0
    0.8475   -1.4428    2.7709 C   0  0  0  0  0  0  0  0  0  0  0  0
    1.6866   -2.5457    2.9459 C   0  0  0  0  0  0  0  0  0  0  0  0
    1.1466   -3.8100    3.1690 C   0  0  0  0  0  0  0  0  0  0  0  0
   -0.2403   -3.9229    3.2242 C   0  0  0  0  0  0  0  0  0  0  0  0
   -0.7712   -5.1273    3.4001 F   0  0  0  0  0  0  0  0  0  0  0  0
   -1.1030   -2.8376    3.0850 C   0  0  0  0  0  0  0  0  0  0  0  0
   -0.5390   -1.5871    2.8417 C   0  0  0  0  0  0  0  0  0  0  0  0
    3.3785   -0.0557    0.8842 C   0  0  0  0  0  0  0  0  0  0  0  0
    4.2107   -0.2163    1.7305 O   0  0  0  0  0  0  0  0  0  0  0  0
    3.5595    0.1273   -0.6148 C   0  0  1  0  0  0  0  0  0  0  0  0
    4.0128    1.1277   -0.8053 H   0  0  0  0  0  0  0  0  0  0  0  0
    4.4000   -1.0034   -1.2374 C   0  0  1  0  0  0  0  0  0  0  0  0
    4.8215   -1.6690   -0.4410 H   0  0  0  0  0  0  0  0  0  0  0  0
    3.4894   -1.8468   -2.0681 N   0  0  2  0  0  0  0  0  0  0  0  0
    4.0782   -1.9430   -3.4281 C   0  0  0  0  0  0  0  0  0  0  0  0
    5.0736   -0.7777   -3.5857 C   0  0  0  0  0  0  0  0  0  0  0  0
    5.5341   -0.4816   -2.1516 C   0  0  0  0  0  0  0  0  0  0  0  0
    2.1136   -1.2963   -2.0369 C   0  0  1  0  0  0  0  0  0  0  0  0
    1.7474   -1.0656   -3.0752 H   0  0  0  0  0  0  0  0  0  0  0  0
    1.1917   -2.3352   -1.4308 C   0  0  0  0  0  0  0  0  0  0  0  0
    1.6858   -3.3903   -0.6595 C   0  0  0  0  0  0  0  0  0  0  0  0
    0.8161   -4.3277   -0.1162 C   0  0  0  0  0  0  0  0  0  0  0  0
   -0.5583   -4.2123   -0.3496 C   0  0  0  0  0  0  0  0  0  0  0  0
   -1.0601   -3.1617   -1.1261 C   0  0  0  0  0  0  0  0  0  0  0  0
   -0.1844   -2.2282   -1.6643 C   0  0  0  0  0  0  0  0  0  0  0  0
   -1.4826   -5.1859    0.2475 C   0  0  0  0  0  0  0  0  0  0  0  0
   -1.2530   -6.5093    0.1124 N   0  0  0  0  0  0  0  0  0  0  0  0
   -1.8206   -7.2200    0.5471 H   0  0  0  0  0  0  0  0  0  0  0  0
   -0.4677   -6.8392   -0.4355 H   0  0  0  0  0  0  0  0  0  0  0  0
   -2.5770   -4.7517    0.9083 N   0  0  0  0  0  0  0  0  0  0  0  0
    2.1342    0.0175   -1.2078 C   0  0  1  0  0  0  0  0  0  0  0  0
    1.8819    0.8867   -1.8557 H   0  0  0  0  0  0  0  0  0  0  0  0
    0.6785    0.7256    2.6392 H   0  0  0  0  0  0  0  0  0  0  0  0
    2.2614    0.1333    3.2501 H   0  0  0  0  0  0  0  0  0  0  0  0
    2.7732   -2.4139    2.9116 H   0  0  0  0  0  0  0  0  0  0  0  0
    1.7941   -4.6729    3.3213 H   0  0  0  0  0  0  0  0  0  0  0  0
   -2.1772   -2.9421    3.2069 H   0  0  0  0  0  0  0  0  0  0  0  0
   -1.1867   -0.7168    2.7052 H   0  0  0  0  0  0  0  0  0  0  0  0
    3.3137   -1.9624   -4.2238 H   0  0  0  0  0  0  0  0  0  0  0  0
    4.6071   -2.9230   -3.4687 H   0  0  0  0  0  0  0  0  0  0  0  0
    4.5912    0.1024   -4.0428 H   0  0  0  0  0  0  0  0  0  0  0  0
    5.9160   -1.0430   -4.2446 H   0  0  0  0  0  0  0  0  0  0  0  0
    6.4788   -1.0110   -1.9265 H   0  0  0  0  0  0  0  0  0  0  0  0
    5.7478    0.5872   -1.9974 H   0  0  0  0  0  0  0  0  0  0  0  0
    2.7669   -3.4802   -0.4907 H   0  0  0  0  0  0  0  0  0  0  0  0
    1.2137   -5.1303    0.5077 H   0  0  0  0  0  0  0  0  0  0  0  0
   -2.1301   -3.0714   -1.3230 H   0  0  0  0  0  0  0  0  0  0  0  0
   -0.5776   -1.3937   -2.2530 H   0  0  0  0  0  0  0  0  0  0  0  0
   -2.6933   -3.7583    1.0895 H   0  0  0  0  0  0  0  0  0  0  0  0
   -3.2315   -5.3659    1.3681 H   0  0  0  0  0  0  0  0  0  0  0  0
  1  2  2  0  0  0  0
  2  3  1  0  0  0  0
  3  4  1  0  0  0  0
  4 37  1  0  0  0  0
  4  5  1  0  0  0  0
  4 38  1  0  0  0  0
  5 11  2  0  0  0  0
  5  6  1  0  0  0  0
  6  7  2  0  0  0  0
  7  8  1  0  0  0  0
  7 40  1  0  0  0  0
  8  9  1  0  0  0  0
 10 41  1  0  0  0  0
 10  8  2  0  0  0  0
 11 10  1  0  0  0  0
 12  3  1  0  0  0  0
 12 13  2  0  0  0  0
 14 16  1  0  0  0  0
 14 12  1  0  0  0  0
 14 15  1  6  0  0  0
 16 18  1  0  0  0  0
 16 17  1  1  0  0  0
 18 22  1  0  0  0  0
 18 19  1  6  0  0  0
 20 19  1  0  0  0  0
 20 21  1  0  0  0  0
 21 48  1  0  0  0  0
 21 47  1  0  0  0  0
 21 16  1  0  0  0  0
 22 24  1  0  0  0  0
 22 35  1  0  0  0  0
 22 23  1  6  0  0  0
 24 25  1  0  0  0  0
 25 49  1  0  0  0  0
 25 26  2  0  0  0  0
 26 50  1  0  0  0  0
 27 26  1  0  0  0  0
 27 30  1  0  0  0  0
 28 27  2  0  0  0  0
 29 24  2  0  0  0  0
 29 28  1  0  0  0  0
 30 34  1  0  0  0  0
 31 30  2  0  0  0  0
 31 32  1  0  0  0  0
 33 31  1  0  0  0  0
 34 53  1  0  0  0  0
 34 54  1  0  0  0  0
 35 14  1  0  0  0  0
 35  2  1  0  0  0  0
 35 36  1  6  0  0  0
 39  6  1  0  0  0  0
 42 11  1  0  0  0  0
 43 19  1  0  0  0  0
 44 19  1  0  0  0  0
 45 20  1  0  0  0  0
 46 20  1  0  0  0  0
 51 28  1  0  0  0  0
 52 29  1  0  0  0  0
M  END
$$$$
