rmsd207.gzmat
 OpenBabel08211713363D

 54 58  0  0  1  0  0  0  0  0999 V2000
    0.0000    0.0000    0.0000 O   0  0  0  0  0  0  0  0  0  0  0  0
    1.2017    0.0000    0.0000 C   0  0  0  0  0  0  0  0  0  0  0  0
    1.9939    0.0000    1.1579 N   0  0  0  0  0  0  0  0  0  0  0  0
    1.4500   -0.0751    2.5137 C   0  0  0  0  0  0  0  0  0  0  0  0
    0.6850   -1.3561    2.7187 C   0  0  0  0  0  0  0  0  0  0  0  0
    1.3648   -2.5366    3.0235 C   0  0  0  0  0  0  0  0  0  0  0  0
    0.6603   -3.7247    3.2095 C   0  0  0  0  0  0  0  0  0  0  0  0
   -0.7264   -3.6814    3.0968 C   0  0  0  0  0  0  0  0  0  0  0  0
   -1.4115   -4.8089    3.2491 F   0  0  0  0  0  0  0  0  0  0  0  0
   -1.4361   -2.5157    2.8142 C   0  0  0  0  0  0  0  0  0  0  0  0
   -0.7073   -1.3467    2.6099 C   0  0  0  0  0  0  0  0  0  0  0  0
    3.3815   -0.0376    0.8771 C   0  0  0  0  0  0  0  0  0  0  0  0
    4.2191   -0.1683    1.7229 O   0  0  0  0  0  0  0  0  0  0  0  0
    3.5585    0.1257   -0.6259 C   0  0  1  0  0  0  0  0  0  0  0  0
    4.0222    1.1180   -0.8313 H   0  0  0  0  0  0  0  0  0  0  0  0
    4.3850   -1.0210   -1.2345 C   0  0  1  0  0  0  0  0  0  0  0  0
    4.8521   -1.6455   -0.4291 H   0  0  0  0  0  0  0  0  0  0  0  0
    3.4453   -1.9128   -1.9759 N   0  0  2  0  0  0  0  0  0  0  0  0
    4.0499   -2.1891   -3.3027 C   0  0  0  0  0  0  0  0  0  0  0  0
    5.0522   -1.0582   -3.6040 C   0  0  0  0  0  0  0  0  0  0  0  0
    5.4737   -0.5349   -2.2230 C   0  0  0  0  0  0  0  0  0  0  0  0
    2.0982   -1.2935   -2.0413 C   0  0  1  0  0  0  0  0  0  0  0  0
    1.8159   -1.0448   -3.1013 H   0  0  0  0  0  0  0  0  0  0  0  0
    1.0878   -2.2814   -1.4959 C   0  0  0  0  0  0  0  0  0  0  0  0
    1.4770   -3.3436   -0.6753 C   0  0  0  0  0  0  0  0  0  0  0  0
    0.5303   -4.2354   -0.1883 C   0  0  0  0  0  0  0  0  0  0  0  0
   -0.8167   -4.0642   -0.5251 C   0  0  0  0  0  0  0  0  0  0  0  0
   -1.2144   -3.0033   -1.3462 C   0  0  0  0  0  0  0  0  0  0  0  0
   -0.2609   -2.1176   -1.8315 C   0  0  0  0  0  0  0  0  0  0  0  0
   -1.8223   -4.9939    0.0073 C   0  0  0  0  0  0  0  0  0  0  0  0
   -1.6518   -6.3254   -0.1382 N   0  0  0  0  0  0  0  0  0  0  0  0
   -2.2799   -7.0142    0.2451 H   0  0  0  0  0  0  0  0  0  0  0  0
   -0.8527   -6.6843   -0.6465 H   0  0  0  0  0  0  0  0  0  0  0  0
   -2.9272   -4.5126    0.6140 N   0  0  0  0  0  0  0  0  0  0  0  0
    2.1296    0.0193   -1.2126 C   0  0  1  0  0  0  0  0  0  0  0  0
    1.8738    0.8901   -1.8565 H   0  0  0  0  0  0  0  0  0  0  0  0
    0.7951    0.8166    2.6868 H   0  0  0  0  0  0  0  0  0  0  0  0
    2.2962    0.0064    3.2471 H   0  0  0  0  0  0  0  0  0  0  0  0
    2.4544   -2.5297    3.1225 H   0  0  0  0  0  0  0  0  0  0  0  0
    1.1820   -4.6471    3.4618 H   0  0  0  0  0  0  0  0  0  0  0  0
   -2.5216   -2.4960    2.7950 H   0  0  0  0  0  0  0  0  0  0  0  0
   -1.2278   -0.4173    2.3590 H   0  0  0  0  0  0  0  0  0  0  0  0
    3.2925   -2.3113   -4.0961 H   0  0  0  0  0  0  0  0  0  0  0  0
    4.5745   -3.1677   -3.2092 H   0  0  0  0  0  0  0  0  0  0  0  0
    4.5893   -0.2623   -4.2107 H   0  0  0  0  0  0  0  0  0  0  0  0
    5.9138   -1.4232   -4.1866 H   0  0  0  0  0  0  0  0  0  0  0  0
    6.4603   -0.9401   -1.9319 H   0  0  0  0  0  0  0  0  0  0  0  0
    5.5908    0.5597   -2.2214 H   0  0  0  0  0  0  0  0  0  0  0  0
    2.5381   -3.4717   -0.4227 H   0  0  0  0  0  0  0  0  0  0  0  0
    0.8456   -5.0469    0.4699 H   0  0  0  0  0  0  0  0  0  0  0  0
   -2.2626   -2.8664   -1.6178 H   0  0  0  0  0  0  0  0  0  0  0  0
   -0.5724   -1.2767   -2.4578 H   0  0  0  0  0  0  0  0  0  0  0  0
   -3.0037   -3.5168    0.8030 H   0  0  0  0  0  0  0  0  0  0  0  0
   -3.6367   -5.0984    1.0277 H   0  0  0  0  0  0  0  0  0  0  0  0
  1  2  2  0  0  0  0
  2  3  1  0  0  0  0
  3  4  1  0  0  0  0
  4 37  1  0  0  0  0
  4  5  1  0  0  0  0
  4 38  1  0  0  0  0
  5  6  1  0  0  0  0
  6 39  1  0  0  0  0
  6  7  2  0  0  0  0
  7 40  1  0  0  0  0
  8  7  1  0  0  0  0
  8  9  1  0  0  0  0
 10  8  2  0  0  0  0
 11  5  2  0  0  0  0
 11 10  1  0  0  0  0
 12  3  1  0  0  0  0
 12 13  2  0  0  0  0
 14 16  1  0  0  0  0
 14 12  1  0  0  0  0
 14 15  1  6  0  0  0
 16 18  1  0  0  0  0
 16 17  1  1  0  0  0
 18 22  1  0  0  0  0
 18 19  1  6  0  0  0
 19 44  1  0  0  0  0
 20 19  1  0  0  0  0
 20 21  1  0  0  0  0
 21 48  1  0  0  0  0
 21 47  1  0  0  0  0
 21 16  1  0  0  0  0
 22 24  1  0  0  0  0
 22 35  1  0  0  0  0
 22 23  1  6  0  0  0
 24 25  1  0  0  0  0
 25 49  1  0  0  0  0
 25 26  2  0  0  0  0
 26 50  1  0  0  0  0
 27 26  1  0  0  0  0
 27 30  1  0  0  0  0
 28 27  2  0  0  0  0
 29 24  2  0  0  0  0
 29 28  1  0  0  0  0
 30 34  1  0  0  0  0
 31 30  2  0  0  0  0
 31 32  1  0  0  0  0
 33 31  1  0  0  0  0
 34 53  1  0  0  0  0
 34 54  1  0  0  0  0
 35 14  1  0  0  0  0
 35  2  1  0  0  0  0
 35 36  1  6  0  0  0
 41 10  1  0  0  0  0
 42 11  1  0  0  0  0
 43 19  1  0  0  0  0
 45 20  1  0  0  0  0
 46 20  1  0  0  0  0
 51 28  1  0  0  0  0
 52 29  1  0  0  0  0
M  END
$$$$
