rmsd31.gzmat
 OpenBabel08211713363D

 54 58  0  0  1  0  0  0  0  0999 V2000
    0.0000    0.0000    0.0000 O   0  0  0  0  0  0  0  0  0  0  0  0
    1.2017    0.0000    0.0000 C   0  0  0  0  0  0  0  0  0  0  0  0
    1.9939    0.0000    1.1579 N   0  0  0  0  0  0  0  0  0  0  0  0
    1.4521   -0.0905    2.5130 C   0  0  0  0  0  0  0  0  0  0  0  0
    0.7262   -1.3939    2.7182 C   0  0  0  0  0  0  0  0  0  0  0  0
    1.4500   -2.5774    2.8777 C   0  0  0  0  0  0  0  0  0  0  0  0
    0.7851   -3.7882    3.0602 C   0  0  0  0  0  0  0  0  0  0  0  0
   -0.6068   -3.7661    3.0902 C   0  0  0  0  0  0  0  0  0  0  0  0
   -1.2564   -4.9160    3.2312 F   0  0  0  0  0  0  0  0  0  0  0  0
   -1.3572   -2.5994    2.9585 C   0  0  0  0  0  0  0  0  0  0  0  0
   -0.6695   -1.4049    2.7568 C   0  0  0  0  0  0  0  0  0  0  0  0
    3.3815   -0.0305    0.8765 C   0  0  0  0  0  0  0  0  0  0  0  0
    4.2201   -0.1678    1.7201 O   0  0  0  0  0  0  0  0  0  0  0  0
    3.5558    0.1498   -0.6246 C   0  0  1  0  0  0  0  0  0  0  0  0
    4.0020    1.1521   -0.8190 H   0  0  0  0  0  0  0  0  0  0  0  0
    4.4001   -0.9779   -1.2397 C   0  0  1  0  0  0  0  0  0  0  0  0
    4.9215   -1.5679   -0.4412 H   0  0  0  0  0  0  0  0  0  0  0  0
    3.4628   -1.9178   -1.9222 N   0  0  2  0  0  0  0  0  0  0  0  0
    4.0723   -2.2670   -3.2290 C   0  0  0  0  0  0  0  0  0  0  0  0
    5.0333   -1.1253   -3.6155 C   0  0  0  0  0  0  0  0  0  0  0  0
    5.4296   -0.4742   -2.2815 C   0  0  0  0  0  0  0  0  0  0  0  0
    2.1157   -1.3018   -2.0296 C   0  0  1  0  0  0  0  0  0  0  0  0
    1.8608   -1.0615   -3.0986 H   0  0  0  0  0  0  0  0  0  0  0  0
    1.0884   -2.2805   -1.5010 C   0  0  0  0  0  0  0  0  0  0  0  0
    1.4584   -3.3735   -0.7133 C   0  0  0  0  0  0  0  0  0  0  0  0
    0.4910   -4.2365   -0.2140 C   0  0  0  0  0  0  0  0  0  0  0  0
   -0.8579   -4.0047   -0.5035 C   0  0  0  0  0  0  0  0  0  0  0  0
   -1.2340   -2.9256   -1.3120 C   0  0  0  0  0  0  0  0  0  0  0  0
   -0.2606   -2.0707   -1.8117 C   0  0  0  0  0  0  0  0  0  0  0  0
   -1.8880   -4.8735    0.0817 C   0  0  0  0  0  0  0  0  0  0  0  0
   -1.7776   -6.2161   -0.0035 N   0  0  0  0  0  0  0  0  0  0  0  0
   -2.4210   -6.8567    0.4351 H   0  0  0  0  0  0  0  0  0  0  0  0
   -1.0065   -6.6356   -0.5076 H   0  0  0  0  0  0  0  0  0  0  0  0
   -2.9601   -4.3200    0.6881 N   0  0  0  0  0  0  0  0  0  0  0  0
    2.1296    0.0203   -1.2130 C   0  0  1  0  0  0  0  0  0  0  0  0
    1.8637    0.8806   -1.8662 H   0  0  0  0  0  0  0  0  0  0  0  0
    0.7734    0.7829    2.6867 H   0  0  0  0  0  0  0  0  0  0  0  0
    2.2960    0.0120    3.2474 H   0  0  0  0  0  0  0  0  0  0  0  0
    2.5442   -2.5539    2.8621 H   0  0  0  0  0  0  0  0  0  0  0  0
    1.3440   -4.7127    3.1996 H   0  0  0  0  0  0  0  0  0  0  0  0
   -2.4394   -2.6016    3.0528 H   0  0  0  0  0  0  0  0  0  0  0  0
   -1.2274   -0.4735    2.6263 H   0  0  0  0  0  0  0  0  0  0  0  0
    3.3158   -2.4705   -4.0063 H   0  0  0  0  0  0  0  0  0  0  0  0
    4.6301   -3.2184   -3.0706 H   0  0  0  0  0  0  0  0  0  0  0  0
    4.5420   -0.3990   -4.2842 H   0  0  0  0  0  0  0  0  0  0  0  0
    5.9112   -1.5015   -4.1657 H   0  0  0  0  0  0  0  0  0  0  0  0
    6.4516   -0.7706   -1.9832 H   0  0  0  0  0  0  0  0  0  0  0  0
    5.4498    0.6240   -2.3597 H   0  0  0  0  0  0  0  0  0  0  0  0
    2.5203   -3.5439   -0.4886 H   0  0  0  0  0  0  0  0  0  0  0  0
    0.7937   -5.0704    0.4217 H   0  0  0  0  0  0  0  0  0  0  0  0
   -2.2825   -2.7483   -1.5588 H   0  0  0  0  0  0  0  0  0  0  0  0
   -0.5559   -1.2136   -2.4237 H   0  0  0  0  0  0  0  0  0  0  0  0
   -2.9913   -3.3147    0.8345 H   0  0  0  0  0  0  0  0  0  0  0  0
   -3.6851   -4.8575    1.1381 H   0  0  0  0  0  0  0  0  0  0  0  0
  1  2  2  0  0  0  0
  2  3  1  0  0  0  0
  3  4  1  0  0  0  0
  4 37  1  0  0  0  0
  4  5  1  0  0  0  0
  4 38  1  0  0  0  0
  5 11  2  0  0  0  0
  5  6  1  0  0  0  0
  6  7  2  0  0  0  0
  7  8  1  0  0  0  0
  7 40  1  0  0  0  0
  8  9  1  0  0  0  0
 10 41  1  0  0  0  0
 10  8  2  0  0  0  0
 11 10  1  0  0  0  0
 12  3  1  0  0  0  0
 12 13  2  0  0  0  0
 14 16  1  0  0  0  0
 14 12  1  0  0  0  0
 14 15  1  6  0  0  0
 16 18  1  0  0  0  0
 16 17  1  1  0  0  0
 18 22  1  0  0  0  0
 18 19  1  6  0  0  0
 19 44  1  0  0  0  0
 20 19  1  0  0  0  0
 20 21  1  0  0  0  0
 21 47  1  0  0  0  0
 21 16  1  0  0  0  0
 22 24  1  0  0  0  0
 22 35  1  0  0  0  0
 22 23  1  6  0  0  0
 24 25  1  0  0  0  0
 25 49  1  0  0  0  0
 25 26  2  0  0  0  0
 26 50  1  0  0  0  0
 27 26  1  0  0  0  0
 27 30  1  0  0  0  0
 28 27  2  0  0  0  0
 29 24  2  0  0  0  0
 29 28  1  0  0  0  0
 30 34  1  0  0  0  0
 31 30  2  0  0  0  0
 31 32  1  0  0  0  0
 33 31  1  0  0  0  0
 34 53  1  0  0  0  0
 34 54  1  0  0  0  0
 35 14  1  0  0  0  0
 35  2  1  0  0  0  0
 35 36  1  6  0  0  0
 39  6  1  0  0  0  0
 42 11  1  0  0  0  0
 43 19  1  0  0  0  0
 45 20  1  0  0  0  0
 46 20  1  0  0  0  0
 48 21  1  0  0  0  0
 51 28  1  0  0  0  0
 52 29  1  0  0  0  0
M  END
$$$$
