54
rmsd214.gzmat
O          0.00000        0.00000        0.00000
C          1.20180        0.00000        0.00000
N          1.99240        0.00000        1.15900
C          1.44400       -0.11410        2.50940
C          0.77080       -1.44630        2.71100
C          1.53000       -2.61880        2.69450
C          0.91400       -3.85710        2.85710
C         -0.46550       -3.87630        3.04740
F         -1.07340       -5.05100        3.16180
C         -1.24590       -2.72370        3.10510
C         -0.60820       -1.49860        2.92200
C          3.38040       -0.03100        0.87780
O          4.21850       -0.17950        1.72000
C          3.55500        0.16820       -0.62180
H          3.98990        1.17730       -0.80460
C          4.40890       -0.94240       -1.24990
H          5.00560       -1.48340       -0.46970
N          3.46550       -1.93620       -1.83890
C          4.08290       -2.41400       -3.09950
C          5.04580       -1.31770       -3.60160
C          5.34320       -0.43670       -2.37700
C          2.13130       -1.30580       -2.02150
H          1.93450       -1.06770       -3.10320
C          1.06310       -2.26290       -1.54040
C          1.38570       -3.41330       -0.81660
C          0.38100       -4.25340       -0.35230
C         -0.95510       -3.93240       -0.60700
C         -1.28690       -2.79570       -1.35190
C         -0.27570       -1.97030       -1.82560
C         -2.02370       -4.76810       -0.04030
N         -2.09170       -6.08140       -0.34130
H         -2.77250       -6.71060        0.05470
H         -1.43210       -6.49040       -0.99230
N         -2.94350       -4.20080        0.76690
C          2.12990        0.02290       -1.21280
H          1.85650        0.87580       -1.87140
H          0.73010        0.73200        2.67580
H          2.27710        0.01920        3.25130
H          2.61460       -2.56340        2.55620
H          1.50160       -4.77430        2.85850
H         -2.30750       -2.76400        3.33370
H         -1.19300       -0.57530        2.94620
H          3.32900       -2.69730       -3.85420
H          4.64180       -3.34310       -2.84330
H          4.59170       -0.72980       -4.41590
H          5.96640       -1.75630       -4.02120
H          6.40020       -0.52030       -2.06930
H          5.18230        0.62840       -2.60730
H          2.43950       -3.64530       -0.60810
H          0.64500       -5.13820        0.22950
H         -2.32880       -2.54940       -1.56430
H         -0.53260       -1.07000       -2.39150
H         -2.82420       -3.23170        1.05700
H         -3.68430       -4.71360        1.21920
