54
rmsd97.gzmat
O          0.00000        0.00000        0.00000
C          1.20190        0.00000        0.00000
N          1.99280        0.00000        1.15900
C          1.44560       -0.07110        2.51300
C          0.74570       -1.38350        2.74920
C          1.49290       -2.54290        2.96620
C          0.85260       -3.76200        3.17770
C         -0.53970       -3.77150        3.18120
F         -1.16520       -4.93080        3.35150
C         -1.31430       -2.62840        2.99390
C         -0.65010       -1.42650        2.76020
C          3.38110       -0.03460        0.87840
O          4.21820       -0.18630        1.72090
C          3.55560        0.17010       -0.62000
H          3.97940        1.18610       -0.79550
C          4.42380       -0.92300       -1.26130
H          4.98720       -1.49790       -0.48090
N          3.50250       -1.89090       -1.92550
C          4.10210       -2.22840       -3.23960
C          5.01750       -1.05780       -3.64960
C          5.40410       -0.37480       -2.32850
C          2.13810       -1.31040       -2.01540
H          1.85730       -1.08960       -3.08170
C          1.14860       -2.31140       -1.45750
C          1.56530       -3.39000       -0.67320
C          0.63330       -4.27760       -0.15120
C         -0.72690       -4.08720       -0.41770
C         -1.14980       -3.01990       -1.21880
C         -0.21180       -2.13760       -1.73800
C         -1.71970       -4.99130        0.17730
N         -1.55180       -6.32920        0.10940
H         -2.16930       -6.99010        0.55480
H         -0.76430       -6.72210       -0.39100
N         -2.81700       -4.47790        0.77410
C          2.13200        0.01970       -1.21100
H          1.85940        0.87160       -1.87250
H          0.74640        0.79100        2.66060
H          2.28310        0.06740        3.24800
H          2.58630       -2.49310        2.97390
H          1.42890       -4.66870        3.35920
H         -2.39750       -2.65190        3.07040
H         -1.22580       -0.51360        2.58240
H          3.33900       -2.46190       -4.00220
H          4.69430       -3.15960       -3.08600
H          4.49480       -0.35900       -4.32360
H          5.90250       -1.41070       -4.20410
H          6.44620       -0.61170       -2.04840
H          5.36230        0.72190       -2.41730
H          2.63620       -3.52950       -0.46960
H          0.97170       -5.09800        0.48410
H         -2.20720       -2.87440       -1.44670
H         -0.54380       -1.28790       -2.34160
H         -2.88890       -3.47390        0.91460
H         -3.52000       -5.04150        1.22700
