54
rmsd35.gzmat
O          0.00000        0.00000        0.00000
C          1.20170        0.00000        0.00000
N          1.99340        0.00000        1.15880
C          1.44760       -0.09980        2.51160
C          0.77330       -1.42940        2.72450
C          1.54210       -2.58570        2.87380
C          0.92520       -3.82160        3.05510
C         -0.46620       -3.85140        3.09720
F         -1.07250       -5.02500        3.23480
C         -1.26050       -2.71260        2.98020
C         -0.62040       -1.49270        2.77610
C          3.38100       -0.03690        0.87770
O          4.21780       -0.19140        1.72010
C          3.55570        0.16580       -0.62100
H          3.98490        1.17830       -0.80010
C          4.41700       -0.93760       -1.25360
H          4.98570       -1.50230       -0.46900
N          3.48680       -1.91150       -1.89400
C          4.09220       -2.30470       -3.18900
C          5.05180       -1.17900       -3.62440
C          5.39150       -0.41200       -2.33650
C          2.13250       -1.31290       -2.01350
H          1.87560       -1.08790       -3.08490
C          1.12000       -2.30110       -1.47440
C         -0.23370       -2.10940       -1.77400
C         -1.19050       -2.98230       -1.27290
C         -0.79190       -4.06020       -0.47420
C          0.56140       -4.26920       -0.18880
C          1.51160       -3.38880       -0.68970
C         -1.80180       -4.95680        0.10380
N         -2.88300       -4.43400        0.72120
H         -3.59580       -4.99250        1.16470
H         -2.93630       -3.43140        0.87900
N         -1.66270       -6.29540        0.00080
C          2.13120        0.01880       -1.21160
H          1.85960        0.87030       -1.87380
H          0.73300        0.74700        2.67130
H          2.28180        0.04240        3.24980
H          2.63430       -2.52000        2.85000
H          1.51900       -4.72560        3.18420
H         -2.34020       -2.75600        3.08720
H         -1.21360       -0.58260        2.65330
H          3.33210       -2.53620       -3.95550
H          4.65150       -3.24930       -2.99910
H          4.58110       -0.51840       -4.37130
H          5.95570       -1.58660       -4.10710
H          6.43750       -0.59070       -2.02970
H          5.30600        0.67550       -2.48720
H         -0.54600       -1.25380       -2.38030
H         -2.24320       -2.82080       -1.51250
H          0.88080       -5.09880        0.44460
H          2.57710       -3.54280       -0.46940
H         -0.88360       -6.69110       -0.51050
H         -2.29120       -6.95500        0.43240
