rmsd75.gzmat
 OpenBabel08211713393D

 51 53  0  0  0  0  0  0  0  0999 V2000
    0.0000    0.0000    0.0000 C   0  0  0  0  0  0  0  0  0  0  0  0
    1.5419    0.0000    0.0000 C   0  0  0  0  0  0  0  0  0  0  0  0
    2.0935    0.0000    1.4222 C   0  0  0  0  0  0  0  0  0  0  0  0
    1.6944    1.2867    2.1734 C   0  0  0  0  0  0  0  0  0  0  0  0
    0.2193    1.5754    2.0084 C   0  0  0  0  0  0  0  0  0  0  0  0
   -0.3800    2.4938    2.8791 C   0  0  0  0  0  0  0  0  0  0  0  0
   -1.7247    2.8180    2.7846 C   0  0  0  0  0  0  0  0  0  0  0  0
   -2.5047    2.2093    1.7867 C   0  0  0  0  0  0  0  0  0  0  0  0
   -1.9181    1.2991    0.9094 C   0  0  0  0  0  0  0  0  0  0  0  0
   -0.5573    0.9892    1.0038 C   0  0  0  0  0  0  0  0  0  0  0  0
   -3.8691    2.5871    1.7097 N   0  0  0  0  0  0  0  0  0  0  0  0
   -4.8296    1.9665    0.9207 C   0  0  0  0  0  0  0  0  0  0  0  0
   -4.6008    1.0145    0.2110 O   0  0  0  0  0  0  0  0  0  0  0  0
   -6.1940    2.5709    1.0233 C   0  0  0  0  0  0  0  0  0  0  0  0
   -6.3992    3.9179    0.7278 C   0  0  0  0  0  0  0  0  0  0  0  0
   -7.6854    4.4450    0.8014 C   0  0  0  0  0  0  0  0  0  0  0  0
   -8.7498    3.6171    1.1696 C   0  0  0  0  0  0  0  0  0  0  0  0
   -8.5432    2.2656    1.4501 C   0  0  0  0  0  0  0  0  0  0  0  0
   -7.2555    1.7391    1.3731 C   0  0  0  0  0  0  0  0  0  0  0  0
  -10.0912    4.2180    1.2491 C   0  0  0  0  0  0  0  0  0  0  0  0
  -10.3943    5.3746    1.1027 O   0  0  0  0  0  0  0  0  0  0  0  0
  -11.0427    3.2872    1.5266 O   0  0  0  0  0  0  0  0  0  0  0  0
    2.0503    1.0776    3.6589 C   0  0  0  0  0  0  0  0  0  0  0  0
    2.4824    2.4906    1.6249 C   0  0  0  0  0  0  0  0  0  0  0  0
   -0.4622    0.3716   -1.4225 C   0  0  0  0  0  0  0  0  0  0  0  0
   -0.5289   -1.3986    0.3648 C   0  0  0  0  0  0  0  0  0  0  0  0
    1.9182   -0.8781   -0.5562 H   0  0  0  0  0  0  0  0  0  0  0  0
    1.9171    0.8849   -0.5495 H   0  0  0  0  0  0  0  0  0  0  0  0
    3.1936   -0.1012    1.4051 H   0  0  0  0  0  0  0  0  0  0  0  0
    1.7175   -0.8833    1.9738 H   0  0  0  0  0  0  0  0  0  0  0  0
    0.2220    2.9726    3.6525 H   0  0  0  0  0  0  0  0  0  0  0  0
   -2.1610    3.5305    3.4773 H   0  0  0  0  0  0  0  0  0  0  0  0
   -2.5202    0.8174    0.1343 H   0  0  0  0  0  0  0  0  0  0  0  0
   -4.1552    3.3473    2.3194 H   0  0  0  0  0  0  0  0  0  0  0  0
   -5.5655    4.5521    0.4257 H   0  0  0  0  0  0  0  0  0  0  0  0
   -7.8683    5.4988    0.5719 H   0  0  0  0  0  0  0  0  0  0  0  0
   -9.3863    1.6254    1.7242 H   0  0  0  0  0  0  0  0  0  0  0  0
   -7.0784    0.6799    1.5717 H   0  0  0  0  0  0  0  0  0  0  0  0
  -11.9557    3.6665    1.5792 H   0  0  0  0  0  0  0  0  0  0  0  0
    1.3745    0.3536    4.1272 H   0  0  0  0  0  0  0  0  0  0  0  0
    1.9880    2.0079    4.2314 H   0  0  0  0  0  0  0  0  0  0  0  0
    3.0729    0.7018    3.7688 H   0  0  0  0  0  0  0  0  0  0  0  0
    2.2339    2.6802    0.5745 H   0  0  0  0  0  0  0  0  0  0  0  0
    3.5612    2.3222    1.6888 H   0  0  0  0  0  0  0  0  0  0  0  0
    2.2510    3.4050    2.1810 H   0  0  0  0  0  0  0  0  0  0  0  0
   -0.2573    1.4252   -1.6407 H   0  0  0  0  0  0  0  0  0  0  0  0
   -1.5389    0.2133   -1.5576 H   0  0  0  0  0  0  0  0  0  0  0  0
    0.0478   -0.2364   -2.1762 H   0  0  0  0  0  0  0  0  0  0  0  0
   -0.2135   -1.6927    1.3716 H   0  0  0  0  0  0  0  0  0  0  0  0
   -0.1670   -2.1563   -0.3368 H   0  0  0  0  0  0  0  0  0  0  0  0
   -1.6255   -1.4257    0.3492 H   0  0  0  0  0  0  0  0  0  0  0  0
  1 26  1  0  0  0  0
  1 10  1  0  0  0  0
  2  1  1  0  0  0  0
  2  3  1  0  0  0  0
  3 30  1  0  0  0  0
  3  4  1  0  0  0  0
  4 23  1  0  0  0  0
  5  4  1  0  0  0  0
  5  6  2  0  0  0  0
  6 31  1  0  0  0  0
  7  6  1  0  0  0  0
  7 32  1  0  0  0  0
  8  7  2  0  0  0  0
  9 10  2  0  0  0  0
  9  8  1  0  0  0  0
 10  5  1  0  0  0  0
 11  8  1  0  0  0  0
 11 34  1  0  0  0  0
 12 14  1  0  0  0  0
 12 11  1  0  0  0  0
 13 12  2  0  0  0  0
 14 19  2  0  0  0  0
 15 16  2  0  0  0  0
 15 14  1  0  0  0  0
 16 17  1  0  0  0  0
 17 20  1  0  0  0  0
 17 18  2  0  0  0  0
 18 37  1  0  0  0  0
 19 18  1  0  0  0  0
 19 38  1  0  0  0  0
 20 22  1  0  0  0  0
 21 20  2  0  0  0  0
 22 39  1  0  0  0  0
 23 42  1  0  0  0  0
 23 40  1  0  0  0  0
 23 41  1  0  0  0  0
 24 44  1  0  0  0  0
 24  4  1  0  0  0  0
 24 45  1  0  0  0  0
 25  1  1  0  0  0  0
 26 49  1  0  0  0  0
 27  2  1  0  0  0  0
 28  2  1  0  0  0  0
 29  3  1  0  0  0  0
 33  9  1  0  0  0  0
 35 15  1  0  0  0  0
 36 16  1  0  0  0  0
 43 24  1  0  0  0  0
 46 25  1  0  0  0  0
 47 25  1  0  0  0  0
 48 25  1  0  0  0  0
 50 26  1  0  0  0  0
 51 26  1  0  0  0  0
M  END
$$$$
