
     RDKit          3D

 51 53  0  0  0  0  0  0  0  0999 V2000
    0.0173   -0.1600    0.0834 C   0  0  0  0  0  0  0  0  0  0  0  0
    1.5578   -0.1287    0.0785 C   0  0  0  0  0  0  0  0  0  0  0  0
    2.1455    0.0417    1.4699 C   0  0  0  0  0  0  0  0  0  0  0  0
    1.7524    1.3826    2.1189 C   0  0  0  0  0  0  0  0  0  0  0  0
    0.2530    1.6460    1.9244 C   0  0  0  0  0  0  0  0  0  0  0  0
   -0.3661    2.6469    2.6948 C   0  0  0  0  0  0  0  0  0  0  0  0
   -1.7127    2.9563    2.5680 C   0  0  0  0  0  0  0  0  0  0  0  0
   -2.5032    2.2543    1.6446 C   0  0  0  0  0  0  0  0  0  0  0  0
   -1.9041    1.2644    0.8605 C   0  0  0  0  0  0  0  0  0  0  0  0
   -0.5377    0.9589    0.9778 C   0  0  0  0  0  0  0  0  0  0  0  0
   -3.8655    2.5982    1.5527 N   0  0  0  0  0  0  0  0  0  0  0  0
   -4.8430    2.0427    0.7665 C   0  0  0  0  0  0  0  0  0  0  0  0
   -4.6680    1.0929    0.0195 O   0  0  0  0  0  0  0  0  0  0  0  0
   -6.2003    2.6856    0.8984 C   0  0  0  0  0  0  0  0  0  0  0  0
   -6.3971    4.0096    1.3242 C   0  0  0  0  0  0  0  0  0  0  0  0
   -7.6819    4.5401    1.4053 C   0  0  0  0  0  0  0  0  0  0  0  0
   -8.7898    3.7541    1.0595 C   0  0  0  0  0  0  0  0  0  0  0  0
   -8.5979    2.4360    0.6176 C   0  0  0  0  0  0  0  0  0  0  0  0
   -7.3112    1.9121    0.5307 C   0  0  0  0  0  0  0  0  0  0  0  0
  -10.1437    4.3677    1.1691 C   0  0  0  0  0  0  0  0  0  0  0  0
  -10.3566    5.4983    1.5400 O   0  0  0  0  0  0  0  0  0  0  0  0
  -11.1336    3.5257    0.8088 O   0  0  0  0  0  0  0  0  0  0  0  0
    2.1166    1.3060    3.6139 C   0  0  0  0  0  0  0  0  0  0  0  0
    2.5492    2.5374    1.4737 C   0  0  0  0  0  0  0  0  0  0  0  0
   -0.4630    0.0008   -1.3716 C   0  0  0  0  0  0  0  0  0  0  0  0
   -0.4849   -1.5166    0.6240 C   0  0  0  0  0  0  0  0  0  0  0  0
    1.9313   -1.0554   -0.3875 H   0  0  0  0  0  0  0  0  0  0  0  0
    1.8970    0.6968   -0.5693 H   0  0  0  0  0  0  0  0  0  0  0  0
    3.2453   -0.0301    1.4368 H   0  0  0  0  0  0  0  0  0  0  0  0
    1.8041   -0.7825    2.1180 H   0  0  0  0  0  0  0  0  0  0  0  0
    0.2251    3.2068    3.4211 H   0  0  0  0  0  0  0  0  0  0  0  0
   -2.1554    3.7420    3.1873 H   0  0  0  0  0  0  0  0  0  0  0  0
   -2.5290    0.7269    0.1549 H   0  0  0  0  0  0  0  0  0  0  0  0
   -4.1675    3.3103    2.2051 H   0  0  0  0  0  0  0  0  0  0  0  0
   -5.5458    4.6510    1.5643 H   0  0  0  0  0  0  0  0  0  0  0  0
   -7.8508    5.5687    1.7273 H   0  0  0  0  0  0  0  0  0  0  0  0
   -9.4620    1.8311    0.3420 H   0  0  0  0  0  0  0  0  0  0  0  0
   -7.1362    0.8957    0.1751 H   0  0  0  0  0  0  0  0  0  0  0  0
  -11.9657    4.0167    0.9143 H   0  0  0  0  0  0  0  0  0  0  0  0
    1.4987    0.5571    4.1331 H   0  0  0  0  0  0  0  0  0  0  0  0
    1.9881    2.2695    4.1288 H   0  0  0  0  0  0  0  0  0  0  0  0
    3.1734    1.0149    3.7265 H   0  0  0  0  0  0  0  0  0  0  0  0
    2.3481    2.6158    0.3952 H   0  0  0  0  0  0  0  0  0  0  0  0
    3.6325    2.3866    1.6131 H   0  0  0  0  0  0  0  0  0  0  0  0
    2.2777    3.5022    1.9287 H   0  0  0  0  0  0  0  0  0  0  0  0
   -0.2076    0.9977   -1.7632 H   0  0  0  0  0  0  0  0  0  0  0  0
   -1.5490   -0.1358   -1.4737 H   0  0  0  0  0  0  0  0  0  0  0  0
    0.0259   -0.7528   -2.0099 H   0  0  0  0  0  0  0  0  0  0  0  0
   -0.1447   -1.6945    1.6549 H   0  0  0  0  0  0  0  0  0  0  0  0
   -0.1187   -2.3424   -0.0078 H   0  0  0  0  0  0  0  0  0  0  0  0
   -1.5846   -1.5510    0.6292 H   0  0  0  0  0  0  0  0  0  0  0  0
  1  2  1  0
  1 10  1  0
  1 25  1  0
  1 26  1  0
  2  3  1  0
  2 27  1  0
  2 28  1  0
  3  4  1  0
  3 29  1  0
  3 30  1  0
  4  5  1  0
  4 23  1  0
  4 24  1  0
  5  6  1  0
  5 10  2  0
  6  7  2  0
  6 31  1  0
  7  8  1  0
  7 32  1  0
  8  9  2  0
  8 11  1  0
  9 10  1  0
  9 33  1  0
 11 12  1  0
 11 34  1  0
 12 13  2  0
 12 14  1  0
 14 15  2  0
 14 19  1  0
 15 16  1  0
 15 35  1  0
 16 17  2  0
 16 36  1  0
 17 18  1  0
 17 20  1  0
 18 19  2  0
 18 37  1  0
 19 38  1  0
 20 21  2  0
 20 22  1  0
 22 39  1  0
 23 40  1  0
 23 41  1  0
 23 42  1  0
 24 43  1  0
 24 44  1  0
 24 45  1  0
 25 46  1  0
 25 47  1  0
 25 48  1  0
 26 49  1  0
 26 50  1  0
 26 51  1  0
M  END

