
     RDKit          3D

 51 53  0  0  0  0  0  0  0  0999 V2000
    0.0116   -0.1439    0.0756 C   0  0  0  0  0  0  0  0  0  0  0  0
    1.5521   -0.1130    0.0729 C   0  0  0  0  0  0  0  0  0  0  0  0
    2.1383    0.0362    1.4674 C   0  0  0  0  0  0  0  0  0  0  0  0
    1.7448    1.3673    2.1362 C   0  0  0  0  0  0  0  0  0  0  0  0
    0.2457    1.6340    1.9440 C   0  0  0  0  0  0  0  0  0  0  0  0
   -0.3742    2.6231    2.7289 C   0  0  0  0  0  0  0  0  0  0  0  0
   -1.7206    2.9346    2.6053 C   0  0  0  0  0  0  0  0  0  0  0  0
   -2.5103    2.2469    1.6704 C   0  0  0  0  0  0  0  0  0  0  0  0
   -1.9104    1.2691    0.8719 C   0  0  0  0  0  0  0  0  0  0  0  0
   -0.5442    0.9616    0.9861 C   0  0  0  0  0  0  0  0  0  0  0  0
   -3.8723    2.5925    1.5820 N   0  0  0  0  0  0  0  0  0  0  0  0
   -4.8497    2.0470    0.7882 C   0  0  0  0  0  0  0  0  0  0  0  0
   -4.6745    1.1070    0.0291 O   0  0  0  0  0  0  0  0  0  0  0  0
   -6.2067    2.6887    0.9274 C   0  0  0  0  0  0  0  0  0  0  0  0
   -6.4008    4.0103    1.3591 C   0  0  0  0  0  0  0  0  0  0  0  0
   -7.6852    4.5451    1.4468 C   0  0  0  0  0  0  0  0  0  0  0  0
   -8.7941    3.7601    1.1010 C   0  0  0  0  0  0  0  0  0  0  0  0
   -8.6034    2.4439    0.6537 C   0  0  0  0  0  0  0  0  0  0  0  0
   -7.3199    1.9172    0.5591 C   0  0  0  0  0  0  0  0  0  0  0  0
  -10.1883    4.2807    1.1826 C   0  0  0  0  0  0  0  0  0  0  0  0
  -11.1759    3.6464    0.8958 O   0  0  0  0  0  0  0  0  0  0  0  0
  -10.2491    5.5568    1.6179 O   0  0  0  0  0  0  0  0  0  0  0  0
    2.1072    1.2680    3.6303 C   0  0  0  0  0  0  0  0  0  0  0  0
    2.5426    2.5315    1.5093 C   0  0  0  0  0  0  0  0  0  0  0  0
   -0.4670    0.0388   -1.3773 C   0  0  0  0  0  0  0  0  0  0  0  0
   -0.4916   -1.5083    0.5953 C   0  0  0  0  0  0  0  0  0  0  0  0
    1.9258   -1.0327   -0.4065 H   0  0  0  0  0  0  0  0  0  0  0  0
    1.8922    0.7221   -0.5619 H   0  0  0  0  0  0  0  0  0  0  0  0
    3.2381   -0.0353    1.4345 H   0  0  0  0  0  0  0  0  0  0  0  0
    1.7960   -0.7976    2.1027 H   0  0  0  0  0  0  0  0  0  0  0  0
    0.2163    3.1716    3.4645 H   0  0  0  0  0  0  0  0  0  0  0  0
   -2.1639    3.7107    3.2362 H   0  0  0  0  0  0  0  0  0  0  0  0
   -2.5345    0.7423    0.1577 H   0  0  0  0  0  0  0  0  0  0  0  0
   -4.1753    3.2945    2.2448 H   0  0  0  0  0  0  0  0  0  0  0  0
   -5.5475    4.6490    1.5991 H   0  0  0  0  0  0  0  0  0  0  0  0
   -7.8349    5.5739    1.7743 H   0  0  0  0  0  0  0  0  0  0  0  0
   -9.4799    1.8533    0.3822 H   0  0  0  0  0  0  0  0  0  0  0  0
   -7.1477    0.9023    0.1982 H   0  0  0  0  0  0  0  0  0  0  0  0
  -11.1906    5.7973    1.6337 H   0  0  0  0  0  0  0  0  0  0  0  0
    1.4886    0.5114    4.1373 H   0  0  0  0  0  0  0  0  0  0  0  0
    1.9783    2.2236    4.1596 H   0  0  0  0  0  0  0  0  0  0  0  0
    3.1639    0.9751    3.7397 H   0  0  0  0  0  0  0  0  0  0  0  0
    2.3427    2.6261    0.4319 H   0  0  0  0  0  0  0  0  0  0  0  0
    3.6256    2.3783    1.6477 H   0  0  0  0  0  0  0  0  0  0  0  0
    2.2707    3.4894    1.9785 H   0  0  0  0  0  0  0  0  0  0  0  0
   -0.2107    1.0414   -1.7537 H   0  0  0  0  0  0  0  0  0  0  0  0
   -1.5529   -0.0958   -1.4827 H   0  0  0  0  0  0  0  0  0  0  0  0
    0.0223   -0.7054   -2.0262 H   0  0  0  0  0  0  0  0  0  0  0  0
   -0.1530   -1.7015    1.6240 H   0  0  0  0  0  0  0  0  0  0  0  0
   -0.1247   -2.3248   -0.0482 H   0  0  0  0  0  0  0  0  0  0  0  0
   -1.5913   -1.5426    0.5983 H   0  0  0  0  0  0  0  0  0  0  0  0
  1  2  1  0
  1 10  1  0
  1 25  1  0
  1 26  1  0
  2  3  1  0
  2 27  1  0
  2 28  1  0
  3  4  1  0
  3 29  1  0
  3 30  1  0
  4  5  1  0
  4 23  1  0
  4 24  1  0
  5  6  1  0
  5 10  2  0
  6  7  2  0
  6 31  1  0
  7  8  1  0
  7 32  1  0
  8  9  2  0
  8 11  1  0
  9 10  1  0
  9 33  1  0
 11 12  1  0
 11 34  1  0
 12 13  2  0
 12 14  1  0
 14 15  2  0
 14 19  1  0
 15 16  1  0
 15 35  1  0
 16 17  2  0
 16 36  1  0
 17 18  1  0
 17 20  1  0
 18 19  2  0
 18 37  1  0
 19 38  1  0
 20 21  2  0
 20 22  1  0
 22 39  1  0
 23 40  1  0
 23 41  1  0
 23 42  1  0
 24 43  1  0
 24 44  1  0
 24 45  1  0
 25 46  1  0
 25 47  1  0
 25 48  1  0
 26 49  1  0
 26 50  1  0
 26 51  1  0
M  END

