rmsd68.gzmat
 OpenBabel08211713393D

 51 53  0  0  0  0  0  0  0  0999 V2000
    0.0000    0.0000    0.0000 C   0  0  0  0  0  0  0  0  0  0  0  0
    1.5418    0.0000    0.0000 C   0  0  0  0  0  0  0  0  0  0  0  0
    2.0928    0.0000    1.4222 C   0  0  0  0  0  0  0  0  0  0  0  0
    1.6930    1.2852    2.1756 C   0  0  0  0  0  0  0  0  0  0  0  0
    0.2299    1.6126    1.9734 C   0  0  0  0  0  0  0  0  0  0  0  0
   -0.3556    2.5668    2.8152 C   0  0  0  0  0  0  0  0  0  0  0  0
   -1.6922    2.9174    2.7015 C   0  0  0  0  0  0  0  0  0  0  0  0
   -2.4773    2.2964    1.7166 C   0  0  0  0  0  0  0  0  0  0  0  0
   -1.9057    1.3524    0.8651 C   0  0  0  0  0  0  0  0  0  0  0  0
   -0.5502    1.0219    0.9738 C   0  0  0  0  0  0  0  0  0  0  0  0
   -3.8494    2.6522    1.6544 N   0  0  0  0  0  0  0  0  0  0  0  0
   -4.6683    2.4464    0.5512 C   0  0  0  0  0  0  0  0  0  0  0  0
   -4.2943    1.9134   -0.4670 O   0  0  0  0  0  0  0  0  0  0  0  0
   -6.0685    2.9420    0.7306 C   0  0  0  0  0  0  0  0  0  0  0  0
   -6.9330    2.2817    1.6023 C   0  0  0  0  0  0  0  0  0  0  0  0
   -8.2479    2.7222    1.7234 C   0  0  0  0  0  0  0  0  0  0  0  0
   -8.6810    3.8182    0.9712 C   0  0  0  0  0  0  0  0  0  0  0  0
   -7.8124    4.4752    0.0983 C   0  0  0  0  0  0  0  0  0  0  0  0
   -6.4969    4.0321   -0.0237 C   0  0  0  0  0  0  0  0  0  0  0  0
  -10.0807    4.2472    1.1288 C   0  0  0  0  0  0  0  0  0  0  0  0
  -10.9054    3.8162    1.8942 O   0  0  0  0  0  0  0  0  0  0  0  0
  -10.4009    5.2526    0.2710 O   0  0  0  0  0  0  0  0  0  0  0  0
    1.9895    1.0505    3.6709 C   0  0  0  0  0  0  0  0  0  0  0  0
    2.5297    2.4753    1.6708 C   0  0  0  0  0  0  0  0  0  0  0  0
   -0.4598    0.3212   -1.4345 C   0  0  0  0  0  0  0  0  0  0  0  0
   -0.5318   -1.3844    0.4130 C   0  0  0  0  0  0  0  0  0  0  0  0
    1.9162   -0.8791   -0.5555 H   0  0  0  0  0  0  0  0  0  0  0  0
    1.9161    0.8849   -0.5499 H   0  0  0  0  0  0  0  0  0  0  0  0
    3.1935   -0.0992    1.4060 H   0  0  0  0  0  0  0  0  0  0  0  0
    1.7200   -0.8867    1.9704 H   0  0  0  0  0  0  0  0  0  0  0  0
    0.2495    3.0540    3.5808 H   0  0  0  0  0  0  0  0  0  0  0  0
   -2.1167    3.6643    3.3649 H   0  0  0  0  0  0  0  0  0  0  0  0
   -2.5171    0.8631    0.1023 H   0  0  0  0  0  0  0  0  0  0  0  0
   -4.2178    3.1566    2.4547 H   0  0  0  0  0  0  0  0  0  0  0  0
   -6.5885    1.4191    2.1735 H   0  0  0  0  0  0  0  0  0  0  0  0
   -8.9442    2.2157    2.3985 H   0  0  0  0  0  0  0  0  0  0  0  0
   -8.1634    5.3280   -0.4893 H   0  0  0  0  0  0  0  0  0  0  0  0
   -5.8118    4.5272   -0.7137 H   0  0  0  0  0  0  0  0  0  0  0  0
  -11.3416    5.5511    0.3556 H   0  0  0  0  0  0  0  0  0  0  0  0
    1.2698    0.3500    4.1088 H   0  0  0  0  0  0  0  0  0  0  0  0
    1.9414    1.9783    4.2489 H   0  0  0  0  0  0  0  0  0  0  0  0
    2.9925    0.6351    3.8134 H   0  0  0  0  0  0  0  0  0  0  0  0
    2.3366    2.6729    0.6103 H   0  0  0  0  0  0  0  0  0  0  0  0
    3.6010    2.2864    1.7878 H   0  0  0  0  0  0  0  0  0  0  0  0
    2.2893    3.3928    2.2181 H   0  0  0  0  0  0  0  0  0  0  0  0
   -0.2552    1.3664   -1.6913 H   0  0  0  0  0  0  0  0  0  0  0  0
   -1.5371    0.1634   -1.5658 H   0  0  0  0  0  0  0  0  0  0  0  0
    0.0495   -0.3144   -2.1657 H   0  0  0  0  0  0  0  0  0  0  0  0
   -0.2443   -1.6288    1.4414 H   0  0  0  0  0  0  0  0  0  0  0  0
   -0.1440   -2.1704   -0.2420 H   0  0  0  0  0  0  0  0  0  0  0  0
   -1.6263   -1.4207    0.3656 H   0  0  0  0  0  0  0  0  0  0  0  0
  1 26  1  0  0  0  0
  1 10  1  0  0  0  0
  2  1  1  0  0  0  0
  2  3  1  0  0  0  0
  3 30  1  0  0  0  0
  3  4  1  0  0  0  0
  4 23  1  0  0  0  0
  5  4  1  0  0  0  0
  5  6  2  0  0  0  0
  6 31  1  0  0  0  0
  7  6  1  0  0  0  0
  7 32  1  0  0  0  0
  8  7  2  0  0  0  0
  9 10  2  0  0  0  0
  9  8  1  0  0  0  0
 10  5  1  0  0  0  0
 11  8  1  0  0  0  0
 11 34  1  0  0  0  0
 12 14  1  0  0  0  0
 12 11  1  0  0  0  0
 13 12  2  0  0  0  0
 14 15  2  0  0  0  0
 15 16  1  0  0  0  0
 15 35  1  0  0  0  0
 16 36  1  0  0  0  0
 17 20  1  0  0  0  0
 17 16  2  0  0  0  0
 18 17  1  0  0  0  0
 19 18  2  0  0  0  0
 19 14  1  0  0  0  0
 20 21  2  0  0  0  0
 22 39  1  0  0  0  0
 22 20  1  0  0  0  0
 23 42  1  0  0  0  0
 23 40  1  0  0  0  0
 23 41  1  0  0  0  0
 24 44  1  0  0  0  0
 24  4  1  0  0  0  0
 24 45  1  0  0  0  0
 25  1  1  0  0  0  0
 26 49  1  0  0  0  0
 27  2  1  0  0  0  0
 28  2  1  0  0  0  0
 29  3  1  0  0  0  0
 33  9  1  0  0  0  0
 37 18  1  0  0  0  0
 38 19  1  0  0  0  0
 43 24  1  0  0  0  0
 46 25  1  0  0  0  0
 47 25  1  0  0  0  0
 48 25  1  0  0  0  0
 50 26  1  0  0  0  0
 51 26  1  0  0  0  0
M  END
$$$$
