51
rmsd34.gzmat
C          0.00000        0.00000        0.00000
C          1.54210        0.00000        0.00000
C          2.09560        0.00000        1.42120
C          1.70070        1.28890        2.17030
C          0.22780        1.58670        1.99790
C         -0.36430        2.52000        2.85800
C         -1.71040        2.83900        2.77250
C         -2.50060        2.20640        1.79770
C         -1.92050        1.28730        0.92540
C         -0.55540        0.98950        1.00480
N         -3.87860        2.53950        1.76930
C         -4.76400        2.19930        0.75430
O         -4.45140        1.55470       -0.21970
C         -6.15470        2.71080        0.95950
C         -6.88560        2.34860        2.09020
C         -8.18960        2.81250        2.23760
C         -8.74650        3.63280        1.25200
C         -8.01520        3.98550        0.11690
C         -6.71000        3.51980       -0.02980
C        -10.12510        4.10790        1.45620
O        -10.82940        3.94160        2.41930
O        -10.58190        4.81130        0.38610
C          2.04380        1.07450        3.65840
C          2.50250        2.48720        1.63020
C         -0.45880        0.37210       -1.42330
C         -0.52870       -1.40020        0.35980
H          1.91710       -0.87860       -0.55540
H          1.91580        0.88500       -0.55020
H          3.19570       -0.10440        1.40480
H          1.71650       -0.88200        1.97280
H          0.24560        3.01440        3.61500
H         -2.14080        3.56890        3.45110
H         -2.53000        0.78850        0.16720
H         -4.21050        3.12460        2.53080
H         -6.44890        1.69680        2.84730
H         -8.78050        2.53940        3.11670
H         -8.46350        4.61910       -0.65310
H         -6.12950        3.77630       -0.91820
H        -11.51010        5.13780        0.50340
H          1.36510        0.34790        4.11830
H          1.97510        2.00250        4.23350
H          3.06590        0.69970        3.77630
H          2.25700        2.68510        0.58060
H          3.57970        2.30870        1.69640
H          2.28020        3.40110        2.19070
H         -0.24870        1.42400       -1.64530
H         -1.53680        0.22350       -1.55890
H          0.04910       -0.24100       -2.17470
H         -0.21020       -1.69860        1.36430
H         -0.16730       -2.15440       -0.34620
H         -1.62480       -1.42840        0.34460
