51
rmsd76.gzmat
C          0.00000        0.00000        0.00000
C          1.54140        0.00000        0.00000
C          2.09400        0.00000        1.42180
C          1.69280        1.28320        2.17810
C          0.22510        1.59610        1.98940
C         -0.36750        2.53390        2.84410
C         -1.70440        2.88320        2.72900
C         -2.48250        2.27700        1.72910
C         -1.90240        1.35110        0.86420
C         -0.54960        1.01610        0.97970
N         -3.84010        2.67270        1.62860
C         -4.81020        1.99880        0.89770
O         -4.59420        0.98260        0.27810
C         -6.16430        2.63100        0.93800
C         -6.33660        3.96850        0.58340
C         -7.61550        4.51700        0.59150
C         -8.70670        3.72010        0.95090
C         -8.53180        2.37960        1.29700
C         -7.25050        1.83150        1.28920
C        -10.03940        4.34550        0.94310
O        -10.31110        5.50080        0.73660
O        -11.02340        3.44530        1.20710
C          2.01510        1.05350        3.66830
C          2.50660        2.48340        1.65870
C         -0.46060        0.32460       -1.43440
C         -0.53630       -1.38410        0.40740
H          1.91490       -0.87890       -0.55650
H          1.91610        0.88540       -0.54900
H          3.19460       -0.09690        1.40380
H          1.72310       -0.88700        1.97090
H          0.23310        3.00680        3.62200
H         -2.13690        3.61180        3.40720
H         -2.50420        0.87610        0.08450
H         -4.11340        3.48010        2.18060
H         -5.48290        4.57770        0.28570
H         -7.77330        5.56370        0.31590
H         -9.39270        1.76230        1.56670
H         -7.09680        0.78040        1.54290
H        -11.92970        3.84520        1.19520
H          1.32400        0.32870        4.11270
H          1.94670        1.97690        4.25100
H          3.03220        0.66850        3.79550
H          2.28370        2.68460        0.60480
H          3.58190        2.30400        1.74610
H          2.27240        3.39540        2.21780
H         -0.25690        1.37000       -1.68950
H         -1.53640        0.15880       -1.56620
H          0.05110       -0.30890       -2.16600
H         -0.23170       -1.64420        1.42680
H         -0.17200       -2.16590       -0.26570
H         -1.63300       -1.40750        0.38410
