51
rmsd36.gzmat
C          0.00000        0.00000        0.00000
C          1.54230        0.00000        0.00000
C          2.09200        0.00000        1.42320
C          1.70250        1.29510        2.16460
C          0.22890        1.59050        1.99510
C         -0.36280        2.52410        2.85480
C         -1.71040        2.83950        2.77200
C         -2.50040        2.20210        1.80100
C         -1.92290        1.27550        0.93490
C         -0.55600        0.98480        1.00860
N         -3.87960        2.53010        1.76550
C         -4.73470        2.25160        0.70670
O         -4.38980        1.67420       -0.29800
C         -6.13540        2.73460        0.90790
C         -6.89990        2.26290        1.97330
C         -8.21650        2.69510        2.11530
C         -8.74820        3.59510        1.18980
C         -7.98020        4.06170        0.11940
C         -6.66560        3.62610       -0.02370
C        -10.13450        4.07760        1.30050
O        -10.72810        4.80320        0.54440
O        -10.74520        3.60430        2.41970
C          2.04510        1.09410        3.65460
C          2.50750        2.48530        1.61220
C         -0.46640        0.38600       -1.41690
C         -0.52340       -1.40400        0.35190
H          1.91830       -0.87760       -0.55650
H          1.91730        0.88570       -0.54830
H          3.19100       -0.11070        1.41150
H          1.70610       -0.87710        1.97760
H          0.24860        3.02180        3.60830
H         -2.14090        3.57030        3.44910
H         -2.53770        0.76840        0.18640
H         -4.23140        3.07100        2.54960
H         -6.47950        1.54960        2.68270
H         -8.83020        2.33120        2.94360
H         -8.41480        4.76010       -0.60190
H         -6.05830        3.96780       -0.86430
H        -11.68080        3.91530        2.51400
H          1.36890        0.36780        4.11890
H          1.96860        2.02620        4.22260
H          3.06910        0.72670        3.77770
H          2.25360        2.68190        0.56420
H          3.58390        2.29720        1.66670
H          2.29950        3.40270        2.17210
H         -0.24310        1.43650       -1.63410
H         -1.54870        0.25700       -1.54110
H          0.02180       -0.23010       -2.17780
H         -0.18590       -1.71470        1.34660
H         -0.17470       -2.14930       -0.36980
H         -1.61900       -1.43340        0.35540
