51
rmsd107.gzmat
C          0.00000        0.00000        0.00000
C          1.54190        0.00000        0.00000
C          2.09480        0.00000        1.42170
C          1.69750        1.28660        2.17380
C          0.22860        1.59590        1.98950
C         -0.35930        2.54090        2.83970
C         -1.70010        2.87880        2.73850
C         -2.48730        2.25040        1.76010
C         -1.91420        1.31120        0.90450
C         -0.55320        0.99890        0.99540
N         -3.86270        2.59430        1.70350
C         -4.67910        2.38590        0.59950
O         -4.29920        1.86430       -0.42270
C         -6.08360        2.86700        0.77790
C         -6.51720        3.95470        0.02220
C         -7.83660        4.38350        0.13910
C         -8.70630        3.71150        1.00270
C         -8.26830        2.62010        1.75490
C         -6.94580        2.19710        1.64360
C        -10.09690        4.18790        1.08310
O        -10.57570        5.16620        0.56910
O        -10.86680        3.36580        1.84560
C          2.01910        1.06340        3.66540
C          2.51120        2.48330        1.64830
C         -0.46100        0.36240       -1.42480
C         -0.53100       -1.39590        0.37220
H          1.91700       -0.87810       -0.55660
H          1.91550        0.88550       -0.54970
H          3.19500       -0.10130        1.40400
H          1.71970       -0.88460        1.97170
H          0.25020        3.03130        3.59980
H         -2.12570        3.62200        3.40510
H         -2.52740        0.81270        0.14930
H         -4.23610        3.09080        2.50600
H         -5.83230        4.45580       -0.66430
H         -8.19730        5.23700       -0.44270
H         -8.95920        2.09860        2.42250
H         -6.59490        1.33960        2.21840
H        -11.81120        3.65750        1.90190
H          1.32680        0.34120        4.11220
H          1.94950        1.98970        4.24390
H          3.03630        0.67970        3.79580
H          2.28390        2.68140        0.59440
H          3.58670        2.30320        1.73380
H          2.27990        3.39790        2.20430
H         -0.24760        1.41220       -1.65500
H         -1.54050        0.21970       -1.55540
H          0.03970       -0.25830       -2.17400
H         -0.22000       -1.68320        1.38230
H         -0.16450       -2.15820       -0.32250
H         -1.62660       -1.42390        0.34960
