51

C          0.01160       -0.14390        0.07560
C          1.55210       -0.11300        0.07290
C          2.13830        0.03620        1.46740
C          1.74480        1.36730        2.13620
C          0.24570        1.63400        1.94400
C         -0.37420        2.62310        2.72890
C         -1.72060        2.93460        2.60530
C         -2.51030        2.24690        1.67040
C         -1.91040        1.26910        0.87190
C         -0.54420        0.96160        0.98610
N         -3.87230        2.59250        1.58200
C         -4.84970        2.04700        0.78820
O         -4.67450        1.10700        0.02910
C         -6.20670        2.68870        0.92740
C         -6.40080        4.01030        1.35910
C         -7.68520        4.54510        1.44680
C         -8.79410        3.76010        1.10100
C         -8.60340        2.44390        0.65370
C         -7.31990        1.91720        0.55910
C        -10.18830        4.28070        1.18260
O        -11.17590        3.64640        0.89580
O        -10.24910        5.55680        1.61790
C          2.10720        1.26800        3.63030
C          2.54260        2.53150        1.50930
C         -0.46700        0.03880       -1.37730
C         -0.49160       -1.50830        0.59530
H          1.92580       -1.03270       -0.40650
H          1.89220        0.72210       -0.56190
H          3.23810       -0.03530        1.43450
H          1.79600       -0.79760        2.10270
H          0.21630        3.17160        3.46450
H         -2.16390        3.71070        3.23620
H         -2.53450        0.74230        0.15770
H         -4.17530        3.29450        2.24480
H         -5.54750        4.64900        1.59910
H         -7.83490        5.57390        1.77430
H         -9.47990        1.85330        0.38220
H         -7.14770        0.90230        0.19820
H        -11.19060        5.79730        1.63370
H          1.48860        0.51140        4.13730
H          1.97830        2.22360        4.15960
H          3.16390        0.97510        3.73970
H          2.34270        2.62610        0.43190
H          3.62560        2.37830        1.64770
H          2.27070        3.48940        1.97850
H         -0.21070        1.04140       -1.75370
H         -1.55290       -0.09580       -1.48270
H          0.02230       -0.70540       -2.02620
H         -0.15300       -1.70150        1.62400
H         -0.12470       -2.32480       -0.04820
H         -1.59130       -1.54260        0.59830
