71

N          0.52760       -0.09350        0.23410
C          1.93700       -0.02140        0.51970
H          2.10680        0.24480        1.57240
C          2.67390       -1.35600        0.20440
C          4.15280       -1.30610        0.48270
C          4.65780       -1.56840        1.76150
C          6.02290       -1.47330        2.04620
C          6.92170       -1.11070        1.03250
C          6.42800       -0.83510       -0.25260
C          5.06580       -0.92910       -0.51730
O          8.26290       -0.99260        1.19840
C          8.91300       -1.65580        2.27130
C          8.79390       -3.18460        2.19240
C          9.17880       -3.70990        0.84870
N         10.49340       -3.69980        0.41160
C         10.46000       -4.16000       -0.80620
O          9.20100       -4.47550       -1.21550
C          8.37850       -4.18210       -0.15780
C          6.92180       -4.40290       -0.32680
C         11.57100       -4.36630       -1.72910
C         11.36020       -4.87440       -3.02240
C         12.44080       -5.05980       -3.88500
C         13.73730       -4.74200       -3.46920
C         13.95040       -4.23580       -2.18170
C         12.87660       -4.04780       -1.31440
C          2.53380        1.08340       -0.34030
O          2.31370        1.20990       -1.51880
O          3.36740        1.87360        0.34950
C         -0.39770       -0.67760        1.04510
C         -1.76870       -0.79090        0.62540
C         -2.68660       -1.44670        1.47170
C         -2.32260       -1.94820        2.71420
C         -0.99730       -1.78560        3.14130
C         -0.05440       -1.16960        2.33070
C         -2.19350       -0.27370       -0.69370
O         -1.38560       -0.02310       -1.58980
C         -3.64940       -0.03050       -0.97810
C         -4.11700       -0.29030       -2.27640
C         -5.44180       -0.02310       -2.61750
C         -6.30870        0.53810       -1.67340
C         -5.84330        0.83080       -0.38880
C         -4.52200        0.54280       -0.03910
H          0.22310        0.07500       -0.72860
H          2.48270       -1.58520       -0.85500
H          2.19080       -2.14330        0.80230
H          3.97060       -1.86010        2.56120
H          6.37560       -1.68320        3.05600
H          7.14320       -0.56170       -1.03040
H          4.69760       -0.71270       -1.52380
H          8.54840       -1.28560        3.24690
H          9.96850       -1.36800        2.17170
H          7.77140       -3.50580        2.43470
H          9.45800       -3.60990        2.96290
H          6.69970       -5.45440       -0.57310
H          6.51690       -3.77240       -1.13480
H          6.38890       -4.13520        0.59470
H         10.34670       -5.12060       -3.34250
H         12.26990       -5.45500       -4.88920
H         14.58140       -4.88830       -4.14720
H         14.96220       -3.98610       -1.85330
H         13.02320       -3.65410       -0.30740
H          3.75570        2.50410       -0.28280
H         -3.71030       -1.58070        1.12280
H         -3.05330       -2.46120        3.34160
H         -0.68940       -2.16110        4.12070
H          0.97090       -1.07900        2.68690
H         -3.42050       -0.70080       -3.00960
H         -5.80020       -0.24470       -3.62570
H         -7.34520        0.75550       -1.94250
H         -6.51070        1.28960        0.34470
H         -4.15970        0.78740        0.96070
