rmsd171.gzmat
 OpenBabel08211713423D

 71 74  0  0  1  0  0  0  0  0999 V2000
    0.0000    0.0000    0.0000 N   0  0  0  0  0  0  0  0  0  0  0  0
    1.4533    0.0000    0.0000 C   0  0  1  0  0  0  0  0  0  0  0  0
    1.7813    0.0000    1.0878 H   0  0  0  0  0  0  0  0  0  0  0  0
    2.0680   -1.2397   -0.6877 C   0  0  0  0  0  0  0  0  0  0  0  0
    3.4402   -1.4748   -0.1406 C   0  0  0  0  0  0  0  0  0  0  0  0
    3.6151   -2.2832    0.9872 C   0  0  0  0  0  0  0  0  0  0  0  0
    4.8784   -2.4696    1.5290 C   0  0  0  0  0  0  0  0  0  0  0  0
    5.9736   -1.8338    0.9234 C   0  0  0  0  0  0  0  0  0  0  0  0
    5.8209   -1.0441   -0.2155 C   0  0  0  0  0  0  0  0  0  0  0  0
    4.5450   -0.8693   -0.7417 C   0  0  0  0  0  0  0  0  0  0  0  0
    7.1450   -2.0818    1.5706 O   0  0  0  0  0  0  0  0  0  0  0  0
    8.3234   -1.4356    1.1103 C   0  0  0  0  0  0  0  0  0  0  0  0
    8.9003   -2.1873   -0.0988 C   0  0  0  0  0  0  0  0  0  0  0  0
    9.5678   -1.2503   -1.0229 C   0  0  0  0  0  0  0  0  0  0  0  0
    8.8130   -0.4224   -1.8760 N   0  0  0  0  0  0  0  0  0  0  0  0
    9.6747    0.2951   -2.5717 C   0  0  0  0  0  0  0  0  0  0  0  0
   10.9912   -0.0103   -2.2270 O   0  0  0  0  0  0  0  0  0  0  0  0
   10.9008   -0.9861   -1.2451 C   0  0  1  0  0  0  0  0  0  0  0  0
   12.1806   -1.4529   -0.7183 C   0  0  0  0  0  0  0  0  0  0  0  0
    9.4764    1.3029   -3.5873 C   0  0  0  0  0  0  0  0  0  0  0  0
   10.5706    1.8965   -4.2242 C   0  0  0  0  0  0  0  0  0  0  0  0
   10.3548    2.8676   -5.1981 C   0  0  0  0  0  0  0  0  0  0  0  0
    9.0550    3.2442   -5.5352 C   0  0  0  0  0  0  0  0  0  0  0  0
    7.9653    2.6499   -4.9005 C   0  0  0  0  0  0  0  0  0  0  0  0
    8.1709    1.6772   -3.9267 C   0  0  0  0  0  0  0  0  0  0  0  0
    2.0000    1.2766   -0.6448 C   0  0  0  0  0  0  0  0  0  0  0  0
    2.4264    1.4460   -1.7545 O   0  0  0  0  0  0  0  0  0  0  0  0
    1.9652    2.2813    0.2605 O   0  0  0  0  0  0  0  0  0  0  0  0
   -0.8103    0.1155   -1.1027 C   0  0  0  0  0  0  0  0  0  0  0  0
   -2.2109    0.2838   -0.9141 C   0  0  0  0  0  0  0  0  0  0  0  0
   -3.0521    0.2765   -2.0384 C   0  0  0  0  0  0  0  0  0  0  0  0
   -2.5482    0.1662   -3.3197 C   0  0  0  0  0  0  0  0  0  0  0  0
   -1.1600    0.0761   -3.5057 C   0  0  0  0  0  0  0  0  0  0  0  0
   -0.3029    0.0543   -2.4266 C   0  0  0  0  0  0  0  0  0  0  0  0
   -2.7986    0.4743    0.4128 C   0  0  0  0  0  0  0  0  0  0  0  0
   -2.1965    0.2283    1.4430 O   0  0  0  0  0  0  0  0  0  0  0  0
   -4.1829    1.0146    0.5092 C   0  0  0  0  0  0  0  0  0  0  0  0
   -4.4752    2.2717   -0.0197 C   0  0  0  0  0  0  0  0  0  0  0  0
   -5.7637    2.7858    0.1026 C   0  0  0  0  0  0  0  0  0  0  0  0
   -6.7527    2.0430    0.7472 C   0  0  0  0  0  0  0  0  0  0  0  0
   -6.4536    0.7896    1.2789 C   0  0  0  0  0  0  0  0  0  0  0  0
   -5.1626    0.2750    1.1685 C   0  0  0  0  0  0  0  0  0  0  0  0
   -0.4458    0.0696    0.9262 H   0  0  0  0  0  0  0  0  0  0  0  0
    2.0966   -1.1158   -1.7911 H   0  0  0  0  0  0  0  0  0  0  0  0
    1.4085   -2.1179   -0.5199 H   0  0  0  0  0  0  0  0  0  0  0  0
    2.7551   -2.7695    1.4462 H   0  0  0  0  0  0  0  0  0  0  0  0
    5.0333   -3.0901    2.4065 H   0  0  0  0  0  0  0  0  0  0  0  0
    6.6759   -0.5744   -0.7055 H   0  0  0  0  0  0  0  0  0  0  0  0
    4.4114   -0.2477   -1.6306 H   0  0  0  0  0  0  0  0  0  0  0  0
    8.9733   -1.5144    2.0025 H   0  0  0  0  0  0  0  0  0  0  0  0
    8.1297   -0.3695    0.8953 H   0  0  0  0  0  0  0  0  0  0  0  0
    8.0704   -2.7190   -0.6273 H   0  0  0  0  0  0  0  0  0  0  0  0
    9.5874   -2.9912    0.2310 H   0  0  0  0  0  0  0  0  0  0  0  0
   12.5973   -0.7475    0.0232 H   0  0  0  0  0  0  0  0  0  0  0  0
   12.9401   -1.5586   -1.5133 H   0  0  0  0  0  0  0  0  0  0  0  0
   12.0873   -2.4331   -0.2228 H   0  0  0  0  0  0  0  0  0  0  0  0
   11.5861    1.6008   -3.9602 H   0  0  0  0  0  0  0  0  0  0  0  0
   11.2036    3.3333   -5.6958 H   0  0  0  0  0  0  0  0  0  0  0  0
    8.8912    4.0047   -6.2969 H   0  0  0  0  0  0  0  0  0  0  0  0
    6.9512    2.9457   -5.1648 H   0  0  0  0  0  0  0  0  0  0  0  0
    7.3223    1.2030   -3.4253 H   0  0  0  0  0  0  0  0  0  0  0  0
    2.2981    3.1470   -0.0842 H   0  0  0  0  0  0  0  0  0  0  0  0
   -4.1335    0.3592   -1.8942 H   0  0  0  0  0  0  0  0  0  0  0  0
   -3.2119    0.1573   -4.1778 H   0  0  0  0  0  0  0  0  0  0  0  0
   -0.7591    0.0220   -4.5194 H   0  0  0  0  0  0  0  0  0  0  0  0
    0.7699   -0.0037   -2.5998 H   0  0  0  0  0  0  0  0  0  0  0  0
   -3.6984    2.8481   -0.5222 H   0  0  0  0  0  0  0  0  0  0  0  0
   -5.9973    3.7673   -0.3042 H   0  0  0  0  0  0  0  0  0  0  0  0
   -7.7598    2.4453    0.8383 H   0  0  0  0  0  0  0  0  0  0  0  0
   -7.2257    0.2149    1.7863 H   0  0  0  0  0  0  0  0  0  0  0  0
   -4.9157   -0.6952    1.6001 H   0  0  0  0  0  0  0  0  0  0  0  0
  1 43  1  0  0  0  0
  2  1  1  0  0  0  0
  2  3  1  1  0  0  0
  4 45  1  0  0  0  0
  4  5  1  0  0  0  0
  4  2  1  0  0  0  0
  5  6  2  0  0  0  0
  6 46  1  0  0  0  0
  6  7  1  0  0  0  0
  7 47  1  0  0  0  0
  8  7  2  0  0  0  0
  8 11  1  0  0  0  0
  9  8  1  0  0  0  0
 10  9  2  0  0  0  0
 10  5  1  0  0  0  0
 12 11  1  0  0  0  0
 12 50  1  0  0  0  0
 13 53  1  0  0  0  0
 13 12  1  0  0  0  0
 14 13  1  0  0  0  0
 15 14  2  0  0  0  0
 16 17  1  0  0  0  0
 16 15  2  0  0  0  0
 17 18  1  0  0  0  0
 18 14  1  0  0  0  0
 18 19  1  1  0  0  0
 19 56  1  0  0  0  0
 19 54  1  0  0  0  0
 20 16  1  0  0  0  0
 21 57  1  0  0  0  0
 21 20  2  0  0  0  0
 22 21  1  0  0  0  0
 23 22  2  0  0  0  0
 23 24  1  0  0  0  0
 24 25  2  0  0  0  0
 25 20  1  0  0  0  0
 25 61  1  0  0  0  0
 26  2  1  0  0  0  0
 26 28  1  0  0  0  0
 27 26  2  0  0  0  0
 29 30  1  0  0  0  0
 29  1  1  0  0  0  0
 30 35  1  0  0  0  0
 31 63  1  0  0  0  0
 31 30  2  0  0  0  0
 32 31  1  0  0  0  0
 33 32  2  0  0  0  0
 33 34  1  0  0  0  0
 34 29  2  0  0  0  0
 35 37  1  0  0  0  0
 35 36  2  0  0  0  0
 37 42  2  0  0  0  0
 38 39  2  0  0  0  0
 38 37  1  0  0  0  0
 39 40  1  0  0  0  0
 40 69  1  0  0  0  0
 40 41  2  0  0  0  0
 41 70  1  0  0  0  0
 42 41  1  0  0  0  0
 42 71  1  0  0  0  0
 48  9  1  0  0  0  0
 49 10  1  0  0  0  0
 51 12  1  0  0  0  0
 52 13  1  0  0  0  0
 55 19  1  0  0  0  0
 58 22  1  0  0  0  0
 59 23  1  0  0  0  0
 60 24  1  0  0  0  0
 62 28  1  0  0  0  0
 64 32  1  0  0  0  0
 65 33  1  0  0  0  0
 66 34  1  0  0  0  0
 67 38  1  0  0  0  0
 68 39  1  0  0  0  0
M  RAD  3   4   2  18   2  44   2
M  END
$$$$
