rmsd158.gzmat
 OpenBabel08211713423D

 71 75  0  0  1  0  0  0  0  0999 V2000
    0.0000    0.0000    0.0000 N   0  0  0  0  0  0  0  0  0  0  0  0
    1.4628    0.0000    0.0000 C   0  0  1  0  0  0  0  0  0  0  0  0
    1.8761    0.0000    1.0470 H   0  0  0  0  0  0  0  0  0  0  0  0
    2.0346   -1.2065   -0.7778 C   0  0  0  0  0  0  0  0  0  0  0  0
    1.5919   -2.4784   -0.1272 C   0  0  0  0  0  0  0  0  0  0  0  0
    0.5427   -3.2172   -0.6735 C   0  0  0  0  0  0  0  0  0  0  0  0
    0.0905   -4.3775   -0.0487 C   0  0  0  0  0  0  0  0  0  0  0  0
    0.7111   -4.7864    1.1307 C   0  0  0  0  0  0  0  0  0  0  0  0
    1.7731   -4.0594    1.6937 C   0  0  0  0  0  0  0  0  0  0  0  0
    2.2071   -2.9089    1.0546 C   0  0  0  0  0  0  0  0  0  0  0  0
    0.3999   -5.9029    1.8370 O   0  0  0  0  0  0  0  0  0  0  0  0
   -0.8348   -6.5502    1.5161 C   0  0  0  0  0  0  0  0  0  0  0  0
   -0.9686   -7.6043    2.6251 C   0  0  0  0  0  0  0  0  0  0  0  0
   -2.3889   -7.9558    2.8097 C   0  0  0  0  0  0  0  0  0  0  0  0
   -3.1263   -7.4485    3.8955 N   0  0  0  0  0  0  0  0  0  0  0  0
   -4.3634   -7.8869    3.7529 C   0  0  0  0  0  0  0  0  0  0  0  0
   -4.4945   -8.6920    2.6214 O   0  0  0  0  0  0  0  0  0  0  0  0
   -3.2375   -8.7202    2.0387 C   0  0  1  0  0  0  0  0  0  0  0  0
   -3.1395   -9.5052    0.8111 C   0  0  0  0  0  0  0  0  0  0  0  0
   -5.5639   -7.6312    4.5144 C   0  0  0  0  0  0  0  0  0  0  0  0
   -5.4997   -6.7804    5.6242 C   0  0  0  0  0  0  0  0  0  0  0  0
   -6.6582   -6.4952    6.3406 C   0  0  0  0  0  0  0  0  0  0  0  0
   -7.8742   -7.0590    5.9562 C   0  0  0  0  0  0  0  0  0  0  0  0
   -7.9346   -7.9135    4.8557 C   0  0  0  0  0  0  0  0  0  0  0  0
   -6.7814   -8.2031    4.1318 C   0  0  0  0  0  0  0  0  0  0  0  0
    1.8803    1.2837   -0.7177 C   0  0  0  0  0  0  0  0  0  0  0  0
    1.9191    1.5154   -1.8925 O   0  0  0  0  0  0  0  0  0  0  0  0
    2.2563    2.2066    0.2045 O   0  0  0  0  0  0  0  0  0  0  0  0
   -0.6843    0.0527    1.2108 C   0  0  0  0  0  0  0  0  0  0  0  0
   -1.8740   -0.6875    1.4002 C   0  0  0  0  0  0  0  0  0  0  0  0
   -2.6536   -0.4405    2.5394 C   0  0  0  0  0  0  0  0  0  0  0  0
   -2.2340    0.4462    3.5155 C   0  0  0  0  0  0  0  0  0  0  0  0
   -1.0089    1.1112    3.3657 C   0  0  0  0  0  0  0  0  0  0  0  0
   -0.2397    0.9243    2.2340 C   0  0  0  0  0  0  0  0  0  0  0  0
   -2.2870   -1.7321    0.4510 C   0  0  0  0  0  0  0  0  0  0  0  0
   -1.9803   -1.6945   -0.7263 O   0  0  0  0  0  0  0  0  0  0  0  0
   -3.0787   -2.8827    0.9554 C   0  0  0  0  0  0  0  0  0  0  0  0
   -2.8226   -3.4381    2.2098 C   0  0  0  0  0  0  0  0  0  0  0  0
   -3.5909   -4.5081    2.6588 C   0  0  0  0  0  0  0  0  0  0  0  0
   -4.5991   -5.0316    1.8496 C   0  0  0  0  0  0  0  0  0  0  0  0
   -4.8306   -4.4985    0.5835 C   0  0  0  0  0  0  0  0  0  0  0  0
   -4.0683   -3.4228    0.1325 C   0  0  0  0  0  0  0  0  0  0  0  0
   -0.4325   -0.5685   -0.7404 H   0  0  0  0  0  0  0  0  0  0  0  0
    3.1415   -1.1422   -0.8139 H   0  0  0  0  0  0  0  0  0  0  0  0
    1.7158   -1.1607   -1.8430 H   0  0  0  0  0  0  0  0  0  0  0  0
    0.0535   -2.8842   -1.5925 H   0  0  0  0  0  0  0  0  0  0  0  0
   -0.7333   -4.9343   -0.4828 H   0  0  0  0  0  0  0  0  0  0  0  0
    2.2330   -4.4066    2.6144 H   0  0  0  0  0  0  0  0  0  0  0  0
    3.0293   -2.3341    1.4786 H   0  0  0  0  0  0  0  0  0  0  0  0
   -0.7588   -6.9986    0.5131 H   0  0  0  0  0  0  0  0  0  0  0  0
   -1.6589   -5.8113    1.5471 H   0  0  0  0  0  0  0  0  0  0  0  0
   -0.5426   -7.1904    3.5741 H   0  0  0  0  0  0  0  0  0  0  0  0
   -0.3519   -8.4963    2.3966 H   0  0  0  0  0  0  0  0  0  0  0  0
   -3.0830   -8.8586   -0.0826 H   0  0  0  0  0  0  0  0  0  0  0  0
   -4.0121  -10.1664    0.6696 H   0  0  0  0  0  0  0  0  0  0  0  0
   -2.2432  -10.1489    0.8085 H   0  0  0  0  0  0  0  0  0  0  0  0
   -4.5411   -6.3457    5.9186 H   0  0  0  0  0  0  0  0  0  0  0  0
   -6.6136   -5.8296    7.2008 H   0  0  0  0  0  0  0  0  0  0  0  0
   -8.7794   -6.8320    6.5170 H   0  0  0  0  0  0  0  0  0  0  0  0
   -8.8846   -8.3552    4.5598 H   0  0  0  0  0  0  0  0  0  0  0  0
   -6.8283   -8.8720    3.2722 H   0  0  0  0  0  0  0  0  0  0  0  0
    2.4939    3.0850   -0.1788 H   0  0  0  0  0  0  0  0  0  0  0  0
   -3.6087   -0.9603    2.6565 H   0  0  0  0  0  0  0  0  0  0  0  0
   -2.8446    0.6286    4.3942 H   0  0  0  0  0  0  0  0  0  0  0  0
   -0.6711    1.7928    4.1466 H   0  0  0  0  0  0  0  0  0  0  0  0
    0.6878    1.4798    2.1030 H   0  0  0  0  0  0  0  0  0  0  0  0
   -2.0219   -3.0415    2.8361 H   0  0  0  0  0  0  0  0  0  0  0  0
   -3.3978   -4.9417    3.6422 H   0  0  0  0  0  0  0  0  0  0  0  0
   -5.2039   -5.8632    2.2089 H   0  0  0  0  0  0  0  0  0  0  0  0
   -5.6074   -4.9191   -0.0505 H   0  0  0  0  0  0  0  0  0  0  0  0
   -4.2361   -3.0002   -0.8595 H   0  0  0  0  0  0  0  0  0  0  0  0
  1  2  1  0  0  0  0
  1 29  1  0  0  0  0
  2  3  1  1  0  0  0
  4  5  1  0  0  0  0
  4  2  1  0  0  0  0
  5 10  1  0  0  0  0
  6  5  2  0  0  0  0
  6  7  1  0  0  0  0
  7  8  2  0  0  0  0
  8  9  1  0  0  0  0
  8 11  1  0  0  0  0
  9 48  1  0  0  0  0
 10 49  1  0  0  0  0
 10  9  2  0  0  0  0
 12 51  1  0  0  0  0
 12 11  1  0  0  0  0
 12 13  1  0  0  0  0
 13 14  1  0  0  0  0
 13 52  1  0  0  0  0
 14 15  2  0  0  0  0
 16 15  2  0  0  0  0
 16 20  1  0  0  0  0
 17 16  1  0  0  0  0
 18 19  1  6  0  0  0
 18 17  1  0  0  0  0
 18 14  1  0  0  0  0
 20 21  1  0  0  0  0
 21 57  1  0  0  0  0
 21 22  2  0  0  0  0
 22 58  1  0  0  0  0
 23 22  1  0  0  0  0
 23 59  1  0  0  0  0
 24 23  2  0  0  0  0
 25 20  2  0  0  0  0
 25 24  1  0  0  0  0
 26  2  1  0  0  0  0
 26 28  1  0  0  0  0
 27 26  2  0  0  0  0
 29 30  2  0  0  0  0
 29 34  1  0  0  0  0
 30 31  1  0  0  0  0
 31 63  1  0  0  0  0
 31 32  2  0  0  0  0
 32 64  1  0  0  0  0
 33 32  1  0  0  0  0
 33 65  1  0  0  0  0
 34 33  2  0  0  0  0
 35 37  1  0  0  0  0
 35 30  1  0  0  0  0
 36 35  2  0  0  0  0
 37 38  2  0  0  0  0
 38 39  1  0  0  0  0
 38 67  1  0  0  0  0
 39 68  1  0  0  0  0
 40 69  1  0  0  0  0
 40 39  2  0  0  0  0
 41 40  1  0  0  0  0
 42 41  2  0  0  0  0
 42 37  1  0  0  0  0
 43  1  1  0  0  0  0
 44  4  1  0  0  0  0
 45  4  1  0  0  0  0
 46  6  1  0  0  0  0
 47  7  1  0  0  0  0
 50 12  1  0  0  0  0
 53 13  1  0  0  0  0
 54 19  1  0  0  0  0
 55 19  1  0  0  0  0
 56 19  1  0  0  0  0
 60 24  1  0  0  0  0
 61 25  1  0  0  0  0
 62 28  1  0  0  0  0
 66 34  1  0  0  0  0
 70 41  1  0  0  0  0
 71 42  1  0  0  0  0
M  RAD  1  18   2
M  END
$$$$
