71
rmsd158.gzmat
N          0.00000        0.00000        0.00000
C          1.46280        0.00000        0.00000
H          1.87610        0.00000        1.04700
C          2.03460       -1.20650       -0.77780
C          1.59190       -2.47840       -0.12720
C          0.54270       -3.21720       -0.67350
C          0.09050       -4.37750       -0.04870
C          0.71110       -4.78640        1.13070
C          1.77310       -4.05940        1.69370
C          2.20710       -2.90890        1.05460
O          0.39990       -5.90290        1.83700
C         -0.83480       -6.55020        1.51610
C         -0.96860       -7.60430        2.62510
C         -2.38890       -7.95580        2.80970
N         -3.12630       -7.44850        3.89550
C         -4.36340       -7.88690        3.75290
O         -4.49450       -8.69200        2.62140
C         -3.23750       -8.72020        2.03870
C         -3.13950       -9.50520        0.81110
C         -5.56390       -7.63120        4.51440
C         -5.49970       -6.78040        5.62420
C         -6.65820       -6.49520        6.34060
C         -7.87420       -7.05900        5.95620
C         -7.93460       -7.91350        4.85570
C         -6.78140       -8.20310        4.13180
C          1.88030        1.28370       -0.71770
O          1.91910        1.51540       -1.89250
O          2.25630        2.20660        0.20450
C         -0.68430        0.05270        1.21080
C         -1.87400       -0.68750        1.40020
C         -2.65360       -0.44050        2.53940
C         -2.23400        0.44620        3.51550
C         -1.00890        1.11120        3.36570
C         -0.23970        0.92430        2.23400
C         -2.28700       -1.73210        0.45100
O         -1.98030       -1.69450       -0.72630
C         -3.07870       -2.88270        0.95540
C         -2.82260       -3.43810        2.20980
C         -3.59090       -4.50810        2.65880
C         -4.59910       -5.03160        1.84960
C         -4.83060       -4.49850        0.58350
C         -4.06830       -3.42280        0.13250
H         -0.43250       -0.56850       -0.74040
H          3.14150       -1.14220       -0.81390
H          1.71580       -1.16070       -1.84300
H          0.05350       -2.88420       -1.59250
H         -0.73330       -4.93430       -0.48280
H          2.23300       -4.40660        2.61440
H          3.02930       -2.33410        1.47860
H         -0.75880       -6.99860        0.51310
H         -1.65890       -5.81130        1.54710
H         -0.54260       -7.19040        3.57410
H         -0.35190       -8.49630        2.39660
H         -3.08300       -8.85860       -0.08260
H         -4.01210      -10.16640        0.66960
H         -2.24320      -10.14890        0.80850
H         -4.54110       -6.34570        5.91860
H         -6.61360       -5.82960        7.20080
H         -8.77940       -6.83200        6.51700
H         -8.88460       -8.35520        4.55980
H         -6.82830       -8.87200        3.27220
H          2.49390        3.08500       -0.17880
H         -3.60870       -0.96030        2.65650
H         -2.84460        0.62860        4.39420
H         -0.67110        1.79280        4.14660
H          0.68780        1.47980        2.10300
H         -2.02190       -3.04150        2.83610
H         -3.39780       -4.94170        3.64220
H         -5.20390       -5.86320        2.20890
H         -5.60740       -4.91910       -0.05050
H         -4.23610       -3.00020       -0.85950
