
     RDKit          3D

 71 75  0  0  0  0  0  0  0  0999 V2000
    0.0868   -0.1787    0.2810 N   0  0  0  0  0  0  0  0  0  0  0  0
    1.2588    0.2781   -0.4114 C   0  0  1  0  0  0  0  0  0  0  0  0
    2.0672    0.5060    0.3054 H   0  0  0  0  0  0  0  0  0  0  0  0
    1.7772   -0.7972   -1.4065 C   0  0  0  0  0  0  0  0  0  0  0  0
    1.8528   -2.1622   -0.7763 C   0  0  0  0  0  0  0  0  0  0  0  0
    0.8477   -3.1020   -1.0199 C   0  0  0  0  0  0  0  0  0  0  0  0
    0.7602   -4.2853   -0.2864 C   0  0  0  0  0  0  0  0  0  0  0  0
    1.6855   -4.5398    0.7333 C   0  0  0  0  0  0  0  0  0  0  0  0
    2.7644   -3.6572    0.9135 C   0  0  0  0  0  0  0  0  0  0  0  0
    2.8377   -2.4825    0.1734 C   0  0  0  0  0  0  0  0  0  0  0  0
    1.5976   -5.5794    1.6007 O   0  0  0  0  0  0  0  0  0  0  0  0
    0.3489   -6.2443    1.7570 C   0  0  0  0  0  0  0  0  0  0  0  0
   -0.7689   -5.3392    2.2929 C   0  0  0  0  0  0  0  0  0  0  0  0
   -0.5210   -4.7956    3.6620 C   0  0  0  0  0  0  0  0  0  0  0  0
   -0.9597   -5.4620    4.7948 N   0  0  0  0  0  0  0  0  0  0  0  0
   -0.6221   -4.7084    5.8017 C   0  0  0  0  0  0  0  0  0  0  0  0
    0.0366   -3.5825    5.4165 O   0  0  0  0  0  0  0  0  0  0  0  0
    0.0991   -3.6339    4.0469 C   0  0  0  0  0  0  0  0  0  0  0  0
    0.7483   -2.5015    3.3462 C   0  0  0  0  0  0  0  0  0  0  0  0
   -0.9084   -4.9071    7.2171 C   0  0  0  0  0  0  0  0  0  0  0  0
   -1.6270   -6.0476    7.6191 C   0  0  0  0  0  0  0  0  0  0  0  0
   -1.9285   -6.2456    8.9647 C   0  0  0  0  0  0  0  0  0  0  0  0
   -1.5203   -5.3119    9.9247 C   0  0  0  0  0  0  0  0  0  0  0  0
   -0.8066   -4.1766    9.5290 C   0  0  0  0  0  0  0  0  0  0  0  0
   -0.5000   -3.9714    8.1834 C   0  0  0  0  0  0  0  0  0  0  0  0
    0.9874    1.5476   -1.2225 C   0  0  0  0  0  0  0  0  0  0  0  0
   -0.0384    1.8052   -1.7924 O   0  0  0  0  0  0  0  0  0  0  0  0
    2.0807    2.3387   -1.2661 O   0  0  0  0  0  0  0  0  0  0  0  0
   -0.5357    0.5090    1.2770 C   0  0  0  0  0  0  0  0  0  0  0  0
   -1.6393   -0.0703    1.9966 C   0  0  0  0  0  0  0  0  0  0  0  0
   -2.3259    0.7246    2.9391 C   0  0  0  0  0  0  0  0  0  0  0  0
   -1.9254    2.0161    3.2497 C   0  0  0  0  0  0  0  0  0  0  0  0
   -0.7860    2.5363    2.6185 C   0  0  0  0  0  0  0  0  0  0  0  0
   -0.1038    1.8057    1.6566 C   0  0  0  0  0  0  0  0  0  0  0  0
   -2.0314   -1.4728    1.7658 C   0  0  0  0  0  0  0  0  0  0  0  0
   -1.6862   -2.0877    0.7485 O   0  0  0  0  0  0  0  0  0  0  0  0
   -2.8080   -2.2333    2.8020 C   0  0  0  0  0  0  0  0  0  0  0  0
   -2.6137   -2.0646    4.1842 C   0  0  0  0  0  0  0  0  0  0  0  0
   -3.2481   -2.9070    5.0978 C   0  0  0  0  0  0  0  0  0  0  0  0
   -4.0901   -3.9244    4.6441 C   0  0  0  0  0  0  0  0  0  0  0  0
   -4.2948   -4.0980    3.2716 C   0  0  0  0  0  0  0  0  0  0  0  0
   -3.6494   -3.2664    2.3582 C   0  0  0  0  0  0  0  0  0  0  0  0
   -0.3576   -1.0608    0.0244 H   0  0  0  0  0  0  0  0  0  0  0  0
    2.7576   -0.4575   -1.7738 H   0  0  0  0  0  0  0  0  0  0  0  0
    1.0923   -0.8235   -2.2682 H   0  0  0  0  0  0  0  0  0  0  0  0
    0.0788   -2.8885   -1.7667 H   0  0  0  0  0  0  0  0  0  0  0  0
   -0.0647   -4.9687   -0.4804 H   0  0  0  0  0  0  0  0  0  0  0  0
    3.4993   -3.8911    1.6858 H   0  0  0  0  0  0  0  0  0  0  0  0
    3.6535   -1.7796    0.3656 H   0  0  0  0  0  0  0  0  0  0  0  0
    0.5509   -7.0528    2.4733 H   0  0  0  0  0  0  0  0  0  0  0  0
    0.0380   -6.7100    0.8045 H   0  0  0  0  0  0  0  0  0  0  0  0
   -1.6895   -5.9413    2.3353 H   0  0  0  0  0  0  0  0  0  0  0  0
   -0.9652   -4.5105    1.5978 H   0  0  0  0  0  0  0  0  0  0  0  0
    0.5365   -2.5434    2.2727 H   0  0  0  0  0  0  0  0  0  0  0  0
    1.8432   -2.5205    3.4697 H   0  0  0  0  0  0  0  0  0  0  0  0
    0.3841   -1.5382    3.7350 H   0  0  0  0  0  0  0  0  0  0  0  0
   -1.9385   -6.7623    6.8557 H   0  0  0  0  0  0  0  0  0  0  0  0
   -2.4865   -7.1341    9.2698 H   0  0  0  0  0  0  0  0  0  0  0  0
   -1.7587   -5.4696   10.9792 H   0  0  0  0  0  0  0  0  0  0  0  0
   -0.4856   -3.4452   10.2746 H   0  0  0  0  0  0  0  0  0  0  0  0
    0.0566   -3.0870    7.8695 H   0  0  0  0  0  0  0  0  0  0  0  0
    1.8609    3.0933   -1.8399 H   0  0  0  0  0  0  0  0  0  0  0  0
   -3.2076    0.3076    3.4250 H   0  0  0  0  0  0  0  0  0  0  0  0
   -2.4834    2.6113    3.9742 H   0  0  0  0  0  0  0  0  0  0  0  0
   -0.4341    3.5405    2.8687 H   0  0  0  0  0  0  0  0  0  0  0  0
    0.7629    2.2541    1.1722 H   0  0  0  0  0  0  0  0  0  0  0  0
   -1.9273   -1.3016    4.5503 H   0  0  0  0  0  0  0  0  0  0  0  0
   -3.0614   -2.7865    6.1667 H   0  0  0  0  0  0  0  0  0  0  0  0
   -4.5726   -4.5927    5.3607 H   0  0  0  0  0  0  0  0  0  0  0  0
   -4.9495   -4.8959    2.9133 H   0  0  0  0  0  0  0  0  0  0  0  0
   -3.7725   -3.4124    1.2838 H   0  0  0  0  0  0  0  0  0  0  0  0
  1  2  1  0
  1 29  1  0
  1 43  1  0
  2  3  1  1
  2  4  1  0
  2 26  1  0
  4  5  1  0
  4 44  1  0
  4 45  1  0
  5  6  2  0
  5 10  1  0
  6  7  1  0
  6 46  1  0
  7  8  2  0
  7 47  1  0
  8  9  1  0
  8 11  1  0
  9 10  2  0
  9 48  1  0
 10 49  1  0
 11 12  1  0
 12 13  1  0
 12 50  1  0
 12 51  1  0
 13 14  1  0
 13 52  1  0
 13 53  1  0
 14 15  1  0
 14 18  2  0
 15 16  2  0
 16 17  1  0
 16 20  1  0
 17 18  1  0
 18 19  1  0
 19 54  1  0
 19 55  1  0
 19 56  1  0
 20 21  2  0
 20 25  1  0
 21 22  1  0
 21 57  1  0
 22 23  2  0
 22 58  1  0
 23 24  1  0
 23 59  1  0
 24 25  2  0
 24 60  1  0
 25 61  1  0
 26 27  2  0
 26 28  1  0
 28 62  1  0
 29 30  1  0
 29 34  2  0
 30 31  2  0
 30 35  1  0
 31 32  1  0
 31 63  1  0
 32 33  2  0
 32 64  1  0
 33 34  1  0
 33 65  1  0
 34 66  1  0
 35 36  2  0
 35 37  1  0
 37 38  2  0
 37 42  1  0
 38 39  1  0
 38 67  1  0
 39 40  2  0
 39 68  1  0
 40 41  1  0
 40 69  1  0
 41 42  2  0
 41 70  1  0
 42 71  1  0
M  END

