
     RDKit          3D

 71 75  0  0  0  0  0  0  0  0999 V2000
    0.0193    0.0910    0.0335 N   0  0  0  0  0  0  0  0  0  0  0  0
    1.3926    0.0140   -0.4191 C   0  0  1  0  0  0  0  0  0  0  0  0
    2.0472   -0.0261    0.4641 H   0  0  0  0  0  0  0  0  0  0  0  0
    1.6245   -1.2477   -1.2692 C   0  0  0  0  0  0  0  0  0  0  0  0
    1.3035   -2.4983   -0.4888 C   0  0  0  0  0  0  0  0  0  0  0  0
    0.0520   -3.1140   -0.5875 C   0  0  0  0  0  0  0  0  0  0  0  0
   -0.2948   -4.2081    0.2118 C   0  0  0  0  0  0  0  0  0  0  0  0
    0.6296   -4.7118    1.1369 C   0  0  0  0  0  0  0  0  0  0  0  0
    1.8971   -4.1146    1.2373 C   0  0  0  0  0  0  0  0  0  0  0  0
    2.2204   -3.0240    0.4374 C   0  0  0  0  0  0  0  0  0  0  0  0
    0.3905   -5.7609    1.9666 O   0  0  0  0  0  0  0  0  0  0  0  0
   -0.8799   -6.3824    1.9365 C   0  0  0  0  0  0  0  0  0  0  0  0
   -0.9168   -7.4339    3.0413 C   0  0  0  0  0  0  0  0  0  0  0  0
   -2.2707   -8.0555    3.1585 C   0  0  0  0  0  0  0  0  0  0  0  0
   -3.3397   -7.3678    3.7161 N   0  0  0  0  0  0  0  0  0  0  0  0
   -4.3658   -8.1633    3.6128 C   0  0  0  0  0  0  0  0  0  0  0  0
   -4.0530   -9.3469    3.0209 O   0  0  0  0  0  0  0  0  0  0  0  0
   -2.7150   -9.2773    2.7270 C   0  0  0  0  0  0  0  0  0  0  0  0
   -2.0880  -10.4461    2.0635 C   0  0  0  0  0  0  0  0  0  0  0  0
   -5.7456   -7.9261    4.0245 C   0  0  0  0  0  0  0  0  0  0  0  0
   -6.0733   -6.7359    4.6991 C   0  0  0  0  0  0  0  0  0  0  0  0
   -7.3905   -6.4874    5.0794 C   0  0  0  0  0  0  0  0  0  0  0  0
   -8.3940   -7.4213    4.7979 C   0  0  0  0  0  0  0  0  0  0  0  0
   -8.0717   -8.6085    4.1334 C   0  0  0  0  0  0  0  0  0  0  0  0
   -6.7560   -8.8632    3.7468 C   0  0  0  0  0  0  0  0  0  0  0  0
    1.7400    1.2863   -1.1902 C   0  0  0  0  0  0  0  0  0  0  0  0
    1.7951    1.3888   -2.3891 O   0  0  0  0  0  0  0  0  0  0  0  0
    1.9525    2.3224   -0.3540 O   0  0  0  0  0  0  0  0  0  0  0  0
   -0.3666    0.1532    1.3454 C   0  0  0  0  0  0  0  0  0  0  0  0
   -1.6021   -0.4392    1.7702 C   0  0  0  0  0  0  0  0  0  0  0  0
   -1.9945   -0.3028    3.1180 C   0  0  0  0  0  0  0  0  0  0  0  0
   -1.2001    0.3481    4.0520 C   0  0  0  0  0  0  0  0  0  0  0  0
    0.0310    0.8794    3.6395 C   0  0  0  0  0  0  0  0  0  0  0  0
    0.4409    0.7907    2.3166 C   0  0  0  0  0  0  0  0  0  0  0  0
   -2.4358   -1.1927    0.8116 C   0  0  0  0  0  0  0  0  0  0  0  0
   -2.3750   -0.9898   -0.4051 O   0  0  0  0  0  0  0  0  0  0  0  0
   -3.3499   -2.2768    1.2994 C   0  0  0  0  0  0  0  0  0  0  0  0
   -3.0169   -3.1189    2.3736 C   0  0  0  0  0  0  0  0  0  0  0  0
   -3.8438   -4.1923    2.7126 C   0  0  0  0  0  0  0  0  0  0  0  0
   -5.0171   -4.4269    1.9897 C   0  0  0  0  0  0  0  0  0  0  0  0
   -5.3556   -3.5938    0.9173 C   0  0  0  0  0  0  0  0  0  0  0  0
   -4.5190   -2.5357    0.5648 C   0  0  0  0  0  0  0  0  0  0  0  0
   -0.7066   -0.2645   -0.5901 H   0  0  0  0  0  0  0  0  0  0  0  0
    2.6726   -1.2501   -1.6074 H   0  0  0  0  0  0  0  0  0  0  0  0
    1.0056   -1.1751   -2.1764 H   0  0  0  0  0  0  0  0  0  0  0  0
   -0.6914   -2.7232   -1.2846 H   0  0  0  0  0  0  0  0  0  0  0  0
   -1.2881   -4.6432    0.1115 H   0  0  0  0  0  0  0  0  0  0  0  0
    2.6079   -4.5238    1.9576 H   0  0  0  0  0  0  0  0  0  0  0  0
    3.2092   -2.5661    0.5368 H   0  0  0  0  0  0  0  0  0  0  0  0
   -1.0589   -6.8532    0.9513 H   0  0  0  0  0  0  0  0  0  0  0  0
   -1.6794   -5.6416    2.0974 H   0  0  0  0  0  0  0  0  0  0  0  0
   -0.6542   -6.9454    3.9928 H   0  0  0  0  0  0  0  0  0  0  0  0
   -0.1512   -8.1992    2.8432 H   0  0  0  0  0  0  0  0  0  0  0  0
   -2.5480  -10.6459    1.0815 H   0  0  0  0  0  0  0  0  0  0  0  0
   -2.1972  -11.3590    2.6722 H   0  0  0  0  0  0  0  0  0  0  0  0
   -1.0165  -10.2603    1.9091 H   0  0  0  0  0  0  0  0  0  0  0  0
   -5.2832   -6.0168    4.9180 H   0  0  0  0  0  0  0  0  0  0  0  0
   -7.6369   -5.5594    5.6005 H   0  0  0  0  0  0  0  0  0  0  0  0
   -9.4258   -7.2238    5.0976 H   0  0  0  0  0  0  0  0  0  0  0  0
   -8.8517   -9.3408    3.9126 H   0  0  0  0  0  0  0  0  0  0  0  0
   -6.5011   -9.7864    3.2244 H   0  0  0  0  0  0  0  0  0  0  0  0
    2.0983    3.1101   -0.9060 H   0  0  0  0  0  0  0  0  0  0  0  0
   -2.9567   -0.7141    3.4249 H   0  0  0  0  0  0  0  0  0  0  0  0
   -1.5321    0.4496    5.0867 H   0  0  0  0  0  0  0  0  0  0  0  0
    0.6694    1.3980    4.3597 H   0  0  0  0  0  0  0  0  0  0  0  0
    1.3649    1.2741    2.0007 H   0  0  0  0  0  0  0  0  0  0  0  0
   -2.0851   -2.9591    2.9176 H   0  0  0  0  0  0  0  0  0  0  0  0
   -3.5610   -4.8777    3.5136 H   0  0  0  0  0  0  0  0  0  0  0  0
   -5.6605   -5.2673    2.2603 H   0  0  0  0  0  0  0  0  0  0  0  0
   -6.2698   -3.7785    0.3479 H   0  0  0  0  0  0  0  0  0  0  0  0
   -4.7498   -1.8960   -0.2889 H   0  0  0  0  0  0  0  0  0  0  0  0
  1  2  1  0
  1 29  1  0
  1 43  1  0
  2  3  1  1
  2  4  1  0
  2 26  1  0
  4  5  1  0
  4 44  1  0
  4 45  1  0
  5  6  2  0
  5 10  1  0
  6  7  1  0
  6 46  1  0
  7  8  2  0
  7 47  1  0
  8  9  1  0
  8 11  1  0
  9 10  2  0
  9 48  1  0
 10 49  1  0
 11 12  1  0
 12 13  1  0
 12 50  1  0
 12 51  1  0
 13 14  1  0
 13 52  1  0
 13 53  1  0
 14 15  1  0
 14 18  2  0
 15 16  2  0
 16 17  1  0
 16 20  1  0
 17 18  1  0
 18 19  1  0
 19 54  1  0
 19 55  1  0
 19 56  1  0
 20 21  2  0
 20 25  1  0
 21 22  1  0
 21 57  1  0
 22 23  2  0
 22 58  1  0
 23 24  1  0
 23 59  1  0
 24 25  2  0
 24 60  1  0
 25 61  1  0
 26 27  2  0
 26 28  1  0
 28 62  1  0
 29 30  1  0
 29 34  2  0
 30 31  2  0
 30 35  1  0
 31 32  1  0
 31 63  1  0
 32 33  2  0
 32 64  1  0
 33 34  1  0
 33 65  1  0
 34 66  1  0
 35 36  2  0
 35 37  1  0
 37 38  2  0
 37 42  1  0
 38 39  1  0
 38 67  1  0
 39 40  2  0
 39 68  1  0
 40 41  1  0
 40 69  1  0
 41 42  2  0
 41 70  1  0
 42 71  1  0
M  END

