
     RDKit          3D

 71 75  0  0  0  0  0  0  0  0999 V2000
   -0.2827    0.2822    0.0520 N   0  0  0  0  0  0  0  0  0  0  0  0
    1.1620    0.3100    0.1365 C   0  0  1  0  0  0  0  0  0  0  0  0
    1.3848    0.3430    1.2137 H   0  0  0  0  0  0  0  0  0  0  0  0
    1.8736   -0.9289   -0.4485 C   0  0  0  0  0  0  0  0  0  0  0  0
    3.2966   -1.0666    0.0383 C   0  0  0  0  0  0  0  0  0  0  0  0
    3.5688   -1.6671    1.2800 C   0  0  0  0  0  0  0  0  0  0  0  0
    4.8683   -1.7763    1.7629 C   0  0  0  0  0  0  0  0  0  0  0  0
    5.9453   -1.2799    1.0109 C   0  0  0  0  0  0  0  0  0  0  0  0
    5.6951   -0.6799   -0.2332 C   0  0  0  0  0  0  0  0  0  0  0  0
    4.3805   -0.5781   -0.6996 C   0  0  0  0  0  0  0  0  0  0  0  0
    7.1783   -1.4215    1.5704 O   0  0  0  0  0  0  0  0  0  0  0  0
    8.3118   -0.9637    0.8583 C   0  0  0  0  0  0  0  0  0  0  0  0
    8.7426   -1.9379   -0.2493 C   0  0  0  0  0  0  0  0  0  0  0  0
    9.6529   -1.2763   -1.2302 C   0  0  0  0  0  0  0  0  0  0  0  0
    9.2100   -0.1974   -1.9834 N   0  0  0  0  0  0  0  0  0  0  0  0
   10.2221    0.1574   -2.7215 C   0  0  0  0  0  0  0  0  0  0  0  0
   11.3215   -0.6151   -2.5097 O   0  0  0  0  0  0  0  0  0  0  0  0
   10.9590   -1.5299   -1.5528 C   0  0  0  0  0  0  0  0  0  0  0  0
   11.9753   -2.5184   -1.1178 C   0  0  0  0  0  0  0  0  0  0  0  0
   10.2993    1.2372   -3.6999 C   0  0  0  0  0  0  0  0  0  0  0  0
   11.4841    1.4901   -4.4125 C   0  0  0  0  0  0  0  0  0  0  0  0
   11.5318    2.5290   -5.3420 C   0  0  0  0  0  0  0  0  0  0  0  0
   10.4037    3.3229   -5.5698 C   0  0  0  0  0  0  0  0  0  0  0  0
    9.2223    3.0734   -4.8619 C   0  0  0  0  0  0  0  0  0  0  0  0
    9.1665    2.0378   -3.9318 C   0  0  0  0  0  0  0  0  0  0  0  0
    1.7258    1.6219   -0.4258 C   0  0  0  0  0  0  0  0  0  0  0  0
    2.3755    1.7376   -1.4361 O   0  0  0  0  0  0  0  0  0  0  0  0
    1.3842    2.6679    0.3420 O   0  0  0  0  0  0  0  0  0  0  0  0
   -1.0568    0.3555   -1.0671 C   0  0  0  0  0  0  0  0  0  0  0  0
   -2.4913    0.3108   -0.9446 C   0  0  0  0  0  0  0  0  0  0  0  0
   -3.2730    0.2976   -2.1209 C   0  0  0  0  0  0  0  0  0  0  0  0
   -2.7084    0.3820   -3.3846 C   0  0  0  0  0  0  0  0  0  0  0  0
   -1.3142    0.5000   -3.4908 C   0  0  0  0  0  0  0  0  0  0  0  0
   -0.5028    0.4885   -2.3662 C   0  0  0  0  0  0  0  0  0  0  0  0
   -3.1317    0.2459    0.3833 C   0  0  0  0  0  0  0  0  0  0  0  0
   -2.5073   -0.0530    1.4070 O   0  0  0  0  0  0  0  0  0  0  0  0
   -4.5934    0.5614    0.5365 C   0  0  0  0  0  0  0  0  0  0  0  0
   -5.2097    1.6413   -0.1160 C   0  0  0  0  0  0  0  0  0  0  0  0
   -6.5496    1.9452    0.1351 C   0  0  0  0  0  0  0  0  0  0  0  0
   -7.2898    1.1675    1.0293 C   0  0  0  0  0  0  0  0  0  0  0  0
   -6.6796    0.0965    1.6914 C   0  0  0  0  0  0  0  0  0  0  0  0
   -5.3362   -0.1937    1.4585 C   0  0  0  0  0  0  0  0  0  0  0  0
   -0.8166    0.1113    0.9064 H   0  0  0  0  0  0  0  0  0  0  0  0
    1.8465   -0.8934   -1.5455 H   0  0  0  0  0  0  0  0  0  0  0  0
    1.2819   -1.8027   -0.1362 H   0  0  0  0  0  0  0  0  0  0  0  0
    2.7439   -2.0653    1.8786 H   0  0  0  0  0  0  0  0  0  0  0  0
    5.0812   -2.2460    2.7250 H   0  0  0  0  0  0  0  0  0  0  0  0
    6.5061   -0.2960   -0.8525 H   0  0  0  0  0  0  0  0  0  0  0  0
    4.1945   -0.0941   -1.6600 H   0  0  0  0  0  0  0  0  0  0  0  0
    9.1127   -0.8593    1.6050 H   0  0  0  0  0  0  0  0  0  0  0  0
    8.1267    0.0340    0.4280 H   0  0  0  0  0  0  0  0  0  0  0  0
    7.8424   -2.2846   -0.7815 H   0  0  0  0  0  0  0  0  0  0  0  0
    9.2158   -2.8264    0.1937 H   0  0  0  0  0  0  0  0  0  0  0  0
   12.8641   -2.0216   -0.6943 H   0  0  0  0  0  0  0  0  0  0  0  0
   12.3157   -3.1428   -1.9607 H   0  0  0  0  0  0  0  0  0  0  0  0
   11.5519   -3.1798   -0.3498 H   0  0  0  0  0  0  0  0  0  0  0  0
   12.3617    0.8677   -4.2314 H   0  0  0  0  0  0  0  0  0  0  0  0
   12.4558    2.7204   -5.8928 H   0  0  0  0  0  0  0  0  0  0  0  0
   10.4443    4.1358   -6.2987 H   0  0  0  0  0  0  0  0  0  0  0  0
    8.3386    3.6913   -5.0377 H   0  0  0  0  0  0  0  0  0  0  0  0
    8.2531    1.8299   -3.3725 H   0  0  0  0  0  0  0  0  0  0  0  0
    1.7385    3.4640   -0.0906 H   0  0  0  0  0  0  0  0  0  0  0  0
   -4.3539    0.1972   -2.0258 H   0  0  0  0  0  0  0  0  0  0  0  0
   -3.3372    0.3579   -4.2762 H   0  0  0  0  0  0  0  0  0  0  0  0
   -0.8475    0.5895   -4.4753 H   0  0  0  0  0  0  0  0  0  0  0  0
    0.5742    0.5750   -2.4888 H   0  0  0  0  0  0  0  0  0  0  0  0
   -4.6323    2.2606   -0.8044 H   0  0  0  0  0  0  0  0  0  0  0  0
   -7.0160    2.7958   -0.3676 H   0  0  0  0  0  0  0  0  0  0  0  0
   -8.3407    1.4007    1.2175 H   0  0  0  0  0  0  0  0  0  0  0  0
   -7.2531   -0.5085    2.3977 H   0  0  0  0  0  0  0  0  0  0  0  0
   -4.8389   -1.0079    1.9885 H   0  0  0  0  0  0  0  0  0  0  0  0
  1  2  1  0
  1 29  1  0
  1 43  1  0
  2  3  1  1
  2  4  1  0
  2 26  1  0
  4  5  1  0
  4 44  1  0
  4 45  1  0
  5  6  2  0
  5 10  1  0
  6  7  1  0
  6 46  1  0
  7  8  2  0
  7 47  1  0
  8  9  1  0
  8 11  1  0
  9 10  2  0
  9 48  1  0
 10 49  1  0
 11 12  1  0
 12 13  1  0
 12 50  1  0
 12 51  1  0
 13 14  1  0
 13 52  1  0
 13 53  1  0
 14 15  1  0
 14 18  2  0
 15 16  2  0
 16 17  1  0
 16 20  1  0
 17 18  1  0
 18 19  1  0
 19 54  1  0
 19 55  1  0
 19 56  1  0
 20 21  2  0
 20 25  1  0
 21 22  1  0
 21 57  1  0
 22 23  2  0
 22 58  1  0
 23 24  1  0
 23 59  1  0
 24 25  2  0
 24 60  1  0
 25 61  1  0
 26 27  2  0
 26 28  1  0
 28 62  1  0
 29 30  1  0
 29 34  2  0
 30 31  2  0
 30 35  1  0
 31 32  1  0
 31 63  1  0
 32 33  2  0
 32 64  1  0
 33 34  1  0
 33 65  1  0
 34 66  1  0
 35 36  2  0
 35 37  1  0
 37 38  2  0
 37 42  1  0
 38 39  1  0
 38 67  1  0
 39 40  2  0
 39 68  1  0
 40 41  1  0
 40 69  1  0
 41 42  2  0
 41 70  1  0
 42 71  1  0
M  END

