71

N          0.01930        0.09100        0.03350
C          1.39260        0.01400       -0.41910
H          2.04720       -0.02610        0.46410
C          1.62450       -1.24770       -1.26920
C          1.30350       -2.49830       -0.48880
C          0.05200       -3.11400       -0.58750
C         -0.29480       -4.20810        0.21180
C          0.62960       -4.71180        1.13690
C          1.89710       -4.11460        1.23730
C          2.22040       -3.02400        0.43740
O          0.39050       -5.76090        1.96660
C         -0.87990       -6.38240        1.93650
C         -0.91680       -7.43390        3.04130
C         -2.27070       -8.05550        3.15850
N         -3.33970       -7.36780        3.71610
C         -4.36580       -8.16330        3.61280
O         -4.05300       -9.34690        3.02090
C         -2.71500       -9.27730        2.72700
C         -2.08800      -10.44610        2.06350
C         -5.74560       -7.92610        4.02450
C         -6.07330       -6.73590        4.69910
C         -7.39050       -6.48740        5.07940
C         -8.39400       -7.42130        4.79790
C         -8.07170       -8.60850        4.13340
C         -6.75600       -8.86320        3.74680
C          1.74000        1.28630       -1.19020
O          1.79510        1.38880       -2.38910
O          1.95250        2.32240       -0.35400
C         -0.36660        0.15320        1.34540
C         -1.60210       -0.43920        1.77020
C         -1.99450       -0.30280        3.11800
C         -1.20010        0.34810        4.05200
C          0.03100        0.87940        3.63950
C          0.44090        0.79070        2.31660
C         -2.43580       -1.19270        0.81160
O         -2.37500       -0.98980       -0.40510
C         -3.34990       -2.27680        1.29940
C         -3.01690       -3.11890        2.37360
C         -3.84380       -4.19230        2.71260
C         -5.01710       -4.42690        1.98970
C         -5.35560       -3.59380        0.91730
C         -4.51900       -2.53570        0.56480
H         -0.70660       -0.26450       -0.59010
H          2.67260       -1.25010       -1.60740
H          1.00560       -1.17510       -2.17640
H         -0.69140       -2.72320       -1.28460
H         -1.28810       -4.64320        0.11150
H          2.60790       -4.52380        1.95760
H          3.20920       -2.56610        0.53680
H         -1.05890       -6.85320        0.95130
H         -1.67940       -5.64160        2.09740
H         -0.65420       -6.94540        3.99280
H         -0.15120       -8.19920        2.84320
H         -2.54800      -10.64590        1.08150
H         -2.19720      -11.35900        2.67220
H         -1.01650      -10.26030        1.90910
H         -5.28320       -6.01680        4.91800
H         -7.63690       -5.55940        5.60050
H         -9.42580       -7.22380        5.09760
H         -8.85170       -9.34080        3.91260
H         -6.50110       -9.78640        3.22440
H          2.09830        3.11010       -0.90600
H         -2.95670       -0.71410        3.42490
H         -1.53210        0.44960        5.08670
H          0.66940        1.39800        4.35970
H          1.36490        1.27410        2.00070
H         -2.08510       -2.95910        2.91760
H         -3.56100       -4.87770        3.51360
H         -5.66050       -5.26730        2.26030
H         -6.26980       -3.77850        0.34790
H         -4.74980       -1.89600       -0.28890
