rmsd170.gzmat
 OpenBabel08211713423D

 71 75  0  0  1  0  0  0  0  0999 V2000
    0.0000    0.0000    0.0000 N   0  0  0  0  0  0  0  0  0  0  0  0
    1.4553    0.0000    0.0000 C   0  0  1  0  0  0  0  0  0  0  0  0
    1.8512    0.0000    1.0556 H   0  0  0  0  0  0  0  0  0  0  0  0
    1.9749   -1.2502   -0.7432 C   0  0  0  0  0  0  0  0  0  0  0  0
    3.4633   -1.3229   -0.6143 C   0  0  0  0  0  0  0  0  0  0  0  0
    4.0392   -1.9196    0.5088 C   0  0  0  0  0  0  0  0  0  0  0  0
    5.4222   -1.9887    0.6382 C   0  0  0  0  0  0  0  0  0  0  0  0
    6.2193   -1.4559   -0.3763 C   0  0  0  0  0  0  0  0  0  0  0  0
    5.6586   -0.8362   -1.5021 C   0  0  0  0  0  0  0  0  0  0  0  0
    4.2763   -0.7771   -1.6119 C   0  0  0  0  0  0  0  0  0  0  0  0
    7.5809   -1.4192   -0.3560 O   0  0  0  0  0  0  0  0  0  0  0  0
    8.2691   -2.4794    0.2949 C   0  0  0  0  0  0  0  0  0  0  0  0
    8.3051   -3.7192   -0.6099 C   0  0  0  0  0  0  0  0  0  0  0  0
    7.0047   -4.4187   -0.6111 C   0  0  0  0  0  0  0  0  0  0  0  0
    6.5336   -5.0879    0.5347 N   0  0  0  0  0  0  0  0  0  0  0  0
    5.3418   -5.5664    0.2286 C   0  0  0  0  0  0  0  0  0  0  0  0
    4.9886   -5.2644   -1.0862 O   0  0  0  0  0  0  0  0  0  0  0  0
    6.0490   -4.5346   -1.5976 C   0  0  1  0  0  0  0  0  0  0  0  0
    5.8695   -4.0629   -2.9679 C   0  0  0  0  0  0  0  0  0  0  0  0
    4.3675   -6.2975    1.0055 C   0  0  0  0  0  0  0  0  0  0  0  0
    4.6673   -6.6492    2.3266 C   0  0  0  0  0  0  0  0  0  0  0  0
    3.7272   -7.3404    3.0851 C   0  0  0  0  0  0  0  0  0  0  0  0
    2.4941   -7.6801    2.5296 C   0  0  0  0  0  0  0  0  0  0  0  0
    2.1981   -7.3310    1.2122 C   0  0  0  0  0  0  0  0  0  0  0  0
    3.1312   -6.6382    0.4462 C   0  0  0  0  0  0  0  0  0  0  0  0
    1.9550    1.2456   -0.7399 C   0  0  0  0  0  0  0  0  0  0  0  0
    1.9472    1.4730   -1.9173 O   0  0  0  0  0  0  0  0  0  0  0  0
    2.4350    2.1395    0.1574 O   0  0  0  0  0  0  0  0  0  0  0  0
   -0.7478    0.7994    0.8324 C   0  0  0  0  0  0  0  0  0  0  0  0
   -2.1481    0.9159    0.6220 C   0  0  0  0  0  0  0  0  0  0  0  0
   -2.9185    1.6045    1.5729 C   0  0  0  0  0  0  0  0  0  0  0  0
   -2.3382    2.2204    2.6651 C   0  0  0  0  0  0  0  0  0  0  0  0
   -0.9442    2.1719    2.8238 C   0  0  0  0  0  0  0  0  0  0  0  0
   -0.1560    1.4829    1.9273 C   0  0  0  0  0  0  0  0  0  0  0  0
   -2.8000    0.3437   -0.5577 C   0  0  0  0  0  0  0  0  0  0  0  0
   -2.2591   -0.4827   -1.2706 O   0  0  0  0  0  0  0  0  0  0  0  0
   -4.1717    0.7984   -0.9145 C   0  0  0  0  0  0  0  0  0  0  0  0
   -5.1742   -0.1542   -1.0903 C   0  0  0  0  0  0  0  0  0  0  0  0
   -6.4568    0.2554   -1.4501 C   0  0  0  0  0  0  0  0  0  0  0  0
   -6.7264    1.6090   -1.6469 C   0  0  0  0  0  0  0  0  0  0  0  0
   -5.7158    2.5566   -1.4865 C   0  0  0  0  0  0  0  0  0  0  0  0
   -4.4343    2.1530   -1.1190 C   0  0  0  0  0  0  0  0  0  0  0  0
   -0.4653   -0.4196   -0.8155 H   0  0  0  0  0  0  0  0  0  0  0  0
    1.6649   -1.2244   -1.8109 H   0  0  0  0  0  0  0  0  0  0  0  0
    1.4925   -2.1599   -0.3233 H   0  0  0  0  0  0  0  0  0  0  0  0
    3.4059   -2.3398    1.2904 H   0  0  0  0  0  0  0  0  0  0  0  0
    5.8682   -2.4638    1.5087 H   0  0  0  0  0  0  0  0  0  0  0  0
    6.3076   -0.4114   -2.2628 H   0  0  0  0  0  0  0  0  0  0  0  0
    3.8214   -0.2968   -2.4819 H   0  0  0  0  0  0  0  0  0  0  0  0
    7.8389   -2.7005    1.2868 H   0  0  0  0  0  0  0  0  0  0  0  0
    9.2754   -2.0339    0.4198 H   0  0  0  0  0  0  0  0  0  0  0  0
    9.1064   -4.4069   -0.2546 H   0  0  0  0  0  0  0  0  0  0  0  0
    8.5902   -3.4184   -1.6411 H   0  0  0  0  0  0  0  0  0  0  0  0
    5.5264   -3.0082   -2.9806 H   0  0  0  0  0  0  0  0  0  0  0  0
    5.1122   -4.6489   -3.5166 H   0  0  0  0  0  0  0  0  0  0  0  0
    6.8059   -4.1073   -3.5466 H   0  0  0  0  0  0  0  0  0  0  0  0
    5.6371   -6.3785    2.7508 H   0  0  0  0  0  0  0  0  0  0  0  0
    3.9567   -7.6156    4.1127 H   0  0  0  0  0  0  0  0  0  0  0  0
    1.7604   -8.2196    3.1260 H   0  0  0  0  0  0  0  0  0  0  0  0
    1.2359   -7.6008    0.7803 H   0  0  0  0  0  0  0  0  0  0  0  0
    2.8998   -6.3616   -0.5830 H   0  0  0  0  0  0  0  0  0  0  0  0
    2.7864    2.9706   -0.2473 H   0  0  0  0  0  0  0  0  0  0  0  0
   -4.0040    1.6532    1.4453 H   0  0  0  0  0  0  0  0  0  0  0  0
   -2.9477    2.7454    3.3930 H   0  0  0  0  0  0  0  0  0  0  0  0
   -0.4853    2.6880    3.6681 H   0  0  0  0  0  0  0  0  0  0  0  0
    0.9242    1.4699    2.0579 H   0  0  0  0  0  0  0  0  0  0  0  0
   -4.9489   -1.2125   -0.9542 H   0  0  0  0  0  0  0  0  0  0  0  0
   -7.2451   -0.4822   -1.5842 H   0  0  0  0  0  0  0  0  0  0  0  0
   -7.7277    1.9269   -1.9311 H   0  0  0  0  0  0  0  0  0  0  0  0
   -5.9276    3.6113   -1.6490 H   0  0  0  0  0  0  0  0  0  0  0  0
   -3.6402    2.8899   -0.9966 H   0  0  0  0  0  0  0  0  0  0  0  0
  1 29  1  0  0  0  0
  2  1  1  0  0  0  0
  2  3  1  1  0  0  0
  4  5  1  0  0  0  0
  4 45  1  0  0  0  0
  4  2  1  0  0  0  0
  5  6  2  0  0  0  0
  6  7  1  0  0  0  0
  6 46  1  0  0  0  0
  7 47  1  0  0  0  0
  8 11  1  0  0  0  0
  8  7  2  0  0  0  0
  9  8  1  0  0  0  0
 10  9  2  0  0  0  0
 10  5  1  0  0  0  0
 11 12  1  0  0  0  0
 12 51  1  0  0  0  0
 12 50  1  0  0  0  0
 13 52  1  0  0  0  0
 13 12  1  0  0  0  0
 14 13  1  0  0  0  0
 14 15  2  0  0  0  0
 16 15  2  0  0  0  0
 16 20  1  0  0  0  0
 17 16  1  0  0  0  0
 18 19  1  1  0  0  0
 18 17  1  0  0  0  0
 18 14  1  0  0  0  0
 20 21  1  0  0  0  0
 21 57  1  0  0  0  0
 21 22  2  0  0  0  0
 22 58  1  0  0  0  0
 23 22  1  0  0  0  0
 23 59  1  0  0  0  0
 24 23  2  0  0  0  0
 25 20  2  0  0  0  0
 25 24  1  0  0  0  0
 26  2  1  0  0  0  0
 26 28  1  0  0  0  0
 27 26  2  0  0  0  0
 29 34  1  0  0  0  0
 30 29  2  0  0  0  0
 30 31  1  0  0  0  0
 31 32  2  0  0  0  0
 32 33  1  0  0  0  0
 32 64  1  0  0  0  0
 33 65  1  0  0  0  0
 34 66  1  0  0  0  0
 34 33  2  0  0  0  0
 35 30  1  0  0  0  0
 36 35  2  0  0  0  0
 37 35  1  0  0  0  0
 38 67  1  0  0  0  0
 38 37  1  0  0  0  0
 39 38  2  0  0  0  0
 40 41  2  0  0  0  0
 40 39  1  0  0  0  0
 41 42  1  0  0  0  0
 42 71  1  0  0  0  0
 42 37  2  0  0  0  0
 43  1  1  0  0  0  0
 44  4  1  0  0  0  0
 48  9  1  0  0  0  0
 49 10  1  0  0  0  0
 53 13  1  0  0  0  0
 54 19  1  0  0  0  0
 55 19  1  0  0  0  0
 56 19  1  0  0  0  0
 60 24  1  0  0  0  0
 61 25  1  0  0  0  0
 62 28  1  0  0  0  0
 63 31  1  0  0  0  0
 68 39  1  0  0  0  0
 69 40  1  0  0  0  0
 70 41  1  0  0  0  0
M  RAD  1  18   2
M  END
$$$$
