rmsd187.gzmat
 OpenBabel08211713423D

 71 75  0  0  1  0  0  0  0  0999 V2000
    0.0000    0.0000    0.0000 N   0  0  0  0  0  0  0  0  0  0  0  0
    1.4530    0.0000    0.0000 C   0  0  1  0  0  0  0  0  0  0  0  0
    1.8525    0.0000    1.0562 H   0  0  0  0  0  0  0  0  0  0  0  0
    1.9668   -1.2556   -0.7367 C   0  0  0  0  0  0  0  0  0  0  0  0
    3.4503   -1.3568   -0.5859 C   0  0  0  0  0  0  0  0  0  0  0  0
    3.9991   -1.8553    0.6021 C   0  0  0  0  0  0  0  0  0  0  0  0
    5.3730   -1.9365    0.7600 C   0  0  0  0  0  0  0  0  0  0  0  0
    6.2022   -1.5142   -0.2939 C   0  0  0  0  0  0  0  0  0  0  0  0
    5.6730   -1.0173   -1.4853 C   0  0  0  0  0  0  0  0  0  0  0  0
    4.2885   -0.9436   -1.6199 C   0  0  0  0  0  0  0  0  0  0  0  0
    7.5204   -1.6483   -0.0132 O   0  0  0  0  0  0  0  0  0  0  0  0
    8.4516   -1.2625   -1.0307 C   0  0  0  0  0  0  0  0  0  0  0  0
    9.8104   -1.5143   -0.3636 C   0  0  0  0  0  0  0  0  0  0  0  0
   10.9004   -1.3304   -1.3415 C   0  0  0  0  0  0  0  0  0  0  0  0
   10.8270   -0.3667   -2.3652 N   0  0  0  0  0  0  0  0  0  0  0  0
   11.9500   -0.4591   -3.0537 C   0  0  0  0  0  0  0  0  0  0  0  0
   12.7897   -1.4452   -2.5357 O   0  0  0  0  0  0  0  0  0  0  0  0
   12.1074   -1.9841   -1.4563 C   0  0  1  0  0  0  0  0  0  0  0  0
   12.8026   -3.0528   -0.7438 C   0  0  0  0  0  0  0  0  0  0  0  0
   12.4273    0.2595   -4.2126 C   0  0  0  0  0  0  0  0  0  0  0  0
   11.6384    1.2796   -4.7569 C   0  0  0  0  0  0  0  0  0  0  0  0
   12.0877    1.9744   -5.8761 C   0  0  0  0  0  0  0  0  0  0  0  0
   13.3171    1.6538   -6.4503 C   0  0  0  0  0  0  0  0  0  0  0  0
   14.1010    0.6360   -5.9076 C   0  0  0  0  0  0  0  0  0  0  0  0
   13.6603   -0.0638   -4.7879 C   0  0  0  0  0  0  0  0  0  0  0  0
    1.9541    1.2777   -0.6814 C   0  0  0  0  0  0  0  0  0  0  0  0
    2.3985    2.2539   -0.1425 O   0  0  0  0  0  0  0  0  0  0  0  0
    1.8204    1.2048   -2.0256 O   0  0  0  0  0  0  0  0  0  0  0  0
   -0.7567    0.6251    0.9593 C   0  0  0  0  0  0  0  0  0  0  0  0
   -2.1688    0.4637    0.9469 C   0  0  0  0  0  0  0  0  0  0  0  0
   -2.9303    1.1102    1.9333 C   0  0  0  0  0  0  0  0  0  0  0  0
   -2.3377    1.8759    2.9192 C   0  0  0  0  0  0  0  0  0  0  0  0
   -0.9421    2.0241    2.9327 C   0  0  0  0  0  0  0  0  0  0  0  0
   -0.1586    1.4162    1.9751 C   0  0  0  0  0  0  0  0  0  0  0  0
   -2.8420   -0.3429   -0.0719 C   0  0  0  0  0  0  0  0  0  0  0  0
   -2.2881   -0.7108   -1.0923 O   0  0  0  0  0  0  0  0  0  0  0  0
   -4.2611   -0.7381    0.1447 C   0  0  0  0  0  0  0  0  0  0  0  0
   -5.2197   -0.3647   -0.7955 C   0  0  0  0  0  0  0  0  0  0  0  0
   -6.5457   -0.7550   -0.6166 C   0  0  0  0  0  0  0  0  0  0  0  0
   -6.9014   -1.5281    0.4873 C   0  0  0  0  0  0  0  0  0  0  0  0
   -5.9355   -1.9102    1.4182 C   0  0  0  0  0  0  0  0  0  0  0  0
   -4.6111   -1.5135    1.2499 C   0  0  0  0  0  0  0  0  0  0  0  0
   -0.4721   -0.4064   -0.8159 H   0  0  0  0  0  0  0  0  0  0  0  0
    1.6694   -1.2244   -1.8078 H   0  0  0  0  0  0  0  0  0  0  0  0
    1.4651   -2.1587   -0.3252 H   0  0  0  0  0  0  0  0  0  0  0  0
    3.3424   -2.1809    1.4086 H   0  0  0  0  0  0  0  0  0  0  0  0
    5.8188   -2.3165    1.6746 H   0  0  0  0  0  0  0  0  0  0  0  0
    6.3128   -0.6877   -2.2974 H   0  0  0  0  0  0  0  0  0  0  0  0
    3.8575   -0.5527   -2.5434 H   0  0  0  0  0  0  0  0  0  0  0  0
    8.3119   -0.1965   -1.2865 H   0  0  0  0  0  0  0  0  0  0  0  0
    8.3014   -1.8937   -1.9230 H   0  0  0  0  0  0  0  0  0  0  0  0
    9.8322   -2.5361    0.0751 H   0  0  0  0  0  0  0  0  0  0  0  0
    9.9365   -0.8194    0.4986 H   0  0  0  0  0  0  0  0  0  0  0  0
   13.0585   -2.7546    0.2880 H   0  0  0  0  0  0  0  0  0  0  0  0
   13.7483   -3.3366   -1.2380 H   0  0  0  0  0  0  0  0  0  0  0  0
   12.1860   -3.9661   -0.6772 H   0  0  0  0  0  0  0  0  0  0  0  0
   10.6757    1.5219   -4.2993 H   0  0  0  0  0  0  0  0  0  0  0  0
   11.4766    2.7679   -6.3026 H   0  0  0  0  0  0  0  0  0  0  0  0
   13.6662    2.1999   -7.3253 H   0  0  0  0  0  0  0  0  0  0  0  0
   15.0595    0.3870   -6.3596 H   0  0  0  0  0  0  0  0  0  0  0  0
   14.2722   -0.8596   -4.3625 H   0  0  0  0  0  0  0  0  0  0  0  0
    2.0961    2.0322   -2.4949 H   0  0  0  0  0  0  0  0  0  0  0  0
   -4.0196    1.0098    1.9161 H   0  0  0  0  0  0  0  0  0  0  0  0
   -2.9407    2.3673    3.6755 H   0  0  0  0  0  0  0  0  0  0  0  0
   -0.4775    2.6379    3.7065 H   0  0  0  0  0  0  0  0  0  0  0  0
    0.9178    1.5766    1.9794 H   0  0  0  0  0  0  0  0  0  0  0  0
   -4.9286    0.2229   -1.6667 H   0  0  0  0  0  0  0  0  0  0  0  0
   -7.3012   -0.4607   -1.3420 H   0  0  0  0  0  0  0  0  0  0  0  0
   -7.9357   -1.8383    0.6221 H   0  0  0  0  0  0  0  0  0  0  0  0
   -6.2166   -2.5177    2.2757 H   0  0  0  0  0  0  0  0  0  0  0  0
   -3.8521   -1.8101    1.9733 H   0  0  0  0  0  0  0  0  0  0  0  0
  1  2  1  0  0  0  0
  1 29  1  0  0  0  0
  2  3  1  1  0  0  0
  4  5  1  0  0  0  0
  4 45  1  0  0  0  0
  4  2  1  0  0  0  0
  5  6  2  0  0  0  0
  6  7  1  0  0  0  0
  6 46  1  0  0  0  0
  7 47  1  0  0  0  0
  8 11  1  0  0  0  0
  8  7  2  0  0  0  0
  9  8  1  0  0  0  0
 10  9  2  0  0  0  0
 10  5  1  0  0  0  0
 12 13  1  0  0  0  0
 12 11  1  0  0  0  0
 13 52  1  0  0  0  0
 13 53  1  0  0  0  0
 14 13  1  0  0  0  0
 15 14  2  0  0  0  0
 16 17  1  0  0  0  0
 16 15  2  0  0  0  0
 17 18  1  0  0  0  0
 18 14  1  0  0  0  0
 18 19  1  1  0  0  0
 19 56  1  0  0  0  0
 19 54  1  0  0  0  0
 20 16  1  0  0  0  0
 21 57  1  0  0  0  0
 21 20  1  0  0  0  0
 22 21  2  0  0  0  0
 23 24  2  0  0  0  0
 23 22  1  0  0  0  0
 24 25  1  0  0  0  0
 25 61  1  0  0  0  0
 25 20  2  0  0  0  0
 26 27  2  0  0  0  0
 26  2  1  0  0  0  0
 28 26  1  0  0  0  0
 29 34  1  0  0  0  0
 30 29  2  0  0  0  0
 30 31  1  0  0  0  0
 31 32  2  0  0  0  0
 32 33  1  0  0  0  0
 32 64  1  0  0  0  0
 33 65  1  0  0  0  0
 34 66  1  0  0  0  0
 34 33  2  0  0  0  0
 35 37  1  0  0  0  0
 35 30  1  0  0  0  0
 36 35  2  0  0  0  0
 37 42  2  0  0  0  0
 38 39  2  0  0  0  0
 38 37  1  0  0  0  0
 39 40  1  0  0  0  0
 40 69  1  0  0  0  0
 40 41  2  0  0  0  0
 41 70  1  0  0  0  0
 42 41  1  0  0  0  0
 42 71  1  0  0  0  0
 43  1  1  0  0  0  0
 44  4  1  0  0  0  0
 48  9  1  0  0  0  0
 49 10  1  0  0  0  0
 50 12  1  0  0  0  0
 51 12  1  0  0  0  0
 55 19  1  0  0  0  0
 58 22  1  0  0  0  0
 59 23  1  0  0  0  0
 60 24  1  0  0  0  0
 62 28  1  0  0  0  0
 63 31  1  0  0  0  0
 67 38  1  0  0  0  0
 68 39  1  0  0  0  0
M  RAD  1  18   2
M  END
$$$$
