71

N          0.55220       -0.57920        1.31670
C          1.95220       -0.75840        1.61700
H          2.05900       -1.12620        2.64500
C          2.56500       -1.81200        0.66650
C          2.05070       -3.18850        1.00550
C          2.75530       -3.99440        1.90890
C          2.22580       -5.19000        2.39160
C          0.93900       -5.58640        2.00370
C          0.25150       -4.82830        1.04440
C          0.80330       -3.64650        0.55210
O          0.29120       -6.68470        2.49050
C          0.61400       -7.20390        3.77190
C         -0.00710       -6.38660        4.91710
C          0.54940       -5.00300        5.01310
N          1.85180       -4.77430        5.43240
C          2.07080       -3.50840        5.22010
O          0.98620       -2.86700        4.70520
C          0.01450       -3.82320        4.56680
C         -1.26310       -3.42650        3.93470
C          3.30940       -2.75510        5.37640
C          3.36930       -1.38840        5.05550
C          4.58000       -0.69990        5.12170
C          5.73940       -1.36420        5.53310
C          5.68180       -2.72110        5.87530
C          4.47740       -3.41760        5.79420
C          2.70160        0.57080        1.57520
O          3.17020        1.12670        2.54040
O          2.77100        1.08030        0.33430
C         -0.42340       -0.31040        2.22770
C         -1.80360       -0.54440        1.90200
C         -2.79110       -0.20060        2.85040
C         -2.46570        0.30090        4.10240
C         -1.11110        0.47420        4.43150
C         -0.11010        0.18450        3.51760
C         -2.16780       -1.15060        0.60840
O         -1.39770       -1.14440       -0.35940
C         -3.48940       -1.84190        0.43710
C         -4.09880       -1.78590       -0.82740
C         -5.28980       -2.46760       -1.06970
C         -5.87190       -3.24170       -0.05960
C         -5.25690       -3.32890        1.19190
C         -4.07510       -2.62820        1.44310
H          0.20890       -0.77230        0.37540
H          3.66010       -1.78020        0.77300
H          2.33410       -1.52580       -0.37200
H          3.73330       -3.66860        2.27380
H          2.79410       -5.76350        3.12070
H         -0.73590       -5.16580        0.72400
H          0.23060       -3.05760       -0.16690
H          1.70350       -7.28710        3.91510
H          0.19970       -8.22270        3.78120
H          0.18510       -6.92990        5.85750
H         -1.09760       -6.34950        4.77160
H         -1.10900       -3.21000        2.86540
H         -1.68200       -2.52160        4.40090
H         -1.99240       -4.24390        4.01360
H          2.46300       -0.86960        4.74890
H          4.60800        0.35250        4.83330
H          6.68940       -0.82690        5.58560
H          6.58650       -3.24120        6.19930
H          4.41870       -4.47920        6.03980
H          3.23180        1.93460        0.40020
H         -3.83980       -0.32390        2.57950
H         -3.24960        0.56730        4.81340
H         -0.83400        0.86680        5.41310
H          0.92930        0.38590        3.77320
H         -3.61660       -1.20140       -1.61270
H         -5.76420       -2.40370       -2.05190
H         -6.80100       -3.78360       -0.25170
H         -5.69650       -3.94890        1.97670
H         -3.59290       -2.71320        2.41680
