71
rmsd194.gzmat
N          0.00000        0.00000        0.00000
C          1.45370        0.00000        0.00000
H          1.85160        0.00000        1.05590
C          1.97850       -1.24450       -0.75100
C          3.41770       -1.47170       -0.41480
C          3.75140       -2.09750        0.79330
C          5.07730       -2.32100        1.12540
C          6.07850       -1.91070        0.22830
C          5.76470       -1.27980       -0.97480
C          4.42430       -1.06130       -1.28690
O          7.32970       -2.17490        0.68180
C          8.42520       -2.04820       -0.21720
C          8.43360       -3.21920       -1.21000
C          8.63350       -2.74860       -2.59400
N          9.87030       -2.22010       -3.01050
C          9.73730       -1.90520       -4.28540
O          8.45540       -2.19650       -4.75460
C          7.77440       -2.72760       -3.67050
C          6.39120       -3.11610       -3.93210
C         10.66370       -1.33750       -5.23780
C         10.30600       -1.20570       -6.58360
C         11.21320       -0.65820       -7.48650
C         12.47250       -0.24650       -7.05090
C         12.82940       -0.38180       -5.70990
C         11.92760       -0.92540       -4.79970
C          1.94920        1.24850       -0.73720
O          1.92270        1.48720       -1.91170
O          2.46490        2.12420        0.15900
C         -0.75830        0.66790        0.92770
C         -2.17700        0.58420        0.86510
C         -2.93200        1.20520        1.87330
C         -2.33390        1.92340        2.89060
C         -0.93580        2.04710        2.91730
C         -0.15580        1.43730        1.95910
C         -2.86040       -0.13840       -0.20770
O         -2.26710       -0.83130       -1.01560
C         -4.34120       -0.02930       -0.32440
C         -5.11550       -1.18160       -0.19910
C         -6.50040       -1.09630       -0.33080
C         -7.10130        0.13300       -0.59760
C         -6.32010        1.28000       -0.73700
C         -4.93590        1.20150       -0.60090
H         -0.47480       -0.47630       -0.77690
H          1.82800       -1.12720       -1.84700
H          1.36910       -2.13310       -0.47250
H          2.96220       -2.41320        1.47590
H          5.35760       -2.80360        2.05760
H          6.54440       -0.95340       -1.65800
H          4.16580       -0.55870       -2.22100
H          9.27830       -2.09130        0.48880
H          8.42260       -1.06090       -0.70850
H          7.48630       -3.79540       -1.11840
H          9.23760       -3.94080       -0.93690
H          6.29300       -4.20640       -4.07570
H          5.98880       -2.63710       -4.84200
H          5.72260       -2.83840       -3.09610
H          9.32300       -1.53170       -6.92450
H         10.93720       -0.55210       -8.53430
H         13.17890        0.18090       -7.76070
H         13.81370       -0.06240       -5.37220
H         12.19630       -1.03560       -3.74600
H          2.81020        2.95890       -0.24310
H         -4.02250        1.11520        1.85530
H         -2.93350        2.39510        3.66170
H         -0.46720        2.63610        3.70740
H          0.92500        1.56190        1.98550
H         -4.63710       -2.14200       -0.00640
H         -7.11120       -1.99130       -0.23130
H         -8.18270        0.19750       -0.70250
H         -6.79080        2.23630       -0.95560
H         -4.32150        2.09430       -0.71490
