71

N          0.08680       -0.17870        0.28100
C          1.25880        0.27810       -0.41140
H          2.06720        0.50600        0.30540
C          1.77720       -0.79720       -1.40650
C          1.85280       -2.16220       -0.77630
C          0.84770       -3.10200       -1.01990
C          0.76020       -4.28530       -0.28640
C          1.68550       -4.53980        0.73330
C          2.76440       -3.65720        0.91350
C          2.83770       -2.48250        0.17340
O          1.59760       -5.57940        1.60070
C          0.34890       -6.24430        1.75700
C         -0.76890       -5.33920        2.29290
C         -0.52100       -4.79560        3.66200
N         -0.95970       -5.46200        4.79480
C         -0.62210       -4.70840        5.80170
O          0.03660       -3.58250        5.41650
C          0.09910       -3.63390        4.04690
C          0.74830       -2.50150        3.34620
C         -0.90840       -4.90710        7.21710
C         -1.62700       -6.04760        7.61910
C         -1.92850       -6.24560        8.96470
C         -1.52030       -5.31190        9.92470
C         -0.80660       -4.17660        9.52900
C         -0.50000       -3.97140        8.18340
C          0.98740        1.54760       -1.22250
O         -0.03840        1.80520       -1.79240
O          2.08070        2.33870       -1.26610
C         -0.53570        0.50900        1.27700
C         -1.63930       -0.07030        1.99660
C         -2.32590        0.72460        2.93910
C         -1.92540        2.01610        3.24970
C         -0.78600        2.53630        2.61850
C         -0.10380        1.80570        1.65660
C         -2.03140       -1.47280        1.76580
O         -1.68620       -2.08770        0.74850
C         -2.80800       -2.23330        2.80200
C         -2.61370       -2.06460        4.18420
C         -3.24810       -2.90700        5.09780
C         -4.09010       -3.92440        4.64410
C         -4.29480       -4.09800        3.27160
C         -3.64940       -3.26640        2.35820
H         -0.35760       -1.06080        0.02440
H          2.75760       -0.45750       -1.77380
H          1.09230       -0.82350       -2.26820
H          0.07880       -2.88850       -1.76670
H         -0.06470       -4.96870       -0.48040
H          3.49930       -3.89110        1.68580
H          3.65350       -1.77960        0.36560
H          0.55090       -7.05280        2.47330
H          0.03800       -6.71000        0.80450
H         -1.68950       -5.94130        2.33530
H         -0.96520       -4.51050        1.59780
H          0.53650       -2.54340        2.27270
H          1.84320       -2.52050        3.46970
H          0.38410       -1.53820        3.73500
H         -1.93850       -6.76230        6.85570
H         -2.48650       -7.13410        9.26980
H         -1.75870       -5.46960       10.97920
H         -0.48560       -3.44520       10.27460
H          0.05660       -3.08700        7.86950
H          1.86090        3.09330       -1.83990
H         -3.20760        0.30760        3.42500
H         -2.48340        2.61130        3.97420
H         -0.43410        3.54050        2.86870
H          0.76290        2.25410        1.17220
H         -1.92730       -1.30160        4.55030
H         -3.06140       -2.78650        6.16670
H         -4.57260       -4.59270        5.36070
H         -4.94950       -4.89590        2.91330
H         -3.77250       -3.41240        1.28380
