71
rmsd195.gzmat
N          0.00000        0.00000        0.00000
C          1.45790        0.00000        0.00000
H          1.85420        0.00000        1.05600
C          2.04140       -1.20000       -0.78380
C          3.52030       -1.27370       -0.58080
C          4.03710       -1.79560        0.60460
C          5.41210       -1.83280        0.82680
C          6.26250       -1.33910       -0.16220
C          5.76200       -0.82820       -1.37220
C          4.39060       -0.79900       -1.56960
O          7.61590       -1.27720       -0.09100
C          8.27080       -1.78710        1.06400
C          8.37490       -3.31400        0.99750
C          9.43050       -3.72030        0.04790
N         10.71350       -4.08950        0.49440
C         11.42140       -4.37420       -0.58280
O         10.66830       -4.21480       -1.74770
C          9.41530       -3.80040       -1.32730
C          8.44370       -3.55950       -2.39010
C         12.79210       -4.79910       -0.75430
C         13.27250       -5.14280       -2.02270
C         14.59710       -5.54420       -2.17180
C         15.44000       -5.60310       -1.06240
C         14.96000       -5.26090        0.20130
C         13.63670       -4.85900        0.36000
C          1.89560        1.28820       -0.69450
O          1.64180        1.65440       -1.80820
O          2.66750        2.01370        0.14660
C         -0.73270       -0.67900        0.94810
C         -2.14960       -0.71010        0.84750
C         -2.88830       -1.37220        1.83630
C         -2.27060       -1.98580        2.91290
C         -0.87510       -1.94160        3.01900
C         -0.11240       -1.30520        2.05950
C         -2.86120       -0.09220       -0.27960
O         -2.32170        0.12830       -1.34620
C         -4.29370        0.26980       -0.10090
C         -5.22990       -0.17240       -1.03440
C         -6.56950        0.18350       -0.88770
C         -6.96390        0.99010        0.17850
C         -6.02120        1.44280        1.10180
C         -4.68290        1.08160        0.96470
H         -0.45920        0.24030       -0.88820
H          1.77750       -1.11790       -1.86040
H          1.54700       -2.13530       -0.44440
H          3.36270       -2.17720        1.37080
H          5.79830       -2.23400        1.75720
H          6.45150       -0.45250       -2.12420
H          3.98740       -0.39700       -2.50100
H          7.78000       -1.43290        1.98410
H          9.26540       -1.30040        0.97190
H          7.39710       -3.75370        0.70320
H          8.59730       -3.72040        2.01130
H          7.78980       -4.43290       -2.55450
H          8.92710       -3.32980       -3.35460
H          7.78680       -2.70320       -2.14250
H         12.61330       -5.09660       -2.88990
H         14.97470       -5.81220       -3.15700
H         16.47540       -5.91640       -1.18370
H         15.62010       -5.30690        1.06560
H         13.25040       -4.58990        1.34580
H          3.00620        2.85730       -0.24550
H         -3.97880       -1.41210        1.75290
H         -2.85810       -2.49770        3.66800
H         -0.38780       -2.42210        3.86850
H          0.96810       -1.29190        2.16100
H         -4.91070       -0.78550       -1.87820
H         -7.30640       -0.16140       -1.61040
H         -8.00980        1.27210        0.28820
H         -6.33060        2.07940        1.92810
H         -3.94200        1.43530        1.68250
