71

N         -0.37260       -0.22450        0.94590
C          1.06020       -0.19550        0.83860
H          1.52850       -0.03500        1.82440
C          1.54860       -1.54290        0.26750
C          3.04510       -1.61070        0.09890
C          3.88050       -1.96340        1.17190
C          5.26370       -1.98060        1.03560
C          5.86060       -1.63770       -0.18950
C          5.04080       -1.28260       -1.27120
C          3.65100       -1.27070       -1.11530
O          7.21750       -1.67030       -0.21990
C          7.90520       -1.45080       -1.43880
C          7.87570       -2.67910       -2.35540
C          8.62670       -2.42940       -3.62120
N          9.97640       -2.10910       -3.61130
C         10.30390       -1.92950       -4.85860
O          9.25580       -2.10600       -5.70850
C          8.18110       -2.42050       -4.91680
C          6.87800       -2.66920       -5.58030
C         11.60680       -1.57760       -5.41320
C         11.79010       -1.41360       -6.79690
C         13.04680       -1.07610       -7.29970
C         14.12860       -0.89930       -6.43180
C         13.94910       -1.06210       -5.05320
C         12.69730       -1.39920       -4.54330
C          1.53640        0.92670       -0.09260
O          1.12320        1.11050       -1.20820
O          2.50110        1.67460        0.47270
C         -1.13230        0.74670        1.52020
C         -2.56760        0.68280        1.45710
C         -3.31910        1.65130        2.15640
C         -2.71910        2.68980        2.85470
C         -1.31970        2.78620        2.84850
C         -0.53850        1.84250        2.19710
C         -3.23480       -0.39020        0.69330
O         -2.64020       -1.41010        0.33120
C         -4.68360       -0.26210        0.31510
C         -5.47580       -1.42130        0.34410
C         -6.80980       -1.37650       -0.05760
C         -7.36060       -0.17820       -0.52510
C         -6.57050        0.97250       -0.58900
C         -5.24000        0.93420       -0.16540
H         -0.90400       -0.98150        0.51190
H          1.04790       -1.68790       -0.70270
H          1.19470       -2.33440        0.94650
H          3.43570       -2.23510        2.13350
H          5.91480       -2.25860        1.86630
H          5.46750       -1.01350       -2.23690
H          3.02460       -0.98460       -1.96400
H          8.94510       -1.23020       -1.16290
H          7.50860       -0.56310       -1.96210
H          6.83690       -2.95870       -2.58310
H          8.32540       -3.52390       -1.80810
H          6.93700       -3.52230       -6.27670
H          6.54880       -1.79140       -6.16070
H          6.10880       -2.89330       -4.82870
H         10.94300       -1.55260       -7.47020
H         13.18300       -0.95010       -8.37630
H         15.11160       -0.63510       -6.82870
H         14.79250       -0.92520       -4.37230
H         12.53870       -1.53110       -3.47180
H          2.78330        2.32650       -0.19280
H         -4.40540        1.56480        2.15940
H         -3.32630        3.41860        3.39420
H         -0.82760        3.60910        3.37370
H          0.54610        1.94240        2.21950
H         -5.02400       -2.35490        0.68410
H         -7.42240       -2.28020       -0.01470
H         -8.40400       -0.14420       -0.84800
H         -6.99000        1.90470       -0.97440
H         -4.62280        1.83160       -0.23230
