rmsd119.gzmat
 OpenBabel08211713423D

 71 75  0  0  1  0  0  0  0  0999 V2000
    0.0000    0.0000    0.0000 N   0  0  0  0  0  0  0  0  0  0  0  0
    1.4632    0.0000    0.0000 C   0  0  1  0  0  0  0  0  0  0  0  0
    1.8669    0.0000    1.0511 H   0  0  0  0  0  0  0  0  0  0  0  0
    2.0592   -1.1997   -0.7803 C   0  0  0  0  0  0  0  0  0  0  0  0
    1.6435   -2.4727   -0.1155 C   0  0  0  0  0  0  0  0  0  0  0  0
    0.5241   -3.1651   -0.5807 C   0  0  0  0  0  0  0  0  0  0  0  0
    0.0496   -4.2813    0.1004 C   0  0  0  0  0  0  0  0  0  0  0  0
    0.7203   -4.6973    1.2515 C   0  0  0  0  0  0  0  0  0  0  0  0
    1.8799   -4.0491    1.7018 C   0  0  0  0  0  0  0  0  0  0  0  0
    2.3344   -2.9361    1.0092 C   0  0  0  0  0  0  0  0  0  0  0  0
    0.3565   -5.7604    2.0197 O   0  0  0  0  0  0  0  0  0  0  0  0
   -1.0111   -6.1567    1.9762 C   0  0  0  0  0  0  0  0  0  0  0  0
   -1.8802   -5.0703    2.6187 C   0  0  0  0  0  0  0  0  0  0  0  0
   -3.3186   -5.2882    2.3782 C   0  0  0  0  0  0  0  0  0  0  0  0
   -3.7998   -5.9528    1.2347 N   0  0  0  0  0  0  0  0  0  0  0  0
   -5.1178   -5.9284    1.3100 C   0  0  0  0  0  0  0  0  0  0  0  0
   -5.5562   -5.2771    2.4606 O   0  0  0  0  0  0  0  0  0  0  0  0
   -4.4045   -4.8806    3.1224 C   0  0  1  0  0  0  0  0  0  0  0  0
   -4.6285   -4.1725    4.3804 C   0  0  0  0  0  0  0  0  0  0  0  0
   -6.1451   -6.4255    0.4244 C   0  0  0  0  0  0  0  0  0  0  0  0
   -7.4779   -6.0457    0.6133 C   0  0  0  0  0  0  0  0  0  0  0  0
   -8.4548   -6.5036   -0.2661 C   0  0  0  0  0  0  0  0  0  0  0  0
   -8.1043   -7.3376   -1.3275 C   0  0  0  0  0  0  0  0  0  0  0  0
   -6.7767   -7.7231   -1.5085 C   0  0  0  0  0  0  0  0  0  0  0  0
   -5.7926   -7.2693   -0.6351 C   0  0  0  0  0  0  0  0  0  0  0  0
    1.9065    1.2967   -0.6730 C   0  0  0  0  0  0  0  0  0  0  0  0
    2.5963    2.1605   -0.2059 O   0  0  0  0  0  0  0  0  0  0  0  0
    1.4374    1.3590   -1.9399 O   0  0  0  0  0  0  0  0  0  0  0  0
   -0.6982   -0.6192    1.0285 C   0  0  0  0  0  0  0  0  0  0  0  0
   -1.9560   -1.2303    0.7835 C   0  0  0  0  0  0  0  0  0  0  0  0
   -2.6839   -1.7374    1.8703 C   0  0  0  0  0  0  0  0  0  0  0  0
   -2.1966   -1.6710    3.1628 C   0  0  0  0  0  0  0  0  0  0  0  0
   -0.9445   -1.0869    3.3993 C   0  0  0  0  0  0  0  0  0  0  0  0
   -0.2048   -0.5682    2.3574 C   0  0  0  0  0  0  0  0  0  0  0  0
   -2.4791   -1.4071   -0.5757 C   0  0  0  0  0  0  0  0  0  0  0  0
   -1.8977   -0.9909   -1.5604 O   0  0  0  0  0  0  0  0  0  0  0  0
   -3.7481   -2.1605   -0.7757 C   0  0  0  0  0  0  0  0  0  0  0  0
   -4.9699   -1.5937   -0.4175 C   0  0  0  0  0  0  0  0  0  0  0  0
   -6.1493   -2.2927   -0.6652 C   0  0  0  0  0  0  0  0  0  0  0  0
   -6.1021   -3.5457   -1.2749 C   0  0  0  0  0  0  0  0  0  0  0  0
   -4.8772   -4.1054   -1.6335 C   0  0  0  0  0  0  0  0  0  0  0  0
   -3.6937   -3.4140   -1.3832 C   0  0  0  0  0  0  0  0  0  0  0  0
   -0.4139   -0.0782   -0.9446 H   0  0  0  0  0  0  0  0  0  0  0  0
    3.1629   -1.1104   -0.8255 H   0  0  0  0  0  0  0  0  0  0  0  0
    1.7213   -1.1695   -1.8395 H   0  0  0  0  0  0  0  0  0  0  0  0
    0.0003   -2.8164   -1.4738 H   0  0  0  0  0  0  0  0  0  0  0  0
   -0.8322   -4.8082   -0.2567 H   0  0  0  0  0  0  0  0  0  0  0  0
    2.3938   -4.4169    2.5849 H   0  0  0  0  0  0  0  0  0  0  0  0
    3.2258   -2.4134    1.3538 H   0  0  0  0  0  0  0  0  0  0  0  0
   -0.9875   -7.0878    2.5723 H   0  0  0  0  0  0  0  0  0  0  0  0
   -1.3210   -6.3960    0.9424 H   0  0  0  0  0  0  0  0  0  0  0  0
   -1.5838   -4.0708    2.2080 H   0  0  0  0  0  0  0  0  0  0  0  0
   -1.6616   -5.0045    3.7052 H   0  0  0  0  0  0  0  0  0  0  0  0
   -3.7344   -4.1907    5.0252 H   0  0  0  0  0  0  0  0  0  0  0  0
   -5.4567   -4.6176    4.9597 H   0  0  0  0  0  0  0  0  0  0  0  0
   -4.8971   -3.1142    4.2117 H   0  0  0  0  0  0  0  0  0  0  0  0
   -7.7488   -5.3909    1.4423 H   0  0  0  0  0  0  0  0  0  0  0  0
   -9.4935   -6.2106   -0.1222 H   0  0  0  0  0  0  0  0  0  0  0  0
   -8.8709   -7.6897   -2.0158 H   0  0  0  0  0  0  0  0  0  0  0  0
   -6.5080   -8.3807   -2.3332 H   0  0  0  0  0  0  0  0  0  0  0  0
   -4.7485   -7.5623   -0.7691 H   0  0  0  0  0  0  0  0  0  0  0  0
    1.6548    2.2043   -2.4068 H   0  0  0  0  0  0  0  0  0  0  0  0
   -3.6541   -2.2128    1.6923 H   0  0  0  0  0  0  0  0  0  0  0  0
   -2.7735   -2.0657    3.9921 H   0  0  0  0  0  0  0  0  0  0  0  0
   -0.5573   -1.0423    4.4179 H   0  0  0  0  0  0  0  0  0  0  0  0
    0.7555   -0.1003    2.5598 H   0  0  0  0  0  0  0  0  0  0  0  0
   -5.0034   -0.6069    0.0423 H   0  0  0  0  0  0  0  0  0  0  0  0
   -7.1074   -1.8590   -0.3885 H   0  0  0  0  0  0  0  0  0  0  0  0
   -7.0241   -4.0911   -1.4697 H   0  0  0  0  0  0  0  0  0  0  0  0
   -4.8433   -5.0858   -2.1055 H   0  0  0  0  0  0  0  0  0  0  0  0
   -2.7348   -3.8502   -1.6630 H   0  0  0  0  0  0  0  0  0  0  0  0
  1 29  1  0  0  0  0
  2  1  1  0  0  0  0
  2  3  1  1  0  0  0
  4  5  1  0  0  0  0
  4  2  1  0  0  0  0
  5 10  1  0  0  0  0
  6  5  2  0  0  0  0
  6  7  1  0  0  0  0
  7  8  2  0  0  0  0
  8  9  1  0  0  0  0
  8 11  1  0  0  0  0
  9 48  1  0  0  0  0
 10 49  1  0  0  0  0
 10  9  2  0  0  0  0
 12 11  1  0  0  0  0
 12 50  1  0  0  0  0
 12 13  1  0  0  0  0
 13 53  1  0  0  0  0
 14 13  1  0  0  0  0
 14 18  1  0  0  0  0
 15 16  2  0  0  0  0
 15 14  2  0  0  0  0
 16 17  1  0  0  0  0
 17 18  1  0  0  0  0
 18 19  1  1  0  0  0
 19 55  1  0  0  0  0
 19 54  1  0  0  0  0
 20 21  1  0  0  0  0
 20 16  1  0  0  0  0
 21 57  1  0  0  0  0
 22 58  1  0  0  0  0
 22 21  2  0  0  0  0
 23 22  1  0  0  0  0
 24 23  2  0  0  0  0
 24 25  1  0  0  0  0
 25 20  2  0  0  0  0
 26 27  2  0  0  0  0
 26  2  1  0  0  0  0
 28 26  1  0  0  0  0
 29 34  1  0  0  0  0
 30 29  2  0  0  0  0
 30 31  1  0  0  0  0
 31 32  2  0  0  0  0
 32 33  1  0  0  0  0
 32 64  1  0  0  0  0
 33 65  1  0  0  0  0
 34 66  1  0  0  0  0
 34 33  2  0  0  0  0
 35 30  1  0  0  0  0
 36 35  2  0  0  0  0
 37 35  1  0  0  0  0
 37 38  2  0  0  0  0
 38 67  1  0  0  0  0
 39 38  1  0  0  0  0
 39 68  1  0  0  0  0
 40 39  2  0  0  0  0
 41 42  2  0  0  0  0
 41 40  1  0  0  0  0
 42 37  1  0  0  0  0
 43  1  1  0  0  0  0
 44  4  1  0  0  0  0
 45  4  1  0  0  0  0
 46  6  1  0  0  0  0
 47  7  1  0  0  0  0
 51 12  1  0  0  0  0
 52 13  1  0  0  0  0
 56 19  1  0  0  0  0
 59 23  1  0  0  0  0
 60 24  1  0  0  0  0
 61 25  1  0  0  0  0
 62 28  1  0  0  0  0
 63 31  1  0  0  0  0
 69 40  1  0  0  0  0
 70 41  1  0  0  0  0
 71 42  1  0  0  0  0
M  RAD  1  18   2
M  END
$$$$
