27
rmsd7.gzmat
C          0.00000        0.00000        0.00000
C          1.39530        0.00000        0.00000
C          2.08710        0.00000        1.20790
C          1.39330        0.01550        2.41210
C         -0.00390        0.01490        2.41220
C         -0.70620        0.00060        1.20330
C         -2.20350        0.02210        1.16310
C         -2.84860       -0.28140        2.51260
N         -2.13240        0.50070        3.60210
H         -2.11330        1.51290        3.34530
H         -2.63420        0.40690        4.50960
C         -0.70660       -0.00800        3.73500
S          3.86740        0.02520        1.23130
O          4.30160        0.60680       -0.00780
O          4.23710        0.51140        2.53510
N          4.28540       -1.64960        1.18590
H         -0.53470        0.00030       -0.95160
H          1.93280        0.01190       -0.96160
H          1.93830        0.03820        3.36760
H         -2.55130        1.00300        0.76010
H         -2.57610       -0.71840        0.41000
H         -3.93130       -0.00720        2.51260
H         -2.78770       -1.37240        2.74450
H         -0.72110       -1.05130        4.14220
H         -0.17070        0.62420        4.48930
H          4.71560       -2.03700        2.01240
H          4.75080       -1.98590        0.35470
