rmsd8.gzmat
 OpenBabel08211713363D

 27 28  0  0  0  0  0  0  0  0999 V2000
    0.0000    0.0000    0.0000 C   0  0  0  0  0  0  0  0  0  0  0  0
    1.3955    0.0000    0.0000 C   0  0  0  0  0  0  0  0  0  0  0  0
    2.0873    0.0000    1.2080 C   0  0  0  0  0  0  0  0  0  0  0  0
    1.3934    0.0063    2.4125 C   0  0  0  0  0  0  0  0  0  0  0  0
   -0.0034    0.0054    2.4125 C   0  0  0  0  0  0  0  0  0  0  0  0
   -0.7064    0.0002    1.2030 C   0  0  0  0  0  0  0  0  0  0  0  0
   -2.2038    0.0380    1.1604 C   0  0  0  0  0  0  0  0  0  0  0  0
   -2.8611   -0.2209    2.5141 C   0  0  0  0  0  0  0  0  0  0  0  0
   -2.1158    0.5475    3.5938 N   0  0  0  0  0  0  0  0  0  0  0  0
   -2.0535    1.5541    3.3217 H   0  0  0  0  0  0  0  0  0  0  0  0
   -2.6214    0.4878    4.5018 H   0  0  0  0  0  0  0  0  0  0  0  0
   -0.7118   -0.0201    3.7317 C   0  0  0  0  0  0  0  0  0  0  0  0
    3.8671    0.0551    1.2328 S   0  0  0  0  0  0  0  0  0  0  0  0
    4.2864    0.7119    0.0262 O   0  0  0  0  0  0  0  0  0  0  0  0
    4.2261    0.4823    2.5606 O   0  0  0  0  0  0  0  0  0  0  0  0
    4.3289   -1.6028    1.0953 N   0  0  0  0  0  0  0  0  0  0  0  0
   -0.5362    0.0042   -0.9508 H   0  0  0  0  0  0  0  0  0  0  0  0
    1.9323    0.0149   -0.9619 H   0  0  0  0  0  0  0  0  0  0  0  0
    1.9390    0.0247    3.3680 H   0  0  0  0  0  0  0  0  0  0  0  0
   -2.5379    1.0137    0.7329 H   0  0  0  0  0  0  0  0  0  0  0  0
   -2.5827   -0.7159    0.4237 H   0  0  0  0  0  0  0  0  0  0  0  0
   -3.9319    0.0965    2.5100 H   0  0  0  0  0  0  0  0  0  0  0  0
   -2.8447   -1.3101    2.7615 H   0  0  0  0  0  0  0  0  0  0  0  0
   -0.7723   -1.0702    4.1162 H   0  0  0  0  0  0  0  0  0  0  0  0
   -0.1581    0.5742    4.5028 H   0  0  0  0  0  0  0  0  0  0  0  0
    4.7530   -2.0293    1.9057 H   0  0  0  0  0  0  0  0  0  0  0  0
    4.8218   -1.8739    0.2558 H   0  0  0  0  0  0  0  0  0  0  0  0
  1  6  1  0  0  0  0
  2  1  2  0  0  0  0
  2  3  1  0  0  0  0
  3 13  1  0  0  0  0
  3  4  2  0  0  0  0
  4  5  1  0  0  0  0
  4 19  1  0  0  0  0
  5 12  1  0  0  0  0
  6  5  2  0  0  0  0
  7  6  1  0  0  0  0
  7  8  1  0  0  0  0
  8 23  1  0  0  0  0
  8  9  1  0  0  0  0
  9 12  1  0  0  0  0
  9 11  1  0  0  0  0
 10  9  1  0  0  0  0
 12 24  1  0  0  0  0
 12 25  1  0  0  0  0
 13 15  2  0  0  0  0
 14 13  2  0  0  0  0
 16 13  1  0  0  0  0
 16 26  1  0  0  0  0
 17  1  1  0  0  0  0
 18  2  1  0  0  0  0
 20  7  1  0  0  0  0
 21  7  1  0  0  0  0
 22  8  1  0  0  0  0
 27 16  1  0  0  0  0
M  END
$$$$
