27
rmsd5.gzmat
C          0.00000        0.00000        0.00000
C          1.39560        0.00000        0.00000
C          2.08830        0.00000        1.20760
C          1.39440       -0.01800        2.41200
C         -0.00230       -0.02730        2.41230
C         -0.70580       -0.01390        1.20340
C         -2.20340        0.01820        1.16240
C         -2.86370       -0.26380        2.51020
N         -2.11470        0.46840        3.61230
H         -2.05280        1.48320        3.37560
H         -2.61980        0.37760        4.51850
C         -0.71050       -0.10260        3.72930
S          3.86890       -0.02620        1.23010
O          4.24400       -0.53190        2.52500
O          4.30210       -0.58580       -0.01920
N          4.28670        1.65030        1.21550
H         -0.53650        0.00550       -0.95090
H          1.93360       -0.01210       -0.96170
H          1.94020       -0.04310        3.36690
H         -2.54020        0.99830        0.74780
H         -2.58010       -0.72720        0.41500
H         -3.93100        0.06600        2.51110
H         -2.86220       -1.35880        2.73320
H         -0.76940       -1.16810        4.07230
H         -0.15910        0.45910        4.52510
H          4.75790        2.00070        0.39330
H          4.71600        2.02080        2.05050
