rmsd5.gzmat
 OpenBabel08211713363D

 27 28  0  0  0  0  0  0  0  0999 V2000
    0.0000    0.0000    0.0000 C   0  0  0  0  0  0  0  0  0  0  0  0
    1.3956    0.0000    0.0000 C   0  0  0  0  0  0  0  0  0  0  0  0
    2.0883    0.0000    1.2076 C   0  0  0  0  0  0  0  0  0  0  0  0
    1.3944   -0.0180    2.4120 C   0  0  0  0  0  0  0  0  0  0  0  0
   -0.0023   -0.0273    2.4123 C   0  0  0  0  0  0  0  0  0  0  0  0
   -0.7058   -0.0139    1.2034 C   0  0  0  0  0  0  0  0  0  0  0  0
   -2.2034    0.0182    1.1624 C   0  0  0  0  0  0  0  0  0  0  0  0
   -2.8637   -0.2638    2.5102 C   0  0  0  0  0  0  0  0  0  0  0  0
   -2.1147    0.4684    3.6123 N   0  0  0  0  0  0  0  0  0  0  0  0
   -2.0528    1.4832    3.3756 H   0  0  0  0  0  0  0  0  0  0  0  0
   -2.6198    0.3776    4.5185 H   0  0  0  0  0  0  0  0  0  0  0  0
   -0.7105   -0.1026    3.7293 C   0  0  0  0  0  0  0  0  0  0  0  0
    3.8689   -0.0262    1.2301 S   0  0  0  0  0  0  0  0  0  0  0  0
    4.2440   -0.5319    2.5250 O   0  0  0  0  0  0  0  0  0  0  0  0
    4.3021   -0.5858   -0.0192 O   0  0  0  0  0  0  0  0  0  0  0  0
    4.2867    1.6503    1.2155 N   0  0  0  0  0  0  0  0  0  0  0  0
   -0.5365    0.0055   -0.9509 H   0  0  0  0  0  0  0  0  0  0  0  0
    1.9336   -0.0121   -0.9617 H   0  0  0  0  0  0  0  0  0  0  0  0
    1.9402   -0.0431    3.3669 H   0  0  0  0  0  0  0  0  0  0  0  0
   -2.5402    0.9983    0.7478 H   0  0  0  0  0  0  0  0  0  0  0  0
   -2.5801   -0.7272    0.4150 H   0  0  0  0  0  0  0  0  0  0  0  0
   -3.9310    0.0660    2.5111 H   0  0  0  0  0  0  0  0  0  0  0  0
   -2.8622   -1.3588    2.7332 H   0  0  0  0  0  0  0  0  0  0  0  0
   -0.7694   -1.1681    4.0723 H   0  0  0  0  0  0  0  0  0  0  0  0
   -0.1591    0.4591    4.5251 H   0  0  0  0  0  0  0  0  0  0  0  0
    4.7579    2.0007    0.3933 H   0  0  0  0  0  0  0  0  0  0  0  0
    4.7160    2.0208    2.0505 H   0  0  0  0  0  0  0  0  0  0  0  0
  1  6  1  0  0  0  0
  2  1  2  0  0  0  0
  2  3  1  0  0  0  0
  3 13  1  0  0  0  0
  3  4  2  0  0  0  0
  4  5  1  0  0  0  0
  4 19  1  0  0  0  0
  5 12  1  0  0  0  0
  6  5  2  0  0  0  0
  7  6  1  0  0  0  0
  7  8  1  0  0  0  0
  8 22  1  0  0  0  0
  8 23  1  0  0  0  0
  8  9  1  0  0  0  0
  9 12  1  0  0  0  0
  9 11  1  0  0  0  0
 10  9  1  0  0  0  0
 12 24  1  0  0  0  0
 12 25  1  0  0  0  0
 13 14  2  0  0  0  0
 15 13  2  0  0  0  0
 16 13  1  0  0  0  0
 16 27  1  0  0  0  0
 17  1  1  0  0  0  0
 18  2  1  0  0  0  0
 20  7  1  0  0  0  0
 21  7  1  0  0  0  0
 26 16  1  0  0  0  0
M  END
$$$$
