rmsd6.gzmat
 OpenBabel08211713363D

 27 28  0  0  0  0  0  0  0  0999 V2000
    0.0000    0.0000    0.0000 C   0  0  0  0  0  0  0  0  0  0  0  0
    1.3952    0.0000    0.0000 C   0  0  0  0  0  0  0  0  0  0  0  0
    2.0877    0.0000    1.2076 C   0  0  0  0  0  0  0  0  0  0  0  0
    1.3935    0.0008    2.4120 C   0  0  0  0  0  0  0  0  0  0  0  0
   -0.0039   -0.0061    2.4127 C   0  0  0  0  0  0  0  0  0  0  0  0
   -0.7056   -0.0111    1.2031 C   0  0  0  0  0  0  0  0  0  0  0  0
   -2.2034   -0.0108    1.1655 C   0  0  0  0  0  0  0  0  0  0  0  0
   -2.8279   -0.4078    2.4996 C   0  0  0  0  0  0  0  0  0  0  0  0
   -2.1540    0.3753    3.6158 N   0  0  0  0  0  0  0  0  0  0  0  0
   -2.1888    1.3940    3.3915 H   0  0  0  0  0  0  0  0  0  0  0  0
   -2.6507    0.2273    4.5190 H   0  0  0  0  0  0  0  0  0  0  0  0
   -0.7038   -0.0668    3.7362 C   0  0  0  0  0  0  0  0  0  0  0  0
    3.8674   -0.0635    1.2251 S   0  0  0  0  0  0  0  0  0  0  0  0
    4.2356   -0.5554    2.5270 O   0  0  0  0  0  0  0  0  0  0  0  0
    4.2809   -0.6571   -0.0157 O   0  0  0  0  0  0  0  0  0  0  0  0
    4.3246    1.6012    1.1739 N   0  0  0  0  0  0  0  0  0  0  0  0
   -0.5365   -0.0008   -0.9506 H   0  0  0  0  0  0  0  0  0  0  0  0
    1.9321   -0.0153   -0.9618 H   0  0  0  0  0  0  0  0  0  0  0  0
    1.9388   -0.0126    3.3674 H   0  0  0  0  0  0  0  0  0  0  0  0
   -2.5717    0.9859    0.8263 H   0  0  0  0  0  0  0  0  0  0  0  0
   -2.5682   -0.7110    0.3704 H   0  0  0  0  0  0  0  0  0  0  0  0
   -3.9246   -0.1997    2.5120 H   0  0  0  0  0  0  0  0  0  0  0  0
   -2.6975   -1.5017    2.6881 H   0  0  0  0  0  0  0  0  0  0  0  0
   -0.6706   -1.1144    4.1345 H   0  0  0  0  0  0  0  0  0  0  0  0
   -0.1944    0.5810    4.4939 H   0  0  0  0  0  0  0  0  0  0  0  0
    4.7635    1.9314    0.3262 H   0  0  0  0  0  0  0  0  0  0  0  0
    4.8016    1.9699    1.9832 H   0  0  0  0  0  0  0  0  0  0  0  0
  1  6  1  0  0  0  0
  2  1  2  0  0  0  0
  2  3  1  0  0  0  0
  3 13  1  0  0  0  0
  3  4  2  0  0  0  0
  4  5  1  0  0  0  0
  4 19  1  0  0  0  0
  5 12  1  0  0  0  0
  6  5  2  0  0  0  0
  7  6  1  0  0  0  0
  7  8  1  0  0  0  0
  8 22  1  0  0  0  0
  8 23  1  0  0  0  0
  8  9  1  0  0  0  0
  9 12  1  0  0  0  0
  9 11  1  0  0  0  0
 10  9  1  0  0  0  0
 12 24  1  0  0  0  0
 12 25  1  0  0  0  0
 13 14  2  0  0  0  0
 15 13  2  0  0  0  0
 16 13  1  0  0  0  0
 16 27  1  0  0  0  0
 17  1  1  0  0  0  0
 18  2  1  0  0  0  0
 20  7  1  0  0  0  0
 21  7  1  0  0  0  0
 26 16  1  0  0  0  0
M  END
$$$$
