rmsd46.gzmat
 OpenBabel08211713363D

 44 47  0  0  1  0  0  0  0  0999 V2000
    0.0000    0.0000    0.0000 C   0  0  0  0  0  0  0  0  0  0  0  0
    1.5327    0.0000    0.0000 C   0  0  0  0  0  0  0  0  0  0  0  0
    2.0381    0.0000    1.4374 C   0  0  0  0  0  0  0  0  0  0  0  0
    1.5997    1.2731    2.1676 C   0  0  1  0  0  0  0  0  0  0  0  0
    2.3132    2.1180    1.9811 H   0  0  0  0  0  0  0  0  0  0  0  0
    0.1885    1.7145    1.8609 C   0  0  0  0  0  0  0  0  0  0  0  0
   -0.4099    2.7776    2.6340 C   0  0  1  0  0  0  0  0  0  0  0  0
   -1.5702    3.4362    2.0546 C   0  0  0  0  0  0  0  0  0  0  0  0
   -2.0023    4.7352    2.3958 C   0  0  0  0  0  0  0  0  0  0  0  0
   -3.1709    5.2542    1.8770 C   0  0  0  0  0  0  0  0  0  0  0  0
   -3.9504    4.4986    0.9825 C   0  0  0  0  0  0  0  0  0  0  0  0
   -3.5125    3.2609    0.5564 C   0  0  0  0  0  0  0  0  0  0  0  0
   -2.2937    2.7523    1.0549 C   0  0  0  0  0  0  0  0  0  0  0  0
   -1.7843    1.5692    0.5119 N   0  0  0  0  0  0  0  0  0  0  0  0
   -2.3298    1.0858   -0.2021 H   0  0  0  0  0  0  0  0  0  0  0  0
   -0.5184    1.1339    0.8314 C   0  0  0  0  0  0  0  0  0  0  0  0
    0.0902    3.0574    3.8343 N   0  0  0  0  0  0  0  0  0  0  0  0
   -0.4734    3.9694    4.8469 C   0  0  0  0  0  0  0  0  0  0  0  0
    0.0154    3.5063    6.1931 C   0  0  0  0  0  0  0  0  0  0  0  0
    1.3197    3.8049    6.5914 C   0  0  0  0  0  0  0  0  0  0  0  0
    1.7856    3.3558    7.8243 C   0  0  0  0  0  0  0  0  0  0  0  0
    0.9479    2.6163    8.6587 C   0  0  0  0  0  0  0  0  0  0  0  0
   -0.3565    2.3266    8.2610 C   0  0  0  0  0  0  0  0  0  0  0  0
   -0.8257    2.7692    7.0259 C   0  0  0  0  0  0  0  0  0  0  0  0
    1.7564    1.0708    3.5625 O   0  0  0  0  0  0  0  0  0  0  0  0
   -0.3796   -0.9689    0.4037 H   0  0  0  0  0  0  0  0  0  0  0  0
   -0.3721    0.0472   -1.0474 H   0  0  0  0  0  0  0  0  0  0  0  0
    1.9163   -0.8860   -0.5476 H   0  0  0  0  0  0  0  0  0  0  0  0
    1.9237    0.8786   -0.5528 H   0  0  0  0  0  0  0  0  0  0  0  0
    3.1458   -0.0804    1.4664 H   0  0  0  0  0  0  0  0  0  0  0  0
    1.6753   -0.8985    1.9766 H   0  0  0  0  0  0  0  0  0  0  0  0
   -1.3889    5.3609    3.0478 H   0  0  0  0  0  0  0  0  0  0  0  0
   -3.4977    6.2605    2.1521 H   0  0  0  0  0  0  0  0  0  0  0  0
   -4.8961    4.9086    0.6107 H   0  0  0  0  0  0  0  0  0  0  0  0
   -4.0939    2.6885   -0.1673 H   0  0  0  0  0  0  0  0  0  0  0  0
    0.9289    2.5210    4.1615 H   0  0  0  0  0  0  0  0  0  0  0  0
   -1.5900    3.9668    4.8019 H   0  0  0  0  0  0  0  0  0  0  0  0
   -0.1317    5.0161    4.6442 H   0  0  0  0  0  0  0  0  0  0  0  0
    1.9736    4.3910    5.9474 H   0  0  0  0  0  0  0  0  0  0  0  0
    2.8049    3.5852    8.1384 H   0  0  0  0  0  0  0  0  0  0  0  0
    1.3131    2.2675    9.6267 H   0  0  0  0  0  0  0  0  0  0  0  0
   -1.0117    1.7532    8.9178 H   0  0  0  0  0  0  0  0  0  0  0  0
   -1.8456    2.5402    6.7206 H   0  0  0  0  0  0  0  0  0  0  0  0
    1.3108    0.2525    3.8699 H   0  0  0  0  0  0  0  0  0  0  0  0
  1 26  1  0  0  0  0
  1 16  1  0  0  0  0
  2  1  1  0  0  0  0
  2  3  1  0  0  0  0
  3 30  1  0  0  0  0
  3 31  1  0  0  0  0
  3  4  1  0  0  0  0
  4  5  1  6  0  0  0
  4 25  1  0  0  0  0
  6  4  1  0  0  0  0
  6  7  1  0  0  0  0
  7 17  1  1  0  0  0
  8  9  1  0  0  0  0
  8  7  1  0  0  0  0
  9 32  1  0  0  0  0
 10 33  1  0  0  0  0
 10  9  2  0  0  0  0
 11 10  1  0  0  0  0
 12 11  2  0  0  0  0
 12 13  1  0  0  0  0
 13  8  2  0  0  0  0
 14 16  1  0  0  0  0
 14 13  1  0  0  0  0
 15 14  1  0  0  0  0
 16  6  2  0  0  0  0
 17 36  1  0  0  0  0
 17 18  1  0  0  0  0
 18 19  1  0  0  0  0
 19 20  2  0  0  0  0
 19 24  1  0  0  0  0
 20 21  1  0  0  0  0
 21 40  1  0  0  0  0
 21 22  2  0  0  0  0
 22 41  1  0  0  0  0
 23 22  1  0  0  0  0
 23 42  1  0  0  0  0
 24 23  2  0  0  0  0
 25 44  1  0  0  0  0
 27  1  1  0  0  0  0
 28  2  1  0  0  0  0
 29  2  1  0  0  0  0
 34 11  1  0  0  0  0
 35 12  1  0  0  0  0
 37 18  1  0  0  0  0
 38 18  1  0  0  0  0
 39 20  1  0  0  0  0
 43 24  1  0  0  0  0
M  RAD  1   7   2
M  END
$$$$
