44
rmsd48.gzmat
C          0.00000        0.00000        0.00000
C          1.53280        0.00000        0.00000
C          2.03750        0.00000        1.43790
C          1.59530        1.26960        2.17190
H          2.31660        2.11160        2.00150
C          0.19070        1.72130        1.85200
C         -0.40430        2.78980        2.62000
C         -1.55130        3.46060        2.02900
C         -1.97110        4.76460        2.36570
C         -3.13040        5.29570        1.83800
C         -3.90920        4.54900        0.93520
C         -3.48080        3.30660        0.51240
C         -2.27300        2.78330        1.02350
N         -1.77280        1.59280        0.48790
H         -2.31830        1.11390       -0.22910
C         -0.51470        1.14440        0.81890
N          0.08510        3.06190        3.82650
C         -0.48460        3.97090        4.83840
C         -0.02480        3.48350        6.18650
C          1.28300        3.74220        6.60150
C          1.72260        3.26830        7.83480
C          0.85590        2.54330        8.65260
C         -0.45140        2.29300        8.23800
C         -0.89390        2.76030        7.00200
O          1.73180        1.05630        3.56760
H         -0.37870       -0.96380        0.41710
H         -0.37290        0.03360       -1.04740
H          1.91590       -0.88620       -0.54770
H          1.92320        0.87840       -0.55320
H          3.14570       -0.07590        1.46770
H          1.67820       -0.90110        1.97570
H         -1.35430        5.38350        3.02130
H         -3.45100        6.30420        2.11260
H         -4.84640        4.96990        0.55420
H         -4.06150        2.74090       -0.21690
H          0.91470        2.51620        4.16160
H         -1.60010        3.98490        4.77380
H         -0.12580        5.01520        4.65450
H          1.96020        4.31520        5.96870
H          2.74450        3.46650        8.16220
H          1.20110        2.17500        9.62080
H         -1.13030        1.73190        8.88210
H         -1.91610        2.56080        6.68310
H          1.26940        0.24360        3.86500
