44
rmsd56.gzmat
C          0.00000        0.00000        0.00000
C          1.53220        0.00000        0.00000
C          2.03400        0.00000        1.43860
C          1.59790        1.27580        2.16540
H          2.30940        2.12120        1.97070
C          0.18380        1.71430        1.86460
C         -0.41700        2.77570        2.63990
C         -1.59400        3.41970        2.07600
C         -2.06430        4.69780        2.44600
C         -3.24340        5.20100        1.93460
C         -3.99410        4.45540        1.00840
C         -3.52360        3.23890        0.55740
C         -2.30300        2.74110        1.06160
N         -1.78200        1.56920        0.50660
H         -2.32240        1.08940       -0.21410
C         -0.51840        1.13410        0.83100
N          0.10520        3.06330        3.82930
C         -0.42450        3.99030        4.84570
C          0.13960        3.57080        6.17660
C          1.44950        3.92040        6.50980
C          1.98380        3.51310        7.72950
C          1.21090        2.76050        8.61290
C         -0.09910        2.41870        8.27980
C         -0.63820        2.82300        7.06020
O          1.76760        1.07890        3.55970
H         -0.38050       -0.96780        0.40600
H         -0.37250        0.04630       -1.04740
H          1.91660       -0.88560       -0.54780
H          1.92250        0.87920       -0.55240
H          3.14150       -0.08380        1.47090
H          1.66630       -0.89660        1.97830
H         -1.47590        5.32560        3.11830
H         -3.60060        6.18810        2.24050
H         -4.94210        4.85540        0.63200
H         -4.08130        2.67340       -0.19020
H          0.95050        2.52710        4.14340
H         -1.54170        3.96580        4.85720
H         -0.11230        5.03720        4.60040
H          2.05460        4.51250        5.82430
H          3.00660        3.78550        7.99460
H          1.63150        2.44190        9.56880
H         -0.70410        1.83530        8.97510
H         -1.66290        2.55600        6.80580
H          1.32160        0.26420        3.87640
