rmsd21.gzmat
 OpenBabel08211713363D

 44 47  0  0  1  0  0  0  0  0999 V2000
    0.0000    0.0000    0.0000 C   0  0  0  0  0  0  0  0  0  0  0  0
    1.5328    0.0000    0.0000 C   0  0  0  0  0  0  0  0  0  0  0  0
    2.0416    0.0000    1.4368 C   0  0  0  0  0  0  0  0  0  0  0  0
    1.5860    1.2576    2.1847 C   0  0  1  0  0  0  0  0  0  0  0  0
    2.2974    2.1096    2.0215 H   0  0  0  0  0  0  0  0  0  0  0  0
    0.1797    1.7037    1.8663 C   0  0  0  0  0  0  0  0  0  0  0  0
   -0.4278    2.7591    2.6435 C   0  0  1  0  0  0  0  0  0  0  0  0
   -1.5373    3.4676    2.0238 C   0  0  0  0  0  0  0  0  0  0  0  0
   -1.9301    4.7808    2.3563 C   0  0  0  0  0  0  0  0  0  0  0  0
   -3.0516    5.3515    1.7895 C   0  0  0  0  0  0  0  0  0  0  0  0
   -3.8191    4.6349    0.8536 C   0  0  0  0  0  0  0  0  0  0  0  0
   -3.4159    3.3807    0.4406 C   0  0  0  0  0  0  0  0  0  0  0  0
   -2.2442    2.8177    0.9903 C   0  0  0  0  0  0  0  0  0  0  0  0
   -1.7603    1.6154    0.4653 N   0  0  0  0  0  0  0  0  0  0  0  0
   -2.3001    1.1492   -0.2637 H   0  0  0  0  0  0  0  0  0  0  0  0
   -0.5148    1.1460    0.8160 C   0  0  0  0  0  0  0  0  0  0  0  0
    0.0096    2.9815    3.8789 N   0  0  0  0  0  0  0  0  0  0  0  0
   -0.5825    3.8890    4.8776 C   0  0  0  0  0  0  0  0  0  0  0  0
   -0.2834    3.3411    6.2472 C   0  0  0  0  0  0  0  0  0  0  0  0
    1.0074    3.4418    6.7688 C   0  0  0  0  0  0  0  0  0  0  0  0
    1.2791    2.9397    8.0393 C   0  0  0  0  0  0  0  0  0  0  0  0
    0.2635    2.3451    8.7873 C   0  0  0  0  0  0  0  0  0  0  0  0
   -1.0255    2.2500    8.2650 C   0  0  0  0  0  0  0  0  0  0  0  0
   -1.3005    2.7439    6.9915 C   0  0  0  0  0  0  0  0  0  0  0  0
    1.7254    1.0348    3.5784 O   0  0  0  0  0  0  0  0  0  0  0  0
   -0.3809   -0.9609    0.4218 H   0  0  0  0  0  0  0  0  0  0  0  0
   -0.3726    0.0298   -1.0472 H   0  0  0  0  0  0  0  0  0  0  0  0
    1.9162   -0.8868   -0.5473 H   0  0  0  0  0  0  0  0  0  0  0  0
    1.9235    0.8776   -0.5541 H   0  0  0  0  0  0  0  0  0  0  0  0
    3.1515   -0.0595    1.4581 H   0  0  0  0  0  0  0  0  0  0  0  0
    1.6976   -0.9110    1.9682 H   0  0  0  0  0  0  0  0  0  0  0  0
   -1.3219    5.3753    3.0415 H   0  0  0  0  0  0  0  0  0  0  0  0
   -3.3484    6.3687    2.0586 H   0  0  0  0  0  0  0  0  0  0  0  0
   -4.7258    5.0888    0.4388 H   0  0  0  0  0  0  0  0  0  0  0  0
   -3.9862    2.8371   -0.3133 H   0  0  0  0  0  0  0  0  0  0  0  0
    0.8183    2.4163    4.2298 H   0  0  0  0  0  0  0  0  0  0  0  0
   -1.6858    3.9818    4.7221 H   0  0  0  0  0  0  0  0  0  0  0  0
   -0.1418    4.9123    4.7624 H   0  0  0  0  0  0  0  0  0  0  0  0
    1.8013    3.9157    6.1933 H   0  0  0  0  0  0  0  0  0  0  0  0
    2.2862    3.0173    8.4517 H   0  0  0  0  0  0  0  0  0  0  0  0
    0.4770    1.9573    9.7852 H   0  0  0  0  0  0  0  0  0  0  0  0
   -1.8210    1.7916    8.8545 H   0  0  0  0  0  0  0  0  0  0  0  0
   -2.3089    2.6656    6.5878 H   0  0  0  0  0  0  0  0  0  0  0  0
    1.3233    0.1857    3.8609 H   0  0  0  0  0  0  0  0  0  0  0  0
  1  2  1  0  0  0  0
  1 26  1  0  0  0  0
  1 16  1  0  0  0  0
  2  3  1  0  0  0  0
  3 30  1  0  0  0  0
  3 31  1  0  0  0  0
  3  4  1  0  0  0  0
  4  5  1  6  0  0  0
  4 25  1  0  0  0  0
  6  4  1  0  0  0  0
  6  7  1  0  0  0  0
  7 17  1  1  0  0  0
  8  9  1  0  0  0  0
  8  7  1  0  0  0  0
  9 32  1  0  0  0  0
 10 33  1  0  0  0  0
 10  9  2  0  0  0  0
 11 10  1  0  0  0  0
 12 11  2  0  0  0  0
 12 13  1  0  0  0  0
 13  8  2  0  0  0  0
 14 16  1  0  0  0  0
 14 13  1  0  0  0  0
 15 14  1  0  0  0  0
 16  6  2  0  0  0  0
 17 36  1  0  0  0  0
 17 18  1  0  0  0  0
 18 19  1  0  0  0  0
 19 20  2  0  0  0  0
 19 24  1  0  0  0  0
 20 21  1  0  0  0  0
 21 40  1  0  0  0  0
 21 22  2  0  0  0  0
 22 41  1  0  0  0  0
 23 22  1  0  0  0  0
 23 42  1  0  0  0  0
 24 23  2  0  0  0  0
 25 44  1  0  0  0  0
 27  1  1  0  0  0  0
 28  2  1  0  0  0  0
 29  2  1  0  0  0  0
 34 11  1  0  0  0  0
 35 12  1  0  0  0  0
 37 18  1  0  0  0  0
 38 18  1  0  0  0  0
 39 20  1  0  0  0  0
 43 24  1  0  0  0  0
M  RAD  1   7   2
M  END
$$$$
