44
rmsd49.gzmat
C          0.00000        0.00000        0.00000
C          1.53230        0.00000        0.00000
C          2.03440        0.00000        1.43860
C          1.59300        1.27150        2.17050
H          2.30510        2.11820        1.98380
C          0.18040        1.71210        1.86600
C         -0.42330        2.77060        2.64370
C         -1.58910        3.42670        2.07010
C         -2.05290        4.70680        2.44150
C         -3.22020        5.22360        1.91680
C         -3.96710        4.48790        0.97970
C         -3.50410        3.26780        0.53090
C         -2.29230        2.75810        1.04500
N         -1.77400        1.58470        0.49000
H         -2.30730        1.11450       -0.24220
C         -0.51720        1.13890        0.82560
N          0.08220        3.04220        3.84410
C         -0.44960        3.97490        4.85430
C          0.15090        3.60210        6.18310
C          1.44910        4.01460        6.48990
C          2.01480        3.66280        7.71270
C          1.28460        2.90370        8.62670
C         -0.01360        2.49850        8.31980
C         -0.58190        2.84380        7.09520
O          1.75580        1.06780        3.56470
H         -0.37900       -0.96570        0.41330
H         -0.37260        0.03640       -1.04750
H          1.91450       -0.88650       -0.54770
H          1.92360        0.87820       -0.55280
H          3.14230       -0.07880        1.47040
H          1.67110       -0.89970        1.97610
H         -1.46920        5.32560        3.12620
H         -3.57240        6.21300        2.22130
H         -4.90690        4.89890        0.59460
H         -4.06070        2.70850       -0.22210
H          0.92070        2.49980        4.16410
H         -1.56570        3.92070        4.88630
H         -0.17060        5.02530        4.58440
H          2.02010        4.61200        5.78040
H          3.02780        3.98550        7.95770
H          1.72890        2.63030        9.58590
H         -0.58790        1.91420        9.04040
H         -1.59550        2.52290        6.85970
H          1.31690        0.24610        3.87310
