rmsd63.gzmat
 OpenBabel08211713363D

 44 47  0  0  1  0  0  0  0  0999 V2000
    0.0000    0.0000    0.0000 C   0  0  0  0  0  0  0  0  0  0  0  0
    1.5325    0.0000    0.0000 C   0  0  0  0  0  0  0  0  0  0  0  0
    2.0400    0.0000    1.4370 C   0  0  0  0  0  0  0  0  0  0  0  0
    1.5910    1.2626    2.1800 C   0  0  1  0  0  0  0  0  0  0  0  0
    2.2965    2.1161    1.9997 H   0  0  0  0  0  0  0  0  0  0  0  0
    0.1768    1.6967    1.8783 C   0  0  0  0  0  0  0  0  0  0  0  0
   -0.4375    2.7386    2.6684 C   0  0  1  0  0  0  0  0  0  0  0  0
   -1.5816    3.4184    2.0798 C   0  0  0  0  0  0  0  0  0  0  0  0
   -2.0172    4.7097    2.4447 C   0  0  0  0  0  0  0  0  0  0  0  0
   -3.1644    5.2532    1.9036 C   0  0  0  0  0  0  0  0  0  0  0  0
   -3.9174    4.5325    0.9594 C   0  0  0  0  0  0  0  0  0  0  0  0
   -3.4761    3.3025    0.5150 C   0  0  0  0  0  0  0  0  0  0  0  0
   -2.2819    2.7663    1.0430 C   0  0  0  0  0  0  0  0  0  0  0  0
   -1.7737    1.5861    0.4930 N   0  0  0  0  0  0  0  0  0  0  0  0
   -2.3097    1.1183   -0.2382 H   0  0  0  0  0  0  0  0  0  0  0  0
   -0.5184    1.1346    0.8302 C   0  0  0  0  0  0  0  0  0  0  0  0
    0.0310    2.9784    3.8900 N   0  0  0  0  0  0  0  0  0  0  0  0
   -0.5657    3.8537    4.9154 C   0  0  0  0  0  0  0  0  0  0  0  0
   -0.1423    3.3323    6.2624 C   0  0  0  0  0  0  0  0  0  0  0  0
    1.1092    3.6763    6.7752 C   0  0  0  0  0  0  0  0  0  0  0  0
    1.5052    3.1843    8.0167 C   0  0  0  0  0  0  0  0  0  0  0  0
    0.6530    2.3535    8.7431 C   0  0  0  0  0  0  0  0  0  0  0  0
   -0.5983    2.0154    8.2298 C   0  0  0  0  0  0  0  0  0  0  0  0
   -0.9974    2.5022    6.9870 C   0  0  0  0  0  0  0  0  0  0  0  0
    1.7552    1.0499    3.5724 O   0  0  0  0  0  0  0  0  0  0  0  0
   -0.3804   -0.9667    0.4091 H   0  0  0  0  0  0  0  0  0  0  0  0
   -0.3733    0.0430   -1.0470 H   0  0  0  0  0  0  0  0  0  0  0  0
    1.9152   -0.8869   -0.5475 H   0  0  0  0  0  0  0  0  0  0  0  0
    1.9224    0.8779   -0.5548 H   0  0  0  0  0  0  0  0  0  0  0  0
    3.1491   -0.0676    1.4624 H   0  0  0  0  0  0  0  0  0  0  0  0
    1.6890   -0.9066    1.9710 H   0  0  0  0  0  0  0  0  0  0  0  0
   -1.4242    5.3120    3.1364 H   0  0  0  0  0  0  0  0  0  0  0  0
   -3.4943    6.2527    2.1994 H   0  0  0  0  0  0  0  0  0  0  0  0
   -4.8444    4.9626    0.5646 H   0  0  0  0  0  0  0  0  0  0  0  0
   -4.0348    2.7567   -0.2458 H   0  0  0  0  0  0  0  0  0  0  0  0
    0.8683    2.4407    4.2175 H   0  0  0  0  0  0  0  0  0  0  0  0
   -1.6798    3.8645    4.8252 H   0  0  0  0  0  0  0  0  0  0  0  0
   -0.2090    4.9046    4.7688 H   0  0  0  0  0  0  0  0  0  0  0  0
    1.7764    4.3299    6.2149 H   0  0  0  0  0  0  0  0  0  0  0  0
    2.4817    3.4530    8.4222 H   0  0  0  0  0  0  0  0  0  0  0  0
    0.9644    1.9701    9.7169 H   0  0  0  0  0  0  0  0  0  0  0  0
   -1.2670    1.3717    8.8034 H   0  0  0  0  0  0  0  0  0  0  0  0
   -1.9758    2.2357    6.5905 H   0  0  0  0  0  0  0  0  0  0  0  0
    1.3455    0.2102    3.8707 H   0  0  0  0  0  0  0  0  0  0  0  0
  1  2  1  0  0  0  0
  1 26  1  0  0  0  0
  1 16  1  0  0  0  0
  2  3  1  0  0  0  0
  3 30  1  0  0  0  0
  3 31  1  0  0  0  0
  3  4  1  0  0  0  0
  4  5  1  6  0  0  0
  4 25  1  0  0  0  0
  6  4  1  0  0  0  0
  6  7  1  0  0  0  0
  7 17  1  1  0  0  0
  8  9  1  0  0  0  0
  8  7  1  0  0  0  0
  9 32  1  0  0  0  0
 10 33  1  0  0  0  0
 10  9  2  0  0  0  0
 11 10  1  0  0  0  0
 12 11  2  0  0  0  0
 12 13  1  0  0  0  0
 13  8  2  0  0  0  0
 14 16  1  0  0  0  0
 14 13  1  0  0  0  0
 15 14  1  0  0  0  0
 16  6  2  0  0  0  0
 17 36  1  0  0  0  0
 17 18  1  0  0  0  0
 18 19  1  0  0  0  0
 19 20  2  0  0  0  0
 19 24  1  0  0  0  0
 20 21  1  0  0  0  0
 21 40  1  0  0  0  0
 21 22  2  0  0  0  0
 22 41  1  0  0  0  0
 23 22  1  0  0  0  0
 23 42  1  0  0  0  0
 24 23  2  0  0  0  0
 25 44  1  0  0  0  0
 27  1  1  0  0  0  0
 28  2  1  0  0  0  0
 29  2  1  0  0  0  0
 34 11  1  0  0  0  0
 35 12  1  0  0  0  0
 37 18  1  0  0  0  0
 38 18  1  0  0  0  0
 39 20  1  0  0  0  0
 43 24  1  0  0  0  0
M  RAD  1   7   2
M  END
$$$$
