
     RDKit          3D

 42 44  0  0  0  0  0  0  0  0999 V2000
   -0.0490    0.1445   -0.0985 O   0  0  0  0  0  0  0  0  0  0  0  0
    1.1777    0.1562   -0.0505 C   0  0  0  0  0  0  0  0  0  0  0  0
    1.8385    0.1612    1.1563 N   0  0  0  0  0  0  0  0  0  0  0  0
    1.0338    0.2450    2.3891 C   0  0  0  0  0  0  0  0  0  0  0  0
    0.4820   -1.0892    2.7835 C   0  0  0  0  0  0  0  0  0  0  0  0
   -0.4373   -1.7323    1.9779 N   0  0  0  0  0  0  0  0  0  0  0  0
   -0.8141   -1.3104    1.1299 H   0  0  0  0  0  0  0  0  0  0  0  0
   -0.6658   -2.9747    2.5359 C   0  0  0  0  0  0  0  0  0  0  0  0
    0.1660   -3.0067    3.6912 C   0  0  0  0  0  0  0  0  0  0  0  0
    0.8632   -1.8140    3.8070 N   0  0  0  0  0  0  0  0  0  0  0  0
    0.2076   -4.1602    4.4886 C   0  0  0  0  0  0  0  0  0  0  0  0
   -0.5772   -5.2473    4.1099 C   0  0  0  0  0  0  0  0  0  0  0  0
   -1.4001   -5.1971    2.9634 C   0  0  0  0  0  0  0  0  0  0  0  0
   -1.4618   -4.0605    2.1579 C   0  0  0  0  0  0  0  0  0  0  0  0
    3.2559   -0.0086    1.2694 C   0  0  0  0  0  0  0  0  0  0  0  0
    3.8149   -1.3095    1.2418 C   0  0  0  0  0  0  0  0  0  0  0  0
    2.9514   -2.3994    1.0869 N   0  0  0  0  0  0  0  0  0  0  0  0
    3.2573   -3.7504    1.0496 C   0  0  0  0  0  0  0  0  0  0  0  0
    4.3921   -4.1851    1.0619 O   0  0  0  0  0  0  0  0  0  0  0  0
    2.0378   -4.6511    1.0161 C   0  0  0  0  0  0  0  0  0  0  0  0
    5.2106   -1.4439    1.3585 C   0  0  0  0  0  0  0  0  0  0  0  0
    6.0120   -0.3132    1.5120 C   0  0  0  0  0  0  0  0  0  0  0  0
    5.4577    0.9691    1.5509 C   0  0  0  0  0  0  0  0  0  0  0  0
    4.0762    1.1107    1.4280 C   0  0  0  0  0  0  0  0  0  0  0  0
    2.0352    0.1413   -1.2964 C   0  0  0  0  0  0  0  0  0  0  0  0
    0.2191    0.9620    2.2115 H   0  0  0  0  0  0  0  0  0  0  0  0
    1.6766    0.6059    3.1989 H   0  0  0  0  0  0  0  0  0  0  0  0
    0.8475   -4.1920    5.3722 H   0  0  0  0  0  0  0  0  0  0  0  0
   -0.5599   -6.1597    4.7103 H   0  0  0  0  0  0  0  0  0  0  0  0
   -2.0025   -6.0700    2.7016 H   0  0  0  0  0  0  0  0  0  0  0  0
   -2.0970   -4.0263    1.2705 H   0  0  0  0  0  0  0  0  0  0  0  0
    1.9642   -2.1725    1.1098 H   0  0  0  0  0  0  0  0  0  0  0  0
    1.1929   -4.2081    0.4700 H   0  0  0  0  0  0  0  0  0  0  0  0
    1.6989   -4.8469    2.0461 H   0  0  0  0  0  0  0  0  0  0  0  0
    2.3226   -5.6057    0.5568 H   0  0  0  0  0  0  0  0  0  0  0  0
    5.6395   -2.4418    1.3292 H   0  0  0  0  0  0  0  0  0  0  0  0
    7.0928   -0.4428    1.6051 H   0  0  0  0  0  0  0  0  0  0  0  0
    6.0930    1.8485    1.6727 H   0  0  0  0  0  0  0  0  0  0  0  0
    3.6070    2.0968    1.4486 H   0  0  0  0  0  0  0  0  0  0  0  0
    1.3771    0.2526   -2.1660 H   0  0  0  0  0  0  0  0  0  0  0  0
    2.5802   -0.8126   -1.3701 H   0  0  0  0  0  0  0  0  0  0  0  0
    2.7884    0.9416   -1.2805 H   0  0  0  0  0  0  0  0  0  0  0  0
  1  2  2  0
  2  3  1  0
  2 25  1  0
  3  4  1  0
  3 15  1  0
  4  5  1  0
  4 26  1  0
  4 27  1  0
  5  6  1  0
  5 10  2  0
  6  7  1  0
  6  8  1  0
  8  9  2  0
  8 14  1  0
  9 10  1  0
  9 11  1  0
 11 12  2  0
 11 28  1  0
 12 13  1  0
 12 29  1  0
 13 14  2  0
 13 30  1  0
 14 31  1  0
 15 16  2  0
 15 24  1  0
 16 17  1  0
 16 21  1  0
 17 18  1  0
 17 32  1  0
 18 19  2  0
 18 20  1  0
 20 33  1  0
 20 34  1  0
 20 35  1  0
 21 22  2  0
 21 36  1  0
 22 23  1  0
 22 37  1  0
 23 24  2  0
 23 38  1  0
 24 39  1  0
 25 40  1  0
 25 41  1  0
 25 42  1  0
M  END

