42
rmsd106.gzmat
O          0.00000        0.00000        0.00000
C          1.21790        0.00000        0.00000
N          1.87230        0.00000        1.23130
C          1.04270        0.05600        2.44570
C          0.23470       -1.20340        2.54070
N         -1.11410       -1.26810        2.15650
H         -1.54310       -0.62370        1.51450
C         -1.52520       -2.58770        2.38130
C         -0.39010       -3.27080        2.93900
N          0.68210       -2.37420        3.00900
C         -0.48970       -4.61560        3.30880
C         -1.70880       -5.24250        3.11950
C         -2.82100       -4.56190        2.57890
C         -2.75200       -3.23130        2.20370
C          3.25150        0.34400        1.36760
C          4.19770       -0.59140        1.86720
N          3.75560       -1.84230        2.31150
C          4.54830       -2.83750        2.90010
O          5.74860       -2.73490        3.00300
C          3.77710       -4.03600        3.36990
C          5.55010       -0.20650        1.90450
C          5.93910        1.06320        1.50390
C          4.99740        1.99100        1.05770
C          3.65960        1.62780        0.98890
C          2.03940       -0.05970       -1.24630
H          0.37350        0.95280        2.41850
H          1.69620        0.15990        3.34930
H          0.36740       -5.13420        3.72980
H         -1.82450       -6.29040        3.39320
H         -3.75700       -5.10710        2.45750
H         -3.60930       -2.70680        1.79340
H          2.74130       -2.00850        2.28940
H          3.75040       -4.80860        2.58730
H          2.73320       -3.80720        3.64750
H          4.26360       -4.47870        4.25230
H          6.31240       -0.91030        2.25420
H          6.99360        1.33940        1.54300
H          5.31000        2.99030        0.76720
H          2.91730        2.34420        0.63680
H          1.60070       -0.78570       -1.95210
H          3.08570       -0.35380       -1.07810
H          2.04280        0.91810       -1.75270
