42
rmsd38.gzmat
O          0.00000        0.00000        0.00000
C          1.21890        0.00000        0.00000
N          1.89010        0.00000        1.21440
C          1.14560        0.05840        2.47770
C          0.48950       -1.25350        2.77700
N         -0.57420       -1.73540        1.99910
H         -0.92940       -1.29480        1.16560
C         -0.96890       -2.94500        2.56080
C         -0.11370       -3.14670        3.69920
N          0.78400       -2.07990        3.78920
C         -0.28860       -4.27220        4.51470
C         -1.29350       -5.15840        4.17720
C         -2.11710       -4.95900        3.04510
C         -1.97020       -3.86040        2.22030
C          3.31610       -0.02370        1.28660
C          4.02280       -1.25310        1.24620
N          3.28220       -2.44660        1.20360
C          3.80170       -3.70620        0.88140
O          4.95190       -3.85530        0.54380
C          2.80620       -4.82440        0.97230
C          5.42530       -1.22250        1.25800
C          6.09800       -0.00900        1.32430
C          5.39630        1.19420        1.40230
C          4.00680        1.18600        1.38640
C          2.03850       -0.01350       -1.24950
H          0.36710        0.86430        2.41320
H          1.83690        0.33770        3.31450
H          0.34580       -4.41510        5.38690
H         -1.47600       -6.03430        4.79760
H         -2.89110       -5.69650        2.83230
H         -2.60440       -3.69890        1.35450
H          2.31270       -2.37560        1.51080
H          1.82660       -4.57240        0.54610
H          2.64990       -5.12610        2.02010
H          3.18410       -5.71160        0.43690
H          5.99830       -2.15400        1.22180
H          7.18920        0.00030        1.32300
H          5.93690        2.13410        1.47520
H          3.44800        2.11950        1.45100
H          1.38840       -0.09730       -2.13560
H          2.74530       -0.85770       -1.27470
H          2.62910        0.90820       -1.36240
