rmsd38.gzmat
 OpenBabel08211713383D

 42 44  0  0  1  0  0  0  0  0999 V2000
    0.0000    0.0000    0.0000 O   0  0  0  0  0  0  0  0  0  0  0  0
    1.2189    0.0000    0.0000 C   0  0  0  0  0  0  0  0  0  0  0  0
    1.8901    0.0000    1.2144 N   0  0  0  0  0  0  0  0  0  0  0  0
    1.1456    0.0584    2.4777 C   0  0  0  0  0  0  0  0  0  0  0  0
    0.4895   -1.2535    2.7770 C   0  0  0  0  0  0  0  0  0  0  0  0
   -0.5742   -1.7354    1.9991 N   0  0  0  0  0  0  0  0  0  0  0  0
   -0.9294   -1.2948    1.1656 H   0  0  0  0  0  0  0  0  0  0  0  0
   -0.9689   -2.9450    2.5608 C   0  0  1  0  0  0  0  0  0  0  0  0
   -0.1137   -3.1467    3.6992 C   0  0  0  0  0  0  0  0  0  0  0  0
    0.7840   -2.0799    3.7892 N   0  0  0  0  0  0  0  0  0  0  0  0
   -0.2886   -4.2722    4.5147 C   0  0  0  0  0  0  0  0  0  0  0  0
   -1.2935   -5.1584    4.1772 C   0  0  0  0  0  0  0  0  0  0  0  0
   -2.1171   -4.9590    3.0451 C   0  0  0  0  0  0  0  0  0  0  0  0
   -1.9702   -3.8604    2.2203 C   0  0  0  0  0  0  0  0  0  0  0  0
    3.3161   -0.0237    1.2866 C   0  0  0  0  0  0  0  0  0  0  0  0
    4.0228   -1.2531    1.2462 C   0  0  0  0  0  0  0  0  0  0  0  0
    3.2822   -2.4466    1.2036 N   0  0  0  0  0  0  0  0  0  0  0  0
    3.8017   -3.7062    0.8814 C   0  0  0  0  0  0  0  0  0  0  0  0
    4.9519   -3.8553    0.5438 O   0  0  0  0  0  0  0  0  0  0  0  0
    2.8062   -4.8244    0.9723 C   0  0  0  0  0  0  0  0  0  0  0  0
    5.4253   -1.2225    1.2580 C   0  0  0  0  0  0  0  0  0  0  0  0
    6.0980   -0.0090    1.3243 C   0  0  0  0  0  0  0  0  0  0  0  0
    5.3963    1.1942    1.4023 C   0  0  0  0  0  0  0  0  0  0  0  0
    4.0068    1.1860    1.3864 C   0  0  0  0  0  0  0  0  0  0  0  0
    2.0385   -0.0135   -1.2495 C   0  0  0  0  0  0  0  0  0  0  0  0
    0.3671    0.8643    2.4132 H   0  0  0  0  0  0  0  0  0  0  0  0
    1.8369    0.3377    3.3145 H   0  0  0  0  0  0  0  0  0  0  0  0
    0.3458   -4.4151    5.3869 H   0  0  0  0  0  0  0  0  0  0  0  0
   -1.4760   -6.0343    4.7976 H   0  0  0  0  0  0  0  0  0  0  0  0
   -2.8911   -5.6965    2.8323 H   0  0  0  0  0  0  0  0  0  0  0  0
   -2.6044   -3.6989    1.3545 H   0  0  0  0  0  0  0  0  0  0  0  0
    2.3127   -2.3756    1.5108 H   0  0  0  0  0  0  0  0  0  0  0  0
    1.8266   -4.5724    0.5461 H   0  0  0  0  0  0  0  0  0  0  0  0
    2.6499   -5.1261    2.0201 H   0  0  0  0  0  0  0  0  0  0  0  0
    3.1841   -5.7116    0.4369 H   0  0  0  0  0  0  0  0  0  0  0  0
    5.9983   -2.1540    1.2218 H   0  0  0  0  0  0  0  0  0  0  0  0
    7.1892    0.0003    1.3230 H   0  0  0  0  0  0  0  0  0  0  0  0
    5.9369    2.1341    1.4752 H   0  0  0  0  0  0  0  0  0  0  0  0
    3.4480    2.1195    1.4510 H   0  0  0  0  0  0  0  0  0  0  0  0
    1.3884   -0.0973   -2.1356 H   0  0  0  0  0  0  0  0  0  0  0  0
    2.7453   -0.8577   -1.2747 H   0  0  0  0  0  0  0  0  0  0  0  0
    2.6291    0.9082   -1.3624 H   0  0  0  0  0  0  0  0  0  0  0  0
  1  2  2  0  0  0  0
  2  3  1  0  0  0  0
  3 15  1  0  0  0  0
  3  4  1  0  0  0  0
  4  5  1  0  0  0  0
  4 27  1  0  0  0  0
  5 10  2  0  0  0  0
  6  8  1  0  0  0  0
  6  5  1  0  0  0  0
  7  6  1  0  0  0  0
  8 14  1  1  0  0  0
  8  9  1  0  0  0  0
  9 10  2  0  0  0  0
  9 11  1  0  0  0  0
 11 28  1  0  0  0  0
 12 11  2  0  0  0  0
 12 29  1  0  0  0  0
 13 12  1  0  0  0  0
 14 13  2  0  0  0  0
 15 24  2  0  0  0  0
 16 21  2  0  0  0  0
 16 15  1  0  0  0  0
 17 16  1  0  0  0  0
 17 32  1  0  0  0  0
 18 20  1  0  0  0  0
 18 17  1  0  0  0  0
 19 18  2  0  0  0  0
 20 34  1  0  0  0  0
 21 22  1  0  0  0  0
 22 23  2  0  0  0  0
 23 38  1  0  0  0  0
 24 23  1  0  0  0  0
 24 39  1  0  0  0  0
 25  2  1  0  0  0  0
 26  4  1  0  0  0  0
 30 13  1  0  0  0  0
 31 14  1  0  0  0  0
 33 20  1  0  0  0  0
 35 20  1  0  0  0  0
 36 21  1  0  0  0  0
 37 22  1  0  0  0  0
 40 25  1  0  0  0  0
 41 25  1  0  0  0  0
 42 25  1  0  0  0  0
M  RAD  1   8   2
M  END
$$$$
