42
rmsd136.gzmat
O          0.00000        0.00000        0.00000
C          1.21850        0.00000        0.00000
N          1.88660        0.00000        1.21970
C          1.12540        0.04570        2.47490
C          0.52880       -1.29100        2.78720
N         -0.45980       -1.86820        1.97090
H         -0.88640       -1.42450        1.17350
C         -0.72060       -3.13360        2.48980
C          0.14060       -3.27330        3.63410
N          0.89350       -2.10690        3.78230
C          0.14420       -4.46300        4.37250
C         -0.69680       -5.47690        3.95580
C         -1.54480       -5.32860        2.83440
C         -1.57410       -4.16600        2.08700
C          3.29020       -0.25560        1.30280
C          3.81260       -1.57050        1.18060
N          2.91290       -2.63990        1.02610
C          3.25450       -3.96880        0.73360
O          4.38010       -4.29260        0.44250
C          2.08980       -4.91390        0.78290
C          5.20310       -1.74600        1.22590
C          6.04250       -0.65410        1.40790
C          5.52210        0.63180        1.54970
C          4.14740        0.82990        1.49510
C          2.04600        0.02150       -1.24430
H          0.31930        0.82070        2.38590
H          1.80060        0.36350        3.31190
H          0.79400       -4.56240        5.24040
H         -0.71850       -6.41910        4.50160
H         -2.19310       -6.16130        2.56160
H         -2.22980       -4.05040        1.23020
H          1.95570       -2.45030        1.31290
H          1.33240       -4.67860        0.02240
H          1.58900       -4.91010        1.76470
H          2.42840       -5.94650        0.59880
H          5.63580       -2.74590        1.12550
H          7.12150       -0.80920        1.44570
H          6.18880        1.47620        1.70360
H          3.73020        1.83160        1.59930
H          1.41090        0.20060       -2.12710
H          2.56790       -0.93680       -1.40010
H          2.81600        0.80710       -1.22160
