42
rmsd217.gzmat
O          0.00000        0.00000        0.00000
C          1.21910        0.00000        0.00000
N          1.88610        0.00000        1.21880
C          1.12590       -0.04630        2.47400
C          0.51870        1.28630        2.78590
N         -0.44630        1.87340        1.95000
H         -0.84570        1.44180        1.13200
C         -0.74510        3.11970        2.49310
C          0.07100        3.23950        3.67160
N          0.83820        2.08110        3.81380
C          0.01690        4.40230        4.45010
C         -0.82940        5.41200        4.03410
C         -1.62500        5.28710        2.87210
C         -1.60170        4.14890        2.08810
C          3.30060        0.18450        1.29810
C          3.87980        1.47860        1.22510
N          3.02600        2.59180        1.14700
C          3.41640        3.90830        0.86300
O          4.54460        4.18410        0.53350
C          2.30070        4.90570        0.97490
C          5.27780        1.59030        1.24430
C          6.06980        0.45460        1.35600
C          5.49400       -0.81170        1.45660
C          4.11100       -0.94550        1.42740
C          2.04020       -0.01020       -1.24860
H          1.80030       -0.36080        3.31250
H          0.32130       -0.82350        2.38530
H          0.62610        4.48400        5.34840
H         -0.89770        6.33190        4.61320
H         -2.27540        6.11770        2.59790
H         -2.21980        4.04860        1.20190
H          2.06760        2.43330        1.44860
H          1.77100        4.84210        1.93830
H          1.55690        4.77920        0.17550
H          2.69610        5.93140        0.89160
H          5.75300        2.57360        1.17680
H          7.15540        0.55840        1.37080
H          6.12500       -1.69140        1.55610
H          3.65090       -1.93120        1.49900
H          1.40470       -0.22500       -2.12370
H          2.84080       -0.76390       -1.22260
H          2.52080        0.96620       -1.42250
