rmsd124.gzmat
 OpenBabel08211713383D

 42 44  0  0  1  0  0  0  0  0999 V2000
    0.0000    0.0000    0.0000 O   0  0  0  0  0  0  0  0  0  0  0  0
    1.2185    0.0000    0.0000 C   0  0  0  0  0  0  0  0  0  0  0  0
    1.8774    0.0000    1.2247 N   0  0  0  0  0  0  0  0  0  0  0  0
    1.0786   -0.0144    2.4576 C   0  0  0  0  0  0  0  0  0  0  0  0
    0.3407    1.2852    2.5784 C   0  0  0  0  0  0  0  0  0  0  0  0
   -0.9468    1.4839    2.0609 N   0  0  0  0  0  0  0  0  0  0  0  0
   -1.3739    0.8870    1.3713 H   0  0  0  0  0  0  0  0  0  0  0  0
   -1.2730    2.8205    2.3111 C   0  0  2  0  0  0  0  0  0  0  0  0
   -0.1590    3.3749    3.0315 C   0  0  0  0  0  0  0  0  0  0  0  0
    0.8245    2.3904    3.1592 N   0  0  0  0  0  0  0  0  0  0  0  0
   -0.1906    4.7037    3.4673 C   0  0  0  0  0  0  0  0  0  0  0  0
   -1.3179    5.4472    3.1683 C   0  0  0  0  0  0  0  0  0  0  0  0
   -2.4040    4.8985    2.4510 C   0  0  0  0  0  0  0  0  0  0  0  0
   -2.4038    3.5857    2.0144 C   0  0  0  0  0  0  0  0  0  0  0  0
    3.2849   -0.2110    1.3331 C   0  0  0  0  0  0  0  0  0  0  0  0
    4.1799    0.8568    1.5874 C   0  0  0  0  0  0  0  0  0  0  0  0
    3.6865    2.1398    1.8686 N   0  0  0  0  0  0  0  0  0  0  0  0
    4.3637    3.3283    1.5776 C   0  0  0  0  0  0  0  0  0  0  0  0
    5.4551    3.3294    1.0565 O   0  0  0  0  0  0  0  0  0  0  0  0
    3.6104    4.5685    1.9614 C   0  0  0  0  0  0  0  0  0  0  0  0
    5.5606    0.5894    1.5930 C   0  0  0  0  0  0  0  0  0  0  0  0
    6.0297   -0.6984    1.3811 C   0  0  0  0  0  0  0  0  0  0  0  0
    5.1406   -1.7542    1.1711 C   0  0  0  0  0  0  0  0  0  0  0  0
    3.7744   -1.5101    1.1508 C   0  0  0  0  0  0  0  0  0  0  0  0
    2.0474    0.0421   -1.2422 C   0  0  0  0  0  0  0  0  0  0  0  0
    1.7463   -0.1608    3.3446 H   0  0  0  0  0  0  0  0  0  0  0  0
    0.3601   -0.8733    2.4385 H   0  0  0  0  0  0  0  0  0  0  0  0
    0.6462    5.1170    4.0248 H   0  0  0  0  0  0  0  0  0  0  0  0
   -1.3810    6.4854    3.4911 H   0  0  0  0  0  0  0  0  0  0  0  0
   -3.2634    5.5356    2.2413 H   0  0  0  0  0  0  0  0  0  0  0  0
   -3.2406    3.1633    1.4666 H   0  0  0  0  0  0  0  0  0  0  0  0
    2.7399    2.2029    2.2580 H   0  0  0  0  0  0  0  0  0  0  0  0
    2.7101    4.7040    1.3437 H   0  0  0  0  0  0  0  0  0  0  0  0
    4.2425    5.4588    1.8244 H   0  0  0  0  0  0  0  0  0  0  0  0
    3.2832    4.5455    3.0124 H   0  0  0  0  0  0  0  0  0  0  0  0
    6.2684    1.4053    1.7641 H   0  0  0  0  0  0  0  0  0  0  0  0
    7.1033   -0.8879    1.3848 H   0  0  0  0  0  0  0  0  0  0  0  0
    5.5184   -2.7626    1.0218 H   0  0  0  0  0  0  0  0  0  0  0  0
    3.0737   -2.3282    0.9839 H   0  0  0  0  0  0  0  0  0  0  0  0
    2.7412   -0.8080   -1.3137 H   0  0  0  0  0  0  0  0  0  0  0  0
    2.6564    0.9594   -1.2904 H   0  0  0  0  0  0  0  0  0  0  0  0
    1.4020    0.0238   -2.1357 H   0  0  0  0  0  0  0  0  0  0  0  0
  1  2  2  0  0  0  0
  2  3  1  0  0  0  0
  3 15  1  0  0  0  0
  3  4  1  0  0  0  0
  4  5  1  0  0  0  0
  4 26  1  0  0  0  0
  5 10  2  0  0  0  0
  6  8  1  0  0  0  0
  6  5  1  0  0  0  0
  7  6  1  0  0  0  0
  8 14  1  1  0  0  0
  8  9  1  0  0  0  0
  9 10  2  0  0  0  0
  9 11  1  0  0  0  0
 11 28  1  0  0  0  0
 12 11  2  0  0  0  0
 12 29  1  0  0  0  0
 13 12  1  0  0  0  0
 14 13  2  0  0  0  0
 15 16  2  0  0  0  0
 16 21  1  0  0  0  0
 16 17  1  0  0  0  0
 17 32  1  0  0  0  0
 18 17  1  0  0  0  0
 18 20  1  0  0  0  0
 19 18  2  0  0  0  0
 20 35  1  0  0  0  0
 21 36  1  0  0  0  0
 22 37  1  0  0  0  0
 22 21  2  0  0  0  0
 23 22  1  0  0  0  0
 24 23  2  0  0  0  0
 24 15  1  0  0  0  0
 25  2  1  0  0  0  0
 27  4  1  0  0  0  0
 30 13  1  0  0  0  0
 31 14  1  0  0  0  0
 33 20  1  0  0  0  0
 34 20  1  0  0  0  0
 38 23  1  0  0  0  0
 39 24  1  0  0  0  0
 40 25  1  0  0  0  0
 41 25  1  0  0  0  0
 42 25  1  0  0  0  0
M  RAD  1   8   2
M  END
$$$$
