rmsd178.gzmat
 OpenBabel08211713383D

 42 44  0  0  1  0  0  0  0  0999 V2000
    0.0000    0.0000    0.0000 O   0  0  0  0  0  0  0  0  0  0  0  0
    1.2189    0.0000    0.0000 C   0  0  0  0  0  0  0  0  0  0  0  0
    1.8875    0.0000    1.2183 N   0  0  0  0  0  0  0  0  0  0  0  0
    1.1290   -0.0415    2.4754 C   0  0  0  0  0  0  0  0  0  0  0  0
    0.5281    1.2954    2.7797 C   0  0  0  0  0  0  0  0  0  0  0  0
   -0.4533    1.8675    1.9521 N   0  0  0  0  0  0  0  0  0  0  0  0
   -0.8531    1.4304    1.1373 H   0  0  0  0  0  0  0  0  0  0  0  0
   -0.7232    3.1334    2.4638 C   0  0  1  0  0  0  0  0  0  0  0  0
    0.1157    3.2742    3.6242 C   0  0  0  0  0  0  0  0  0  0  0  0
    0.8728    2.1114    3.7824 N   0  0  0  0  0  0  0  0  0  0  0  0
    0.0922    4.4593    4.3696 C   0  0  0  0  0  0  0  0  0  0  0  0
   -0.7502    5.4677    3.9423 C   0  0  0  0  0  0  0  0  0  0  0  0
   -1.5660    5.3231    2.7966 C   0  0  0  0  0  0  0  0  0  0  0  0
   -1.5712    4.1638    2.0438 C   0  0  0  0  0  0  0  0  0  0  0  0
    3.2987    0.2090    1.2983 C   0  0  0  0  0  0  0  0  0  0  0  0
    3.8596    1.5098    1.2030 C   0  0  0  0  0  0  0  0  0  0  0  0
    2.9920    2.6091    1.0789 N   0  0  0  0  0  0  0  0  0  0  0  0
    3.3710    3.9212    0.7602 C   0  0  0  0  0  0  0  0  0  0  0  0
    4.4992    4.1990    0.4321 O   0  0  0  0  0  0  0  0  0  0  0  0
    2.2456    4.9111    0.8344 C   0  0  0  0  0  0  0  0  0  0  0  0
    5.2550    1.6436    1.2463 C   0  0  0  0  0  0  0  0  0  0  0  0
    6.0621    0.5228    1.3955 C   0  0  0  0  0  0  0  0  0  0  0  0
    5.5041   -0.7505    1.5079 C   0  0  0  0  0  0  0  0  0  0  0  0
    4.1239   -0.9061    1.4587 C   0  0  0  0  0  0  0  0  0  0  0  0
    2.0420   -0.0168   -1.2472 C   0  0  0  0  0  0  0  0  0  0  0  0
    1.8048   -0.3538    3.3138 H   0  0  0  0  0  0  0  0  0  0  0  0
    0.3234   -0.8178    2.3911 H   0  0  0  0  0  0  0  0  0  0  0  0
    0.7231    4.5600    5.2508 H   0  0  0  0  0  0  0  0  0  0  0  0
   -0.7979    6.4033    4.4981 H   0  0  0  0  0  0  0  0  0  0  0  0
   -2.2079    6.1555    2.5081 H   0  0  0  0  0  0  0  0  0  0  0  0
   -2.2036    4.0485    1.1694 H   0  0  0  0  0  0  0  0  0  0  0  0
    2.0339    2.4484    1.3789 H   0  0  0  0  0  0  0  0  0  0  0  0
    2.6279    5.9340    0.6790 H   0  0  0  0  0  0  0  0  0  0  0  0
    1.7390    4.9011    1.8130 H   0  0  0  0  0  0  0  0  0  0  0  0
    1.4851    4.7291    0.0624 H   0  0  0  0  0  0  0  0  0  0  0  0
    5.7160    2.6329    1.1696 H   0  0  0  0  0  0  0  0  0  0  0  0
    7.1455    0.6441    1.4305 H   0  0  0  0  0  0  0  0  0  0  0  0
    6.1466   -1.6184    1.6333 H   0  0  0  0  0  0  0  0  0  0  0  0
    3.6774   -1.8973    1.5399 H   0  0  0  0  0  0  0  0  0  0  0  0
    1.3946   -0.1146   -2.1342 H   0  0  0  0  0  0  0  0  0  0  0  0
    2.7574   -0.8526   -1.2609 H   0  0  0  0  0  0  0  0  0  0  0  0
    2.6264    0.9103   -1.3638 H   0  0  0  0  0  0  0  0  0  0  0  0
  1  2  2  0  0  0  0
  2  3  1  0  0  0  0
  3 15  1  0  0  0  0
  3  4  1  0  0  0  0
  4  5  1  0  0  0  0
  4 26  1  0  0  0  0
  5 10  2  0  0  0  0
  6  8  1  0  0  0  0
  6  5  1  0  0  0  0
  7  6  1  0  0  0  0
  8 14  1  6  0  0  0
  8  9  1  0  0  0  0
  9 10  2  0  0  0  0
  9 11  1  0  0  0  0
 11 28  1  0  0  0  0
 12 11  2  0  0  0  0
 12 29  1  0  0  0  0
 13 12  1  0  0  0  0
 14 13  2  0  0  0  0
 15 24  2  0  0  0  0
 16 21  2  0  0  0  0
 16 15  1  0  0  0  0
 17 16  1  0  0  0  0
 17 32  1  0  0  0  0
 18 20  1  0  0  0  0
 18 17  1  0  0  0  0
 19 18  2  0  0  0  0
 20 34  1  0  0  0  0
 21 22  1  0  0  0  0
 22 37  1  0  0  0  0
 22 23  2  0  0  0  0
 23 38  1  0  0  0  0
 24 23  1  0  0  0  0
 24 39  1  0  0  0  0
 25  2  1  0  0  0  0
 27  4  1  0  0  0  0
 30 13  1  0  0  0  0
 31 14  1  0  0  0  0
 33 20  1  0  0  0  0
 35 20  1  0  0  0  0
 36 21  1  0  0  0  0
 40 25  1  0  0  0  0
 41 25  1  0  0  0  0
 42 25  1  0  0  0  0
M  RAD  1   8   2
M  END
$$$$
