rmsd217.gzmat
 OpenBabel08211713383D

 42 44  0  0  1  0  0  0  0  0999 V2000
    0.0000    0.0000    0.0000 O   0  0  0  0  0  0  0  0  0  0  0  0
    1.2191    0.0000    0.0000 C   0  0  0  0  0  0  0  0  0  0  0  0
    1.8861    0.0000    1.2188 N   0  0  0  0  0  0  0  0  0  0  0  0
    1.1259   -0.0463    2.4740 C   0  0  0  0  0  0  0  0  0  0  0  0
    0.5187    1.2863    2.7859 C   0  0  0  0  0  0  0  0  0  0  0  0
   -0.4463    1.8734    1.9500 N   0  0  0  0  0  0  0  0  0  0  0  0
   -0.8457    1.4418    1.1320 H   0  0  0  0  0  0  0  0  0  0  0  0
   -0.7451    3.1197    2.4931 C   0  0  1  0  0  0  0  0  0  0  0  0
    0.0710    3.2395    3.6716 C   0  0  0  0  0  0  0  0  0  0  0  0
    0.8382    2.0811    3.8138 N   0  0  0  0  0  0  0  0  0  0  0  0
    0.0169    4.4023    4.4501 C   0  0  0  0  0  0  0  0  0  0  0  0
   -0.8294    5.4120    4.0341 C   0  0  0  0  0  0  0  0  0  0  0  0
   -1.6250    5.2871    2.8721 C   0  0  0  0  0  0  0  0  0  0  0  0
   -1.6017    4.1489    2.0881 C   0  0  0  0  0  0  0  0  0  0  0  0
    3.3006    0.1845    1.2981 C   0  0  0  0  0  0  0  0  0  0  0  0
    3.8798    1.4786    1.2251 C   0  0  0  0  0  0  0  0  0  0  0  0
    3.0260    2.5918    1.1470 N   0  0  0  0  0  0  0  0  0  0  0  0
    3.4164    3.9083    0.8630 C   0  0  0  0  0  0  0  0  0  0  0  0
    4.5446    4.1841    0.5335 O   0  0  0  0  0  0  0  0  0  0  0  0
    2.3007    4.9057    0.9749 C   0  0  0  0  0  0  0  0  0  0  0  0
    5.2778    1.5903    1.2443 C   0  0  0  0  0  0  0  0  0  0  0  0
    6.0698    0.4546    1.3560 C   0  0  0  0  0  0  0  0  0  0  0  0
    5.4940   -0.8117    1.4566 C   0  0  0  0  0  0  0  0  0  0  0  0
    4.1110   -0.9455    1.4274 C   0  0  0  0  0  0  0  0  0  0  0  0
    2.0402   -0.0102   -1.2486 C   0  0  0  0  0  0  0  0  0  0  0  0
    1.8003   -0.3608    3.3125 H   0  0  0  0  0  0  0  0  0  0  0  0
    0.3213   -0.8235    2.3853 H   0  0  0  0  0  0  0  0  0  0  0  0
    0.6261    4.4840    5.3484 H   0  0  0  0  0  0  0  0  0  0  0  0
   -0.8977    6.3319    4.6132 H   0  0  0  0  0  0  0  0  0  0  0  0
   -2.2754    6.1177    2.5979 H   0  0  0  0  0  0  0  0  0  0  0  0
   -2.2198    4.0486    1.2019 H   0  0  0  0  0  0  0  0  0  0  0  0
    2.0676    2.4333    1.4486 H   0  0  0  0  0  0  0  0  0  0  0  0
    1.7710    4.8421    1.9383 H   0  0  0  0  0  0  0  0  0  0  0  0
    1.5569    4.7792    0.1755 H   0  0  0  0  0  0  0  0  0  0  0  0
    2.6961    5.9314    0.8916 H   0  0  0  0  0  0  0  0  0  0  0  0
    5.7530    2.5736    1.1768 H   0  0  0  0  0  0  0  0  0  0  0  0
    7.1554    0.5584    1.3708 H   0  0  0  0  0  0  0  0  0  0  0  0
    6.1250   -1.6914    1.5561 H   0  0  0  0  0  0  0  0  0  0  0  0
    3.6509   -1.9312    1.4990 H   0  0  0  0  0  0  0  0  0  0  0  0
    1.4047   -0.2250   -2.1237 H   0  0  0  0  0  0  0  0  0  0  0  0
    2.8408   -0.7639   -1.2226 H   0  0  0  0  0  0  0  0  0  0  0  0
    2.5208    0.9662   -1.4225 H   0  0  0  0  0  0  0  0  0  0  0  0
  1  2  2  0  0  0  0
  2  3  1  0  0  0  0
  3 15  1  0  0  0  0
  3  4  1  0  0  0  0
  4  5  1  0  0  0  0
  4 26  1  0  0  0  0
  5 10  2  0  0  0  0
  6  8  1  0  0  0  0
  6  5  1  0  0  0  0
  7  6  1  0  0  0  0
  8 14  1  6  0  0  0
  8  9  1  0  0  0  0
  9 10  2  0  0  0  0
  9 11  1  0  0  0  0
 11 28  1  0  0  0  0
 12 11  2  0  0  0  0
 12 29  1  0  0  0  0
 13 12  1  0  0  0  0
 14 13  2  0  0  0  0
 15 24  2  0  0  0  0
 16 21  2  0  0  0  0
 16 15  1  0  0  0  0
 17 16  1  0  0  0  0
 17 32  1  0  0  0  0
 18 20  1  0  0  0  0
 18 17  1  0  0  0  0
 19 18  2  0  0  0  0
 20 33  1  0  0  0  0
 21 22  1  0  0  0  0
 22 37  1  0  0  0  0
 22 23  2  0  0  0  0
 23 38  1  0  0  0  0
 24 23  1  0  0  0  0
 24 39  1  0  0  0  0
 25 41  1  0  0  0  0
 25  2  1  0  0  0  0
 27  4  1  0  0  0  0
 30 13  1  0  0  0  0
 31 14  1  0  0  0  0
 34 20  1  0  0  0  0
 35 20  1  0  0  0  0
 36 21  1  0  0  0  0
 40 25  1  0  0  0  0
 42 25  1  0  0  0  0
M  RAD  1   8   2
M  END
$$$$
