
     RDKit          3D

 42 44  0  0  0  0  0  0  0  0999 V2000
    0.0094    0.1034   -0.1778 O   0  0  0  0  0  0  0  0  0  0  0  0
    1.2281    0.0948   -0.0392 C   0  0  0  0  0  0  0  0  0  0  0  0
    1.7946    0.1756    1.2141 N   0  0  0  0  0  0  0  0  0  0  0  0
    0.8689    0.2559    2.3546 C   0  0  0  0  0  0  0  0  0  0  0  0
    0.1638   -1.0455    2.5955 C   0  0  0  0  0  0  0  0  0  0  0  0
   -0.9884   -1.3893    1.9402 N   0  0  0  0  0  0  0  0  0  0  0  0
   -1.3213   -0.8599    1.1375 H   0  0  0  0  0  0  0  0  0  0  0  0
   -1.3056   -2.6808    2.3150 C   0  0  0  0  0  0  0  0  0  0  0  0
   -0.2900   -3.0495    3.2399 C   0  0  0  0  0  0  0  0  0  0  0  0
    0.6123   -2.0032    3.3809 N   0  0  0  0  0  0  0  0  0  0  0  0
   -0.3186   -4.3175    3.8396 C   0  0  0  0  0  0  0  0  0  0  0  0
   -1.3510   -5.1837    3.4881 C   0  0  0  0  0  0  0  0  0  0  0  0
   -2.3463   -4.8061    2.5609 C   0  0  0  0  0  0  0  0  0  0  0  0
   -2.3440   -3.5480    1.9606 C   0  0  0  0  0  0  0  0  0  0  0  0
    3.1919    0.4236    1.4105 C   0  0  0  0  0  0  0  0  0  0  0  0
    4.0511   -0.5889    1.9039 C   0  0  0  0  0  0  0  0  0  0  0  0
    3.5106   -1.8212    2.2858 N   0  0  0  0  0  0  0  0  0  0  0  0
    4.1938   -2.9951    2.5537 C   0  0  0  0  0  0  0  0  0  0  0  0
    5.3949   -3.1324    2.4174 O   0  0  0  0  0  0  0  0  0  0  0  0
    3.2927   -4.1125    3.0454 C   0  0  0  0  0  0  0  0  0  0  0  0
    5.4284   -0.3034    1.9975 C   0  0  0  0  0  0  0  0  0  0  0  0
    5.9194    0.9507    1.6407 C   0  0  0  0  0  0  0  0  0  0  0  0
    5.0635    1.9596    1.1906 C   0  0  0  0  0  0  0  0  0  0  0  0
    3.7019    1.6853    1.0843 C   0  0  0  0  0  0  0  0  0  0  0  0
    2.1685   -0.0226   -1.2187 C   0  0  0  0  0  0  0  0  0  0  0  0
    0.1345    1.0560    2.1738 H   0  0  0  0  0  0  0  0  0  0  0  0
    1.4551    0.5039    3.2467 H   0  0  0  0  0  0  0  0  0  0  0  0
    0.4479   -4.6075    4.5599 H   0  0  0  0  0  0  0  0  0  0  0  0
   -1.3957   -6.1778    3.9387 H   0  0  0  0  0  0  0  0  0  0  0  0
   -3.1383   -5.5156    2.3108 H   0  0  0  0  0  0  0  0  0  0  0  0
   -3.1172   -3.2559    1.2474 H   0  0  0  0  0  0  0  0  0  0  0  0
    2.5141   -1.8483    2.5085 H   0  0  0  0  0  0  0  0  0  0  0  0
    2.4816   -4.3180    2.3302 H   0  0  0  0  0  0  0  0  0  0  0  0
    2.8158   -3.8205    3.9934 H   0  0  0  0  0  0  0  0  0  0  0  0
    3.9006   -5.0129    3.1906 H   0  0  0  0  0  0  0  0  0  0  0  0
    6.0962   -1.0887    2.3403 H   0  0  0  0  0  0  0  0  0  0  0  0
    6.9919    1.1411    1.7253 H   0  0  0  0  0  0  0  0  0  0  0  0
    5.4503    2.9453    0.9246 H   0  0  0  0  0  0  0  0  0  0  0  0
    3.0050    2.4483    0.7300 H   0  0  0  0  0  0  0  0  0  0  0  0
    1.5847   -0.3632   -2.0823 H   0  0  0  0  0  0  0  0  0  0  0  0
    2.9922   -0.7200   -1.0104 H   0  0  0  0  0  0  0  0  0  0  0  0
    2.6202    0.9522   -1.4554 H   0  0  0  0  0  0  0  0  0  0  0  0
  1  2  2  0
  2  3  1  0
  2 25  1  0
  3  4  1  0
  3 15  1  0
  4  5  1  0
  4 26  1  0
  4 27  1  0
  5  6  1  0
  5 10  2  0
  6  7  1  0
  6  8  1  0
  8  9  2  0
  8 14  1  0
  9 10  1  0
  9 11  1  0
 11 12  2  0
 11 28  1  0
 12 13  1  0
 12 29  1  0
 13 14  2  0
 13 30  1  0
 14 31  1  0
 15 16  2  0
 15 24  1  0
 16 17  1  0
 16 21  1  0
 17 18  1  0
 17 32  1  0
 18 19  2  0
 18 20  1  0
 20 33  1  0
 20 34  1  0
 20 35  1  0
 21 22  2  0
 21 36  1  0
 22 23  1  0
 22 37  1  0
 23 24  2  0
 23 38  1  0
 24 39  1  0
 25 40  1  0
 25 41  1  0
 25 42  1  0
M  END

