46
rmsd164.gzmat
C          0.00000        0.00000        0.00000
C          1.39100        0.00000        0.00000
O          2.00820        0.00000        1.22030
C          3.38760       -0.35740        1.14740
C          4.06480        0.38970        0.00220
O          3.47590        0.01240       -1.24100
C          2.10800        0.03410       -1.20390
C          1.44220        0.05480       -2.42650
C          0.05080        0.05230       -2.42890
C         -0.67120        0.02910       -1.22720
C         -2.11560        0.03660       -1.25710
C         -2.97840        0.96530       -0.58720
C         -2.59610        2.07880        0.30110
N         -4.27540        0.68850       -0.88580
N         -4.26570       -0.39690       -1.69670
H         -5.11970       -0.71960       -2.10590
C         -2.97520       -0.82540       -1.96720
C         -2.68390       -1.97450       -2.79240
C         -1.54440       -2.75120       -2.52940
C         -1.19750       -3.83540       -3.32350
C          0.01480       -4.65590       -3.02560
C         -0.37590       -5.91100       -2.23850
C         -2.03030       -4.15340       -4.41210
O         -1.64120       -5.21190       -5.16140
C         -3.18690       -3.43040       -4.70440
C         -3.49460       -2.35230       -3.87260
O         -4.61840       -1.61400       -4.06440
H         -0.55080       -0.03040        0.93720
H          3.77060       -0.06720        2.14100
H          3.45270       -1.45360        1.02330
H          5.12420        0.11160       -0.13240
H          3.97130        1.48580        0.11010
H          2.00910        0.07800       -3.35400
H         -0.49040        0.07470       -3.37480
H         -3.35770        2.87490        0.31390
H         -1.64240        2.53360       -0.01060
H         -2.47270        1.73350        1.34040
H         -0.91330       -2.48590       -1.67280
H          0.76140       -4.06570       -2.45450
H          0.52560       -4.94700       -3.96840
H         -0.90280       -5.65440       -1.31200
H          0.50420       -6.50380       -1.97240
H         -1.04190       -6.55260       -2.82830
H         -2.24810       -5.37740       -5.92410
H         -3.82180       -3.69490       -5.53770
H         -5.10790       -1.87180       -4.88260
