46
rmsd116.gzmat
C          0.00000        0.00000        0.00000
C          1.39080        0.00000        0.00000
O          2.00760        0.00000        1.22060
C          3.38240       -0.37400        1.14880
C          4.07160        0.36480        0.00580
O          3.47610        0.00560       -1.23960
C          2.10880        0.03620       -1.20290
C          1.44270        0.06740       -2.42560
C          0.05120        0.07140       -2.42760
C         -0.67140        0.03710       -1.22690
C         -2.11560        0.03550       -1.25440
C         -2.98400        0.93280       -0.54930
C         -2.61200        2.02730        0.36690
N         -4.28000        0.64750       -0.84450
N         -4.26330       -0.41130       -1.68900
H         -5.11750       -0.73640       -2.09630
C         -2.97000       -0.81400       -1.98570
C         -2.67630       -1.93020       -2.85500
C         -1.51710       -2.69470       -2.64730
C         -1.17630       -3.75160       -3.48040
C          0.05240       -4.56600       -3.23720
C         -0.28730       -5.78910       -2.37950
C         -2.03380       -4.05350       -4.55380
O         -1.65210       -5.08660       -5.34140
C         -3.20790       -3.34030       -4.79490
C         -3.50860       -2.29080       -3.92500
O         -4.64860       -1.56680       -4.06900
H         -0.54980       -0.03570        0.93790
H          3.76680       -0.08800        2.14330
H          3.43370       -1.47060        1.02330
H          5.12540        0.06600       -0.13040
H          4.00270        1.46200        0.11840
H          2.00760        0.09240       -3.35410
H         -0.48920        0.10610       -3.37360
H         -3.35150        2.84380        0.35110
H         -1.63330        2.45910        0.10590
H         -2.55090        1.67160        1.40800
H         -0.86390       -2.44400       -1.80250
H          0.83810       -3.95870       -2.74230
H          0.49690       -4.89530       -4.20080
H         -0.72230       -5.49350       -1.41810
H          0.60300       -6.39180       -2.17550
H         -1.01450       -6.43420       -2.88720
H         -2.28150       -5.24460       -6.08720
H         -3.86100       -3.59230       -5.61840
H         -5.16270       -1.82250       -4.87310
