46
rmsd163.gzmat
C          0.00000        0.00000        0.00000
C          1.39080        0.00000        0.00000
O          2.00870        0.00000        1.22010
C          3.38380       -0.37260        1.14610
C          4.07030        0.37060        0.00420
O          3.47560        0.01080       -1.24180
C          2.10820        0.03050       -1.20380
C          1.44220        0.04310       -2.42680
C          0.05070        0.03440       -2.42980
C         -0.67130        0.01690       -1.22750
C         -2.11580        0.00730       -1.25670
C         -2.99000        0.94900       -0.62180
C         -2.61650        2.10920        0.20880
N         -4.28370        0.63760       -0.90060
N         -4.25920       -0.47920       -1.66790
H         -5.10980       -0.83540       -2.05540
C         -2.96320       -0.89600       -1.92870
C         -2.64580       -2.06000       -2.72240
C         -1.46540       -2.77450       -2.46820
C         -1.07030       -3.84910       -3.25510
C          0.22710       -4.54340       -2.99440
C          1.40070       -3.65540       -3.41950
C         -1.91220       -4.23790       -4.31140
O         -1.49370       -5.29560       -5.04620
C         -3.11480       -3.58540       -4.58750
C         -3.45810       -2.50310       -3.77640
O         -4.61900       -1.82350       -3.96280
H         -0.55030       -0.02240        0.93800
H          3.76820       -0.09060        2.14170
H          3.43900       -1.46890        1.01790
H          5.12510        0.07600       -0.13310
H          3.99730        1.46750        0.11790
H          2.00840        0.06640       -3.35460
H         -0.49000        0.04400       -3.37630
H         -3.37490        2.90700        0.16730
H         -1.65830        2.54400       -0.11670
H         -2.50570        1.82380        1.26720
H         -0.83200       -2.46630       -1.62750
H          0.27630       -5.51290       -3.53310
H          0.31620       -4.80130       -1.91870
H          1.37020       -3.44920       -4.49570
H          2.36020       -4.13240       -3.19890
H          1.38370       -2.68780       -2.90100
H         -2.12260       -5.52130       -5.77450
H         -3.75450       -3.90440       -5.39790
H         -5.11870       -2.13390       -4.75600
