46

C          0.02310        0.05000       -0.00150
C          1.41770        0.03850        0.07270
O          2.00740       -0.03300        1.30540
C          3.37830       -0.39170        1.27500
C          4.10250        0.39220        0.19420
O          3.55130        0.09580       -1.07770
C          2.18350        0.09070       -1.10750
C          1.53150        0.14220       -2.34310
C          0.14120        0.15430       -2.40900
C         -0.63910        0.10740       -1.23660
C         -2.11210        0.13170       -1.30050
C         -2.97550        1.04010       -0.61490
C         -2.59680        2.11710        0.35230
N         -4.24710        0.84750       -0.96350
N         -4.22370       -0.16770       -1.83420
H         -5.07100       -0.47670       -2.29310
C         -2.97300       -0.65090       -2.08810
C         -2.72080       -1.80050       -2.96420
C         -1.56080       -2.58370       -2.80540
C         -1.23620       -3.66620       -3.61960
C          0.01260       -4.48380       -3.39510
C         -0.25670       -5.80870       -2.66920
C         -2.14000       -4.00350       -4.64540
O         -1.82680       -5.06350       -5.43830
C         -3.31650       -3.26900       -4.82090
C         -3.60900       -2.18150       -3.99120
O         -4.76610       -1.47070       -4.15210
H         -0.53670       -0.01080        0.93270
H          3.79100       -0.17140        2.27010
H          3.48250       -1.47590        1.07990
H          5.16800        0.12350        0.15440
H          4.01710        1.47570        0.40140
H          2.14500        0.18830       -3.24500
H         -0.35570        0.20340       -3.37900
H         -3.42610        2.83090        0.45420
H         -1.69670        2.65470        0.01640
H         -2.37550        1.71070        1.35350
H         -0.87470       -2.32650       -1.99920
H          0.72930       -3.87990       -2.81600
H          0.48670       -4.69560       -4.36730
H         -0.70800       -5.63060       -1.68010
H          0.67580       -6.37700       -2.52180
H         -0.94930       -6.43660       -3.25000
H         -2.51240       -5.18610       -6.10700
H         -4.01990       -3.54660       -5.61370
H         -5.25730       -1.81420       -4.90900
