46
rmsd155.gzmat
C          0.00000        0.00000        0.00000
C          1.39080        0.00000        0.00000
O          2.00770        0.00000        1.22020
C          3.38790       -0.35380        1.14730
C          4.06480        0.39490        0.00320
O          3.47600        0.01790       -1.24060
C          2.10830        0.03620       -1.20360
C          1.44220        0.05760       -2.42610
C          0.05040        0.05370       -2.42880
C         -0.67150        0.02960       -1.22720
C         -2.11610        0.03410       -1.25080
C         -2.97470        0.97510       -0.59340
C         -2.58150        2.10760        0.26560
N         -4.27390        0.68700       -0.87120
N         -4.26850       -0.41650       -1.65750
H         -5.12570       -0.75440       -2.04720
C         -2.97970       -0.84730       -1.93110
C         -2.68610       -2.01110       -2.73360
C         -1.51730       -2.74690       -2.48720
C         -1.14930       -3.83110       -3.27390
C          0.13400       -4.55130       -3.01330
C          1.32770       -3.67260       -3.39980
C         -2.00600       -4.20550       -4.32340
O         -1.61290       -5.27210       -5.05940
C         -3.19770       -3.53030       -4.59270
C         -3.51380       -2.43920       -3.78230
O         -4.66200       -1.73640       -3.96280
H         -0.55130       -0.02930        0.93730
H          3.76840       -0.06320        2.14170
H          3.45580       -1.44950        1.02240
H          5.12470        0.11830       -0.13130
H          3.97200        1.49080        0.11160
H          2.00920        0.08630       -3.35320
H         -0.49040        0.07670       -3.37460
H         -3.29780        2.94200        0.20070
H         -1.58880        2.49700       -0.01060
H         -2.53500        1.80510        1.32430
H         -0.87080       -2.44840       -1.65260
H          0.17690       -5.50960       -3.57190
H          0.20190       -4.83630       -1.94280
H          1.33130       -3.46010       -4.47490
H          2.27600       -4.16010       -3.15360
H          1.30440       -2.70650       -2.87790
H         -2.25300       -5.49010       -5.77990
H         -3.84980       -3.83940       -5.39710
H         -5.16700       -2.03070       -4.75850
