46

C         -0.00980       -0.00250       -0.01970
C          1.38400        0.05090        0.05180
O          1.97610        0.08220        1.28510
C          3.36400       -0.20510        1.27110
C          4.04610        0.55610        0.14750
O          3.51200        0.16300       -1.10510
C          2.14650        0.08240       -1.13130
C          1.49380        0.02540       -2.36640
C          0.10530       -0.04850       -2.42920
C         -0.67330       -0.04470       -1.25470
C         -2.14520       -0.11150       -1.31720
C         -2.98100       -1.06040       -0.65300
C         -2.57030       -2.14890        0.28800
N         -4.25820       -0.89610       -0.99570
N         -4.26530        0.13970       -1.84210
H         -5.12180        0.43520       -2.29270
C         -3.02930        0.66450       -2.08540
C         -2.81080        1.84020       -2.93520
C         -1.67160        2.65040       -2.76130
C         -1.37810        3.75910       -3.55170
C         -0.15060        4.60410       -3.31180
C         -0.45230        5.90470       -2.55530
C         -2.29340        4.09520       -4.56760
O         -2.01060        5.18070       -5.33710
C         -3.45040        3.33380       -4.75710
C         -3.71150        2.22050       -3.95160
O         -4.84970        1.48270       -4.12610
H         -0.56790       -0.00040        0.91740
H          3.76410        0.09060        2.25170
H          3.52520       -1.29120        1.13480
H          5.12440        0.34250        0.11970
H          3.90330        1.64330        0.29620
H          2.10540        0.03810       -3.27070
H         -0.39230       -0.09760       -3.39890
H         -3.37670       -2.89090        0.37000
H         -2.36400       -1.76090        1.29970
H         -1.65300       -2.64910       -0.05890
H         -0.97680        2.39380       -1.96240
H          0.31480        4.85020       -4.28020
H          0.58350        4.00620       -2.74830
H         -1.16310        6.52700       -3.11990
H          0.46540        6.49410       -2.39780
H         -0.89520        5.69250       -1.56930
H         -2.70120        5.30010       -6.00130
H         -4.16320        3.61030       -5.54190
H         -5.35190        1.82990       -4.87400
