rmsd208.gzmat
 OpenBabel08211713433D

 46 49  0  0  0  0  0  0  0  0999 V2000
    0.0000    0.0000    0.0000 C   0  0  0  0  0  0  0  0  0  0  0  0
    1.3908    0.0000    0.0000 C   0  0  0  0  0  0  0  0  0  0  0  0
    2.0099    0.0000    1.2198 O   0  0  0  0  0  0  0  0  0  0  0  0
    3.3831   -0.3791    1.1418 C   0  0  0  0  0  0  0  0  0  0  0  0
    4.0696    0.3767    0.0079 C   0  0  0  0  0  0  0  0  0  0  0  0
    3.4769    0.0272   -1.2415 O   0  0  0  0  0  0  0  0  0  0  0  0
    2.1093    0.0367   -1.2027 C   0  0  0  0  0  0  0  0  0  0  0  0
    1.4443    0.0469   -2.4262 C   0  0  0  0  0  0  0  0  0  0  0  0
    0.0532    0.0311   -2.4290 C   0  0  0  0  0  0  0  0  0  0  0  0
   -0.6702    0.0182   -1.2275 C   0  0  0  0  0  0  0  0  0  0  0  0
   -2.1140    0.0172   -1.2644 C   0  0  0  0  0  0  0  0  0  0  0  0
   -2.9928   -0.9103   -0.6142 C   0  0  0  0  0  0  0  0  0  0  0  0
   -2.6307   -2.0387    0.2632 C   0  0  0  0  0  0  0  0  0  0  0  0
   -4.2838   -0.6200   -0.9262 N   0  0  0  0  0  0  0  0  0  0  0  0
   -4.2551    0.4726   -1.7275 N   0  0  0  0  0  0  0  0  0  0  0  0
   -5.1002    0.8037   -2.1476 H   0  0  0  0  0  0  0  0  0  0  0  0
   -2.9576    0.8917   -1.9775 C   0  0  0  0  0  0  0  0  0  0  0  0
   -2.6413    2.0400   -2.7939 C   0  0  0  0  0  0  0  0  0  0  0  0
   -1.5190    2.8269   -2.4926 C   0  0  0  0  0  0  0  0  0  0  0  0
   -1.1522    3.9099   -3.2807 C   0  0  0  0  0  0  0  0  0  0  0  0
    0.0353    4.7476   -2.9339 C   0  0  0  0  0  0  0  0  0  0  0  0
   -0.3665    5.8474   -1.9466 C   0  0  0  0  0  0  0  0  0  0  0  0
   -1.9420    4.2093   -4.4051 C   0  0  0  0  0  0  0  0  0  0  0  0
   -1.5352    5.2658   -5.1481 O   0  0  0  0  0  0  0  0  0  0  0  0
   -3.0776    3.4711   -4.7396 C   0  0  0  0  0  0  0  0  0  0  0  0
   -3.4102    2.3996   -3.9097 C   0  0  0  0  0  0  0  0  0  0  0  0
   -4.5188    1.6487   -4.1350 O   0  0  0  0  0  0  0  0  0  0  0  0
   -0.5494   -0.0123    0.9383 H   0  0  0  0  0  0  0  0  0  0  0  0
    3.7685   -0.1114    2.1405 H   0  0  0  0  0  0  0  0  0  0  0  0
    3.4320   -1.4741    0.9969 H   0  0  0  0  0  0  0  0  0  0  0  0
    5.1252    0.0867   -0.1323 H   0  0  0  0  0  0  0  0  0  0  0  0
    3.9910    1.4720    0.1331 H   0  0  0  0  0  0  0  0  0  0  0  0
    2.0113    0.0663   -3.3537 H   0  0  0  0  0  0  0  0  0  0  0  0
   -0.4881    0.0296   -3.3750 H   0  0  0  0  0  0  0  0  0  0  0  0
   -3.4592   -2.7569    0.3728 H   0  0  0  0  0  0  0  0  0  0  0  0
   -2.3681   -1.6897    1.2745 H   0  0  0  0  0  0  0  0  0  0  0  0
   -1.7617   -2.5889   -0.1314 H   0  0  0  0  0  0  0  0  0  0  0  0
   -0.9172    2.5717   -1.6120 H   0  0  0  0  0  0  0  0  0  0  0  0
    0.4764    5.2013   -3.8470 H   0  0  0  0  0  0  0  0  0  0  0  0
    0.8425    4.1216   -2.5005 H   0  0  0  0  0  0  0  0  0  0  0  0
   -1.1358    6.5000   -2.3760 H   0  0  0  0  0  0  0  0  0  0  0  0
    0.4890    6.4753   -1.6797 H   0  0  0  0  0  0  0  0  0  0  0  0
   -0.7746    5.4232   -1.0219 H   0  0  0  0  0  0  0  0  0  0  0  0
   -2.1161    5.4203   -5.9329 H   0  0  0  0  0  0  0  0  0  0  0  0
   -3.6773    3.7193   -5.6031 H   0  0  0  0  0  0  0  0  0  0  0  0
   -4.9734    1.8846   -4.9793 H   0  0  0  0  0  0  0  0  0  0  0  0
  1 28  1  0  0  0  0
  2  1  1  0  0  0  0
  2  3  1  0  0  0  0
  4  3  1  0  0  0  0
  4 29  1  0  0  0  0
  5 32  1  0  0  0  0
  5  4  1  0  0  0  0
  6  7  1  0  0  0  0
  6  5  1  0  0  0  0
  7  2  2  0  0  0  0
  8  7  1  0  0  0  0
  9  8  2  0  0  0  0
  9 10  1  0  0  0  0
 10  1  2  0  0  0  0
 11 10  1  0  0  0  0
 11 12  1  0  0  0  0
 12 13  1  0  0  0  0
 13 35  1  0  0  0  0
 13 36  1  0  0  0  0
 14 12  2  0  0  0  0
 15 14  1  0  0  0  0
 16 15  1  0  0  0  0
 17 15  1  0  0  0  0
 17 11  2  0  0  0  0
 18 19  1  0  0  0  0
 18 17  1  0  0  0  0
 19 38  1  0  0  0  0
 20 21  1  0  0  0  0
 20 19  2  0  0  0  0
 21 40  1  0  0  0  0
 21 22  1  0  0  0  0
 22 42  1  0  0  0  0
 22 43  1  0  0  0  0
 23 20  1  0  0  0  0
 24 23  1  0  0  0  0
 25 23  2  0  0  0  0
 25 26  1  0  0  0  0
 26 18  2  0  0  0  0
 27 26  1  0  0  0  0
 30  4  1  0  0  0  0
 31  5  1  0  0  0  0
 33  8  1  0  0  0  0
 34  9  1  0  0  0  0
 37 13  1  0  0  0  0
 39 21  1  0  0  0  0
 41 22  1  0  0  0  0
 44 24  1  0  0  0  0
 45 25  1  0  0  0  0
 46 27  1  0  0  0  0
M  END
$$$$
