46
rmsd199.gzmat
C          0.00000        0.00000        0.00000
C          1.39100        0.00000        0.00000
O          2.01010        0.00000        1.21990
C          3.37910       -0.39410        1.14400
C          4.07680        0.34750        0.00750
O          3.47730        0.00830       -1.24150
C          2.10990        0.03250       -1.20250
C          1.44410        0.05080       -2.42550
C          0.05290        0.04600       -2.42820
C         -0.67160        0.02400       -1.22700
C         -2.11550        0.02670       -1.26380
C         -2.99680        0.90520       -0.55080
C         -2.64580        1.96630        0.41140
N         -4.28680        0.63960       -0.88820
N         -4.25620       -0.39210       -1.76580
H         -5.09950       -0.68830       -2.21500
C         -2.95830       -0.79370       -2.04020
C         -2.64980       -1.88900       -2.92940
C         -1.56460       -2.73350       -2.65060
C         -1.21430       -3.77530       -3.49900
C         -0.07410       -4.68420       -3.17490
C         -0.57050       -5.88370       -2.36170
C         -1.97760       -3.96700       -4.66500
O         -1.57950       -4.98130       -5.46860
C         -3.07760       -3.16840       -4.97950
C         -3.39770       -2.14390       -4.08760
O         -4.47280       -1.33970       -4.28970
H         -0.54900       -0.02720        0.93830
H          3.76800       -0.12470        2.14140
H          3.41480       -1.49030        1.00700
H          5.12670        0.03690       -0.13260
H          4.02150        1.44450        0.13090
H          2.01030        0.07320       -3.35330
H         -0.48640        0.06460       -3.37530
H         -3.40380        2.76600        0.43230
H         -1.67750        2.42970        0.16580
H         -2.57270        1.56730        1.43580
H         -0.98070       -2.55770       -1.73940
H          0.71240       -4.14140       -2.61120
H          0.42100       -5.03860       -4.10440
H         -1.08200       -5.56280       -1.44680
H          0.25780       -6.53800       -2.07270
H         -1.28090       -6.48420       -2.94210
H         -2.13570       -5.05790       -6.28220
H         -3.66130       -3.33800       -5.87280
H         -4.90280       -1.49380       -5.16550
