rmsd11.gzmat
 OpenBabel08211713433D

 46 49  0  0  0  0  0  0  0  0999 V2000
    0.0000    0.0000    0.0000 C   0  0  0  0  0  0  0  0  0  0  0  0
    1.3910    0.0000    0.0000 C   0  0  0  0  0  0  0  0  0  0  0  0
    2.0079    0.0000    1.2208 O   0  0  0  0  0  0  0  0  0  0  0  0
    3.3828   -0.3731    1.1489 C   0  0  0  0  0  0  0  0  0  0  0  0
    4.0722    0.3674    0.0067 C   0  0  0  0  0  0  0  0  0  0  0  0
    3.4771    0.0102   -1.2398 O   0  0  0  0  0  0  0  0  0  0  0  0
    2.1096    0.0353   -1.2025 C   0  0  0  0  0  0  0  0  0  0  0  0
    1.4433    0.0590   -2.4254 C   0  0  0  0  0  0  0  0  0  0  0  0
    0.0521    0.0618   -2.4274 C   0  0  0  0  0  0  0  0  0  0  0  0
   -0.6719    0.0351   -1.2268 C   0  0  0  0  0  0  0  0  0  0  0  0
   -2.1156    0.0487   -1.2600 C   0  0  0  0  0  0  0  0  0  0  0  0
   -2.9812    0.9193   -0.5185 C   0  0  0  0  0  0  0  0  0  0  0  0
   -2.6080    1.9483    0.4701 C   0  0  0  0  0  0  0  0  0  0  0  0
   -4.2766    0.6760   -0.8518 N   0  0  0  0  0  0  0  0  0  0  0  0
   -4.2637   -0.3342   -1.7545 N   0  0  0  0  0  0  0  0  0  0  0  0
   -5.1139   -0.6139   -2.2005 H   0  0  0  0  0  0  0  0  0  0  0  0
   -2.9730   -0.7443   -2.0494 C   0  0  0  0  0  0  0  0  0  0  0  0
   -2.6801   -1.8222   -2.9653 C   0  0  0  0  0  0  0  0  0  0  0  0
   -1.5623   -2.6404   -2.7426 C   0  0  0  0  0  0  0  0  0  0  0  0
   -1.2148   -3.6630   -3.6162 C   0  0  0  0  0  0  0  0  0  0  0  0
   -0.0216   -4.5210   -3.3467 C   0  0  0  0  0  0  0  0  0  0  0  0
   -0.3473   -5.5676   -2.2768 C   0  0  0  0  0  0  0  0  0  0  0  0
   -2.0246   -3.8704   -4.7466 C   0  0  0  0  0  0  0  0  0  0  0  0
   -1.6420   -4.8692   -5.5772 O   0  0  0  0  0  0  0  0  0  0  0  0
   -3.1582   -3.0986   -5.0064 C   0  0  0  0  0  0  0  0  0  0  0  0
   -3.4684   -2.0890   -4.0945 C   0  0  0  0  0  0  0  0  0  0  0  0
   -4.5709   -1.3117   -4.2488 O   0  0  0  0  0  0  0  0  0  0  0  0
   -0.5479   -0.0344    0.9389 H   0  0  0  0  0  0  0  0  0  0  0  0
    3.7664   -0.0890    2.1442 H   0  0  0  0  0  0  0  0  0  0  0  0
    3.4356   -1.4699    1.0243 H   0  0  0  0  0  0  0  0  0  0  0  0
    5.1263    0.0692   -0.1303 H   0  0  0  0  0  0  0  0  0  0  0  0
    4.0027    1.4647    0.1217 H   0  0  0  0  0  0  0  0  0  0  0  0
    2.0090    0.0801   -3.3539 H   0  0  0  0  0  0  0  0  0  0  0  0
   -0.4879    0.0902   -3.3740 H   0  0  0  0  0  0  0  0  0  0  0  0
   -3.3000    2.8053    0.4509 H   0  0  0  0  0  0  0  0  0  0  0  0
   -1.5936    2.3372    0.2883 H   0  0  0  0  0  0  0  0  0  0  0  0
   -2.6302    1.5405    1.4938 H   0  0  0  0  0  0  0  0  0  0  0  0
   -0.9464   -2.4607   -1.8528 H   0  0  0  0  0  0  0  0  0  0  0  0
    0.8359   -3.8959   -3.0191 H   0  0  0  0  0  0  0  0  0  0  0  0
    0.3218   -5.0262   -4.2738 H   0  0  0  0  0  0  0  0  0  0  0  0
   -0.7159   -5.0986   -1.3569 H   0  0  0  0  0  0  0  0  0  0  0  0
    0.5358   -6.1608   -2.0196 H   0  0  0  0  0  0  0  0  0  0  0  0
   -1.1211   -6.2609   -2.6257 H   0  0  0  0  0  0  0  0  0  0  0  0
   -2.2476   -4.9664   -6.3529 H   0  0  0  0  0  0  0  0  0  0  0  0
   -3.7711   -3.2776   -5.8782 H   0  0  0  0  0  0  0  0  0  0  0  0
   -5.0529   -1.4970   -5.0910 H   0  0  0  0  0  0  0  0  0  0  0  0
  1 28  1  0  0  0  0
  2  1  1  0  0  0  0
  2  3  1  0  0  0  0
  4  3  1  0  0  0  0
  4 29  1  0  0  0  0
  5 32  1  0  0  0  0
  5  4  1  0  0  0  0
  6  7  1  0  0  0  0
  6  5  1  0  0  0  0
  7  2  2  0  0  0  0
  8  7  1  0  0  0  0
  9  8  2  0  0  0  0
  9 10  1  0  0  0  0
 10  1  2  0  0  0  0
 11 10  1  0  0  0  0
 11 12  1  0  0  0  0
 12 13  1  0  0  0  0
 13 37  1  0  0  0  0
 14 12  2  0  0  0  0
 15 14  1  0  0  0  0
 16 15  1  0  0  0  0
 17 15  1  0  0  0  0
 17 11  2  0  0  0  0
 18 19  1  0  0  0  0
 18 17  1  0  0  0  0
 19 38  1  0  0  0  0
 20 21  1  0  0  0  0
 20 19  2  0  0  0  0
 21 39  1  0  0  0  0
 21 22  1  0  0  0  0
 22 42  1  0  0  0  0
 22 41  1  0  0  0  0
 23 20  1  0  0  0  0
 24 23  1  0  0  0  0
 25 23  2  0  0  0  0
 25 26  1  0  0  0  0
 26 18  2  0  0  0  0
 27 26  1  0  0  0  0
 30  4  1  0  0  0  0
 31  5  1  0  0  0  0
 33  8  1  0  0  0  0
 34  9  1  0  0  0  0
 35 13  1  0  0  0  0
 36 13  1  0  0  0  0
 40 21  1  0  0  0  0
 43 22  1  0  0  0  0
 44 24  1  0  0  0  0
 45 25  1  0  0  0  0
 46 27  1  0  0  0  0
M  END
$$$$
