rmsd155.gzmat
 OpenBabel08211713433D

 46 49  0  0  0  0  0  0  0  0999 V2000
    0.0000    0.0000    0.0000 C   0  0  0  0  0  0  0  0  0  0  0  0
    1.3908    0.0000    0.0000 C   0  0  0  0  0  0  0  0  0  0  0  0
    2.0077    0.0000    1.2202 O   0  0  0  0  0  0  0  0  0  0  0  0
    3.3879   -0.3538    1.1473 C   0  0  0  0  0  0  0  0  0  0  0  0
    4.0648    0.3949    0.0032 C   0  0  0  0  0  0  0  0  0  0  0  0
    3.4760    0.0179   -1.2406 O   0  0  0  0  0  0  0  0  0  0  0  0
    2.1083    0.0362   -1.2036 C   0  0  0  0  0  0  0  0  0  0  0  0
    1.4422    0.0576   -2.4261 C   0  0  0  0  0  0  0  0  0  0  0  0
    0.0504    0.0537   -2.4288 C   0  0  0  0  0  0  0  0  0  0  0  0
   -0.6715    0.0296   -1.2272 C   0  0  0  0  0  0  0  0  0  0  0  0
   -2.1161    0.0341   -1.2508 C   0  0  0  0  0  0  0  0  0  0  0  0
   -2.9747    0.9751   -0.5934 C   0  0  0  0  0  0  0  0  0  0  0  0
   -2.5815    2.1076    0.2656 C   0  0  0  0  0  0  0  0  0  0  0  0
   -4.2739    0.6870   -0.8712 N   0  0  0  0  0  0  0  0  0  0  0  0
   -4.2685   -0.4165   -1.6575 N   0  0  0  0  0  0  0  0  0  0  0  0
   -5.1257   -0.7544   -2.0472 H   0  0  0  0  0  0  0  0  0  0  0  0
   -2.9797   -0.8473   -1.9311 C   0  0  0  0  0  0  0  0  0  0  0  0
   -2.6861   -2.0111   -2.7336 C   0  0  0  0  0  0  0  0  0  0  0  0
   -1.5173   -2.7469   -2.4872 C   0  0  0  0  0  0  0  0  0  0  0  0
   -1.1493   -3.8311   -3.2739 C   0  0  0  0  0  0  0  0  0  0  0  0
    0.1340   -4.5513   -3.0133 C   0  0  0  0  0  0  0  0  0  0  0  0
    1.3277   -3.6726   -3.3998 C   0  0  0  0  0  0  0  0  0  0  0  0
   -2.0060   -4.2055   -4.3234 C   0  0  0  0  0  0  0  0  0  0  0  0
   -1.6129   -5.2721   -5.0594 O   0  0  0  0  0  0  0  0  0  0  0  0
   -3.1977   -3.5303   -4.5927 C   0  0  0  0  0  0  0  0  0  0  0  0
   -3.5138   -2.4392   -3.7823 C   0  0  0  0  0  0  0  0  0  0  0  0
   -4.6620   -1.7364   -3.9628 O   0  0  0  0  0  0  0  0  0  0  0  0
   -0.5513   -0.0293    0.9373 H   0  0  0  0  0  0  0  0  0  0  0  0
    3.7684   -0.0632    2.1417 H   0  0  0  0  0  0  0  0  0  0  0  0
    3.4558   -1.4495    1.0224 H   0  0  0  0  0  0  0  0  0  0  0  0
    5.1247    0.1183   -0.1313 H   0  0  0  0  0  0  0  0  0  0  0  0
    3.9720    1.4908    0.1116 H   0  0  0  0  0  0  0  0  0  0  0  0
    2.0092    0.0863   -3.3532 H   0  0  0  0  0  0  0  0  0  0  0  0
   -0.4904    0.0767   -3.3746 H   0  0  0  0  0  0  0  0  0  0  0  0
   -3.2978    2.9420    0.2007 H   0  0  0  0  0  0  0  0  0  0  0  0
   -1.5888    2.4970   -0.0106 H   0  0  0  0  0  0  0  0  0  0  0  0
   -2.5350    1.8051    1.3243 H   0  0  0  0  0  0  0  0  0  0  0  0
   -0.8708   -2.4484   -1.6526 H   0  0  0  0  0  0  0  0  0  0  0  0
    0.1769   -5.5096   -3.5719 H   0  0  0  0  0  0  0  0  0  0  0  0
    0.2019   -4.8363   -1.9428 H   0  0  0  0  0  0  0  0  0  0  0  0
    1.3313   -3.4601   -4.4749 H   0  0  0  0  0  0  0  0  0  0  0  0
    2.2760   -4.1601   -3.1536 H   0  0  0  0  0  0  0  0  0  0  0  0
    1.3044   -2.7065   -2.8779 H   0  0  0  0  0  0  0  0  0  0  0  0
   -2.2530   -5.4901   -5.7799 H   0  0  0  0  0  0  0  0  0  0  0  0
   -3.8498   -3.8394   -5.3971 H   0  0  0  0  0  0  0  0  0  0  0  0
   -5.1670   -2.0307   -4.7585 H   0  0  0  0  0  0  0  0  0  0  0  0
  1 28  1  0  0  0  0
  2  1  1  0  0  0  0
  2  3  1  0  0  0  0
  4  3  1  0  0  0  0
  4 29  1  0  0  0  0
  5 32  1  0  0  0  0
  5  4  1  0  0  0  0
  6  7  1  0  0  0  0
  6  5  1  0  0  0  0
  7  2  2  0  0  0  0
  8  7  1  0  0  0  0
  9  8  2  0  0  0  0
  9 10  1  0  0  0  0
 10  1  2  0  0  0  0
 11 10  1  0  0  0  0
 11 12  1  0  0  0  0
 12 13  1  0  0  0  0
 13 37  1  0  0  0  0
 14 12  2  0  0  0  0
 15 14  1  0  0  0  0
 16 15  1  0  0  0  0
 17 15  1  0  0  0  0
 17 11  2  0  0  0  0
 18 19  1  0  0  0  0
 18 17  1  0  0  0  0
 19 38  1  0  0  0  0
 20 21  1  0  0  0  0
 20 19  2  0  0  0  0
 21 40  1  0  0  0  0
 22 42  1  0  0  0  0
 22 21  1  0  0  0  0
 22 43  1  0  0  0  0
 23 20  1  0  0  0  0
 24 23  1  0  0  0  0
 25 23  2  0  0  0  0
 25 26  1  0  0  0  0
 26 18  2  0  0  0  0
 27 26  1  0  0  0  0
 30  4  1  0  0  0  0
 31  5  1  0  0  0  0
 33  8  1  0  0  0  0
 34  9  1  0  0  0  0
 35 13  1  0  0  0  0
 36 13  1  0  0  0  0
 39 21  1  0  0  0  0
 41 22  1  0  0  0  0
 44 24  1  0  0  0  0
 45 25  1  0  0  0  0
 46 27  1  0  0  0  0
M  END
$$$$
