42
rmsd48.gzmat
N          0.00000        0.00000        0.00000
H          1.04310        0.00000        0.00000
H         -0.32180        0.00000       -0.98870
C         -0.50380        1.24340        0.72190
C          0.08620        1.27730        2.11920
C         -0.33050        0.02810        2.94640
C         -0.01130       -1.26090        2.15760
C         -0.50660       -1.24210        0.71900
O          0.62300        0.10780        4.00450
C          0.51940       -0.65520        5.13040
C         -0.39010       -1.68510        5.35250
C         -0.33360       -2.36990        6.56500
C          0.61980       -2.02520        7.52260
C          1.53240       -0.99430        7.28090
C          1.48760       -0.29740        6.08150
C          0.63790       -2.79460        8.81060
F          0.95910       -4.07890        8.64900
F          1.48740       -2.35020        9.73410
F         -0.54300       -2.81630        9.42970
C         -1.73440        0.18350        3.46280
C         -2.80200       -0.59660        3.02050
C         -4.07820       -0.39520        3.54340
C         -4.29240        0.57690        4.51840
C         -3.22570        1.35130        4.97110
C         -1.95250        1.15620        4.44400
H         -0.21470        2.14860        0.13680
H         -1.62100        1.22010        0.75950
H          1.19500        1.36210        2.11340
H         -0.24210        2.19990        2.65450
H         -0.43430       -2.14480        2.69100
H          1.08820       -1.43600        2.20810
H         -1.62360       -1.24840        0.67400
H         -0.15500       -2.14810        0.16820
H         -1.15030       -1.94860        4.62620
H         -1.04850       -3.17900        6.75130
H          2.28970       -0.72030        8.02370
H          2.18340        0.51280        5.87090
H         -2.65990       -1.38500        2.28800
H         -4.91030       -1.00920        3.19500
H         -5.29220        0.72630        4.93330
H         -3.38420        2.10590        5.74530
H         -1.11600        1.75180        4.81770
