rmsd48.gzmat
 OpenBabel08211713363D

 42 44  0  0  0  0  0  0  0  0999 V2000
    0.0000    0.0000    0.0000 N   0  0  0  0  0  0  0  0  0  0  0  0
    1.0431    0.0000    0.0000 H   0  0  0  0  0  0  0  0  0  0  0  0
   -0.3218    0.0000   -0.9887 H   0  0  0  0  0  0  0  0  0  0  0  0
   -0.5038    1.2434    0.7219 C   0  0  0  0  0  0  0  0  0  0  0  0
    0.0862    1.2773    2.1192 C   0  0  0  0  0  0  0  0  0  0  0  0
   -0.3305    0.0281    2.9464 C   0  0  0  0  0  0  0  0  0  0  0  0
   -0.0113   -1.2609    2.1576 C   0  0  0  0  0  0  0  0  0  0  0  0
   -0.5066   -1.2421    0.7190 C   0  0  0  0  0  0  0  0  0  0  0  0
    0.6230    0.1078    4.0045 O   0  0  0  0  0  0  0  0  0  0  0  0
    0.5194   -0.6552    5.1304 C   0  0  0  0  0  0  0  0  0  0  0  0
   -0.3901   -1.6851    5.3525 C   0  0  0  0  0  0  0  0  0  0  0  0
   -0.3336   -2.3699    6.5650 C   0  0  0  0  0  0  0  0  0  0  0  0
    0.6198   -2.0252    7.5226 C   0  0  0  0  0  0  0  0  0  0  0  0
    1.5324   -0.9943    7.2809 C   0  0  0  0  0  0  0  0  0  0  0  0
    1.4876   -0.2974    6.0815 C   0  0  0  0  0  0  0  0  0  0  0  0
    0.6379   -2.7946    8.8106 C   0  0  0  0  0  0  0  0  0  0  0  0
    0.9591   -4.0789    8.6490 F   0  0  0  0  0  0  0  0  0  0  0  0
    1.4874   -2.3502    9.7341 F   0  0  0  0  0  0  0  0  0  0  0  0
   -0.5430   -2.8163    9.4297 F   0  0  0  0  0  0  0  0  0  0  0  0
   -1.7344    0.1835    3.4628 C   0  0  0  0  0  0  0  0  0  0  0  0
   -2.8020   -0.5966    3.0205 C   0  0  0  0  0  0  0  0  0  0  0  0
   -4.0782   -0.3952    3.5434 C   0  0  0  0  0  0  0  0  0  0  0  0
   -4.2924    0.5769    4.5184 C   0  0  0  0  0  0  0  0  0  0  0  0
   -3.2257    1.3513    4.9711 C   0  0  0  0  0  0  0  0  0  0  0  0
   -1.9525    1.1562    4.4440 C   0  0  0  0  0  0  0  0  0  0  0  0
   -0.2147    2.1486    0.1368 H   0  0  0  0  0  0  0  0  0  0  0  0
   -1.6210    1.2201    0.7595 H   0  0  0  0  0  0  0  0  0  0  0  0
    1.1950    1.3621    2.1134 H   0  0  0  0  0  0  0  0  0  0  0  0
   -0.2421    2.1999    2.6545 H   0  0  0  0  0  0  0  0  0  0  0  0
   -0.4343   -2.1448    2.6910 H   0  0  0  0  0  0  0  0  0  0  0  0
    1.0882   -1.4360    2.2081 H   0  0  0  0  0  0  0  0  0  0  0  0
   -1.6236   -1.2484    0.6740 H   0  0  0  0  0  0  0  0  0  0  0  0
   -0.1550   -2.1481    0.1682 H   0  0  0  0  0  0  0  0  0  0  0  0
   -1.1503   -1.9486    4.6262 H   0  0  0  0  0  0  0  0  0  0  0  0
   -1.0485   -3.1790    6.7513 H   0  0  0  0  0  0  0  0  0  0  0  0
    2.2897   -0.7203    8.0237 H   0  0  0  0  0  0  0  0  0  0  0  0
    2.1834    0.5128    5.8709 H   0  0  0  0  0  0  0  0  0  0  0  0
   -2.6599   -1.3850    2.2880 H   0  0  0  0  0  0  0  0  0  0  0  0
   -4.9103   -1.0092    3.1950 H   0  0  0  0  0  0  0  0  0  0  0  0
   -5.2922    0.7263    4.9333 H   0  0  0  0  0  0  0  0  0  0  0  0
   -3.3842    2.1059    5.7453 H   0  0  0  0  0  0  0  0  0  0  0  0
   -1.1160    1.7518    4.8177 H   0  0  0  0  0  0  0  0  0  0  0  0
  1  8  1  0  0  0  0
  1  4  1  0  0  0  0
  2  1  1  0  0  0  0
  3  1  1  0  0  0  0
  4 27  1  0  0  0  0
  4  5  1  0  0  0  0
  5 29  1  0  0  0  0
  5  6  1  0  0  0  0
  6 20  1  0  0  0  0
  6  9  1  0  0  0  0
  7 31  1  0  0  0  0
  7 30  1  0  0  0  0
  7  6  1  0  0  0  0
  8  7  1  0  0  0  0
  9 10  1  0  0  0  0
 10 11  2  0  0  0  0
 10 15  1  0  0  0  0
 11 12  1  0  0  0  0
 12 35  1  0  0  0  0
 12 13  2  0  0  0  0
 13 16  1  0  0  0  0
 14 13  1  0  0  0  0
 14 36  1  0  0  0  0
 15 14  2  0  0  0  0
 16 19  1  0  0  0  0
 16 18  1  0  0  0  0
 17 16  1  0  0  0  0
 20 25  1  0  0  0  0
 21 20  2  0  0  0  0
 21 22  1  0  0  0  0
 22 23  2  0  0  0  0
 23 40  1  0  0  0  0
 23 24  1  0  0  0  0
 24 41  1  0  0  0  0
 25 42  1  0  0  0  0
 25 24  2  0  0  0  0
 26  4  1  0  0  0  0
 28  5  1  0  0  0  0
 32  8  1  0  0  0  0
 33  8  1  0  0  0  0
 34 11  1  0  0  0  0
 37 15  1  0  0  0  0
 38 21  1  0  0  0  0
 39 22  1  0  0  0  0
M  END
$$$$
