rmsd68.gzmat
 OpenBabel08211713363D

 42 44  0  0  0  0  0  0  0  0999 V2000
    0.0000    0.0000    0.0000 N   0  0  0  0  0  0  0  0  0  0  0  0
    1.0434    0.0000    0.0000 H   0  0  0  0  0  0  0  0  0  0  0  0
   -0.3221    0.0000   -0.9884 H   0  0  0  0  0  0  0  0  0  0  0  0
   -0.5030    1.2430    0.7228 C   0  0  0  0  0  0  0  0  0  0  0  0
    0.0998    1.2824    2.1140 C   0  0  0  0  0  0  0  0  0  0  0  0
   -0.2976    0.0312    2.9472 C   0  0  0  0  0  0  0  0  0  0  0  0
   -0.0073   -1.2633    2.1567 C   0  0  0  0  0  0  0  0  0  0  0  0
   -0.5060   -1.2415    0.7195 C   0  0  0  0  0  0  0  0  0  0  0  0
    0.6785    0.1147    3.9839 O   0  0  0  0  0  0  0  0  0  0  0  0
    0.6964   -0.7583    5.0317 C   0  0  0  0  0  0  0  0  0  0  0  0
    1.8290   -0.5621    5.8380 C   0  0  0  0  0  0  0  0  0  0  0  0
    2.0035   -1.3737    6.9500 C   0  0  0  0  0  0  0  0  0  0  0  0
    1.0616   -2.3643    7.2450 C   0  0  0  0  0  0  0  0  0  0  0  0
   -0.0672   -2.5329    6.4440 C   0  0  0  0  0  0  0  0  0  0  0  0
   -0.2574   -1.7298    5.3204 C   0  0  0  0  0  0  0  0  0  0  0  0
    1.2284   -3.2559    8.4401 C   0  0  0  0  0  0  0  0  0  0  0  0
    0.3822   -2.9714    9.4298 F   0  0  0  0  0  0  0  0  0  0  0  0
    1.0182   -4.5459    8.1748 F   0  0  0  0  0  0  0  0  0  0  0  0
    2.4328   -3.2295    9.0067 F   0  0  0  0  0  0  0  0  0  0  0  0
   -1.6879    0.1935    3.4976 C   0  0  0  0  0  0  0  0  0  0  0  0
   -2.7811   -0.5346    3.0297 C   0  0  0  0  0  0  0  0  0  0  0  0
   -4.0454   -0.3254    3.5780 C   0  0  0  0  0  0  0  0  0  0  0  0
   -4.2222    0.6043    4.6008 C   0  0  0  0  0  0  0  0  0  0  0  0
   -3.1299    1.3270    5.0775 C   0  0  0  0  0  0  0  0  0  0  0  0
   -1.8677    1.1233    4.5269 C   0  0  0  0  0  0  0  0  0  0  0  0
   -0.2229    2.1478    0.1326 H   0  0  0  0  0  0  0  0  0  0  0  0
   -1.6199    1.2155    0.7714 H   0  0  0  0  0  0  0  0  0  0  0  0
    1.2077    1.3783    2.0974 H   0  0  0  0  0  0  0  0  0  0  0  0
   -0.2332    2.2021    2.6525 H   0  0  0  0  0  0  0  0  0  0  0  0
   -0.4500   -2.1367    2.6931 H   0  0  0  0  0  0  0  0  0  0  0  0
    1.0884   -1.4626    2.2038 H   0  0  0  0  0  0  0  0  0  0  0  0
   -1.6231   -1.2477    0.6777 H   0  0  0  0  0  0  0  0  0  0  0  0
   -0.1570   -2.1479    0.1670 H   0  0  0  0  0  0  0  0  0  0  0  0
    2.5460    0.2177    5.5875 H   0  0  0  0  0  0  0  0  0  0  0  0
    2.8840   -1.2199    7.5841 H   0  0  0  0  0  0  0  0  0  0  0  0
   -0.8198   -3.2912    6.6871 H   0  0  0  0  0  0  0  0  0  0  0  0
   -1.1519   -1.8552    4.7193 H   0  0  0  0  0  0  0  0  0  0  0  0
   -2.6693   -1.2874    2.2553 H   0  0  0  0  0  0  0  0  0  0  0  0
   -4.8975   -0.8996    3.2104 H   0  0  0  0  0  0  0  0  0  0  0  0
   -5.2132    0.7598    5.0338 H   0  0  0  0  0  0  0  0  0  0  0  0
   -3.2604    2.0488    5.8879 H   0  0  0  0  0  0  0  0  0  0  0  0
   -1.0109    1.6785    4.9172 H   0  0  0  0  0  0  0  0  0  0  0  0
  1  8  1  0  0  0  0
  1  4  1  0  0  0  0
  2  1  1  0  0  0  0
  3  1  1  0  0  0  0
  4 27  1  0  0  0  0
  4  5  1  0  0  0  0
  5 29  1  0  0  0  0
  5  6  1  0  0  0  0
  6 20  1  0  0  0  0
  6  9  1  0  0  0  0
  7 31  1  0  0  0  0
  7 30  1  0  0  0  0
  7  6  1  0  0  0  0
  8  7  1  0  0  0  0
  9 10  1  0  0  0  0
 10 15  2  0  0  0  0
 10 11  1  0  0  0  0
 11 12  2  0  0  0  0
 12 13  1  0  0  0  0
 12 35  1  0  0  0  0
 13 16  1  0  0  0  0
 14 36  1  0  0  0  0
 14 13  2  0  0  0  0
 15 14  1  0  0  0  0
 16 19  1  0  0  0  0
 16 17  1  0  0  0  0
 18 16  1  0  0  0  0
 20 25  1  0  0  0  0
 21 20  2  0  0  0  0
 21 22  1  0  0  0  0
 22 23  2  0  0  0  0
 23 40  1  0  0  0  0
 23 24  1  0  0  0  0
 24 41  1  0  0  0  0
 25 42  1  0  0  0  0
 25 24  2  0  0  0  0
 26  4  1  0  0  0  0
 28  5  1  0  0  0  0
 32  8  1  0  0  0  0
 33  8  1  0  0  0  0
 34 11  1  0  0  0  0
 37 15  1  0  0  0  0
 38 21  1  0  0  0  0
 39 22  1  0  0  0  0
M  END
$$$$
