rmsd52.gzmat
 OpenBabel08211713363D

 42 44  0  0  0  0  0  0  0  0999 V2000
    0.0000    0.0000    0.0000 N   0  0  0  0  0  0  0  0  0  0  0  0
    1.0432    0.0000    0.0000 H   0  0  0  0  0  0  0  0  0  0  0  0
   -0.3214    0.0000   -0.9885 H   0  0  0  0  0  0  0  0  0  0  0  0
   -0.5066    1.2423    0.7190 C   0  0  0  0  0  0  0  0  0  0  0  0
   -0.0148    1.2604    2.1585 C   0  0  0  0  0  0  0  0  0  0  0  0
   -0.3322   -0.0307    2.9440 C   0  0  0  0  0  0  0  0  0  0  0  0
    0.0922   -1.2773    2.1167 C   0  0  0  0  0  0  0  0  0  0  0  0
   -0.5028   -1.2432    0.7222 C   0  0  0  0  0  0  0  0  0  0  0  0
    0.6082   -0.1202    4.0122 O   0  0  0  0  0  0  0  0  0  0  0  0
    0.6122    0.7683    5.0467 C   0  0  0  0  0  0  0  0  0  0  0  0
   -0.3389    1.7505    5.3030 C   0  0  0  0  0  0  0  0  0  0  0  0
   -0.1633    2.5772    6.4135 C   0  0  0  0  0  0  0  0  0  0  0  0
    0.9455    2.4111    7.2381 C   0  0  0  0  0  0  0  0  0  0  0  0
    1.8911    1.4133    6.9703 C   0  0  0  0  0  0  0  0  0  0  0  0
    1.7314    0.5804    5.8740 C   0  0  0  0  0  0  0  0  0  0  0  0
    1.1684    3.3053    8.4220 C   0  0  0  0  0  0  0  0  0  0  0  0
    1.5007    2.6518    9.5350 F   0  0  0  0  0  0  0  0  0  0  0  0
    2.1573    4.1801    8.2333 F   0  0  0  0  0  0  0  0  0  0  0  0
    0.1244    4.0512    8.7771 F   0  0  0  0  0  0  0  0  0  0  0  0
   -1.7383   -0.1888    3.4544 C   0  0  0  0  0  0  0  0  0  0  0  0
   -2.7990    0.6119    3.0314 C   0  0  0  0  0  0  0  0  0  0  0  0
   -4.0755    0.4125    3.5536 C   0  0  0  0  0  0  0  0  0  0  0  0
   -4.2988   -0.5840    4.5020 C   0  0  0  0  0  0  0  0  0  0  0  0
   -3.2403   -1.3817    4.9318 C   0  0  0  0  0  0  0  0  0  0  0  0
   -1.9642   -1.1828    4.4122 C   0  0  0  0  0  0  0  0  0  0  0  0
   -0.1526    2.1481    0.1691 H   0  0  0  0  0  0  0  0  0  0  0  0
   -1.6233    1.2508    0.6722 H   0  0  0  0  0  0  0  0  0  0  0  0
    1.0831    1.4423    2.2123 H   0  0  0  0  0  0  0  0  0  0  0  0
   -0.4453    2.1412    2.6919 H   0  0  0  0  0  0  0  0  0  0  0  0
   -0.2280   -2.2029    2.6519 H   0  0  0  0  0  0  0  0  0  0  0  0
    1.2013   -1.3551    2.1081 H   0  0  0  0  0  0  0  0  0  0  0  0
   -1.6200   -1.2185    0.7660 H   0  0  0  0  0  0  0  0  0  0  0  0
   -0.2183   -2.1477    0.1341 H   0  0  0  0  0  0  0  0  0  0  0  0
   -1.2234    1.8699    4.6871 H   0  0  0  0  0  0  0  0  0  0  0  0
   -0.9137    3.3488    6.6140 H   0  0  0  0  0  0  0  0  0  0  0  0
    2.7645    1.2836    7.6198 H   0  0  0  0  0  0  0  0  0  0  0  0
    2.4485   -0.2072    5.6496 H   0  0  0  0  0  0  0  0  0  0  0  0
   -2.6504    1.4152    2.3162 H   0  0  0  0  0  0  0  0  0  0  0  0
   -4.9012    1.0458    3.2251 H   0  0  0  0  0  0  0  0  0  0  0  0
   -5.3003   -0.7335    4.9124 H   0  0  0  0  0  0  0  0  0  0  0  0
   -3.4080   -2.1592    5.6811 H   0  0  0  0  0  0  0  0  0  0  0  0
   -1.1328   -1.7937    4.7720 H   0  0  0  0  0  0  0  0  0  0  0  0
  1  4  1  0  0  0  0
  1  8  1  0  0  0  0
  2  1  1  0  0  0  0
  3  1  1  0  0  0  0
  4  5  1  0  0  0  0
  5 28  1  0  0  0  0
  5 29  1  0  0  0  0
  5  6  1  0  0  0  0
  6 20  1  0  0  0  0
  6  9  1  0  0  0  0
  7 30  1  0  0  0  0
  7  6  1  0  0  0  0
  8 32  1  0  0  0  0
  8  7  1  0  0  0  0
  9 10  1  0  0  0  0
 10 11  2  0  0  0  0
 10 15  1  0  0  0  0
 11 12  1  0  0  0  0
 12 35  1  0  0  0  0
 12 13  2  0  0  0  0
 13 16  1  0  0  0  0
 14 13  1  0  0  0  0
 14 36  1  0  0  0  0
 15 14  2  0  0  0  0
 16 19  1  0  0  0  0
 16 17  1  0  0  0  0
 18 16  1  0  0  0  0
 20 25  1  0  0  0  0
 21 20  2  0  0  0  0
 21 22  1  0  0  0  0
 22 23  2  0  0  0  0
 23 40  1  0  0  0  0
 23 24  1  0  0  0  0
 24 41  1  0  0  0  0
 25 42  1  0  0  0  0
 25 24  2  0  0  0  0
 26  4  1  0  0  0  0
 27  4  1  0  0  0  0
 31  7  1  0  0  0  0
 33  8  1  0  0  0  0
 34 11  1  0  0  0  0
 37 15  1  0  0  0  0
 38 21  1  0  0  0  0
 39 22  1  0  0  0  0
M  END
$$$$
