42
rmsd10.gzmat
N          0.00000        0.00000        0.00000
H          1.04320        0.00000        0.00000
H         -0.32200        0.00000       -0.98860
C         -0.50350        1.24370        0.72120
C          0.07450        1.27280        2.12330
C         -0.35860        0.02290        2.94310
C         -0.01220       -1.26050        2.15780
C         -0.50600       -1.24300        0.71840
O          0.55500        0.12390        4.03220
C          0.54590       -0.75970        5.07070
C          1.63160       -0.54280        5.93450
C          1.78130       -1.37250        7.03620
C          0.86280       -2.40250        7.26550
C         -0.22680       -2.58300        6.41590
C         -0.39140       -1.76130        5.30170
C          1.02850       -3.30950        8.44940
F          0.31440       -2.92930        9.50850
F          0.65740       -4.57010        8.22440
F          2.27710       -3.41500        8.90120
C         -1.78010        0.16850        3.41410
C         -2.81420       -0.66620        2.99030
C         -4.11250       -0.46290        3.45500
C         -4.38430        0.57110        4.34870
C         -3.35090        1.39650        4.78790
C         -2.05300        1.19220        4.32710
H         -0.20530        2.14880        0.14030
H         -1.62120        1.22530        0.75060
H          1.18360        1.35160        2.12870
H         -0.25400        2.19670        2.65620
H         -0.42400       -2.15210        2.68780
H          1.08890       -1.42000        2.21030
H         -1.62290       -1.25020        0.67350
H         -0.15370       -2.14810        0.16680
H          2.33320        0.26550        5.73590
H          2.62350       -1.20470        7.71700
H         -0.97090       -3.36280        6.60980
H         -1.25700       -1.89780        4.66280
H         -2.62920       -1.49990        2.31920
H         -4.91660       -1.12260        3.12440
H         -5.40340        0.72780        4.71080
H         -3.55670        2.20050        5.49850
H         -1.24220        1.82350        4.69830
