39
rmsd166.gzmat
N          0.00000        0.00000        0.00000
C          1.33950        0.00000        0.00000
N          2.16170        0.00000        1.08670
C          1.50510       -0.04320        2.27870
C          0.07320       -0.04360        2.39820
C         -0.68570       -0.02440        1.19550
N         -2.02980       -0.01730        1.16000
N         -0.28300       -0.07830        3.74230
C          0.84790       -0.10580        4.43570
N          1.98700       -0.09770        3.57610
C          3.37220       -0.02420        4.01580
C          3.72660        1.37780        4.53000
C          4.17230        2.30040        3.41850
O          5.33810        2.58750        3.23040
N          3.17210        2.87390        2.65450
C          3.52230        3.80000        1.58000
C          3.80910        3.07760        0.23880
C          4.98080        2.19250        0.36910
N          4.85090        0.82590        0.63980
H          3.93000        0.34690        0.79180
C          6.09410        0.27450        0.76480
N          7.01860        1.26620        0.56110
H          8.01930        1.16260        0.61550
C          6.34830        2.46230        0.31100
H          1.83100        0.00540       -0.99100
H         -2.52670        0.00150        0.28410
H         -2.56060       -0.04660        2.01790
H          0.94350       -0.15630        5.51400
H          4.04860       -0.32710        3.18460
H          3.52520       -0.77950        4.83160
H          4.55650        1.30960        5.27450
H          2.88030        1.82600        5.09450
H          2.24010        2.49040        2.65710
H          4.41700        4.40020        1.88720
H          2.68340        4.52390        1.44630
H          3.97770        3.84150       -0.55570
H          2.90360        2.51810       -0.08990
H          6.30890       -0.77020        0.97340
H          6.85750        3.39830        0.14180
