39
rmsd187.gzmat
N          0.00000        0.00000        0.00000
C          1.36190        0.00000        0.00000
N          2.16060        0.00000        1.08300
C          1.49980        0.02890        2.26960
C          0.06390        0.01240        2.38650
C         -0.67130        0.01910        1.17620
N         -2.05430       -0.08350        1.14800
N         -0.28890        0.00010        3.73290
C          0.85340        0.02740        4.42050
N          1.98170        0.05000        3.56790
C          3.37770       -0.00810        3.99440
C          4.18560       -1.02280        3.17210
C          3.52360       -2.37410        3.19650
O          2.81270       -2.74280        4.12730
N          3.75120       -3.20510        2.12910
C          3.19960       -4.55940        2.09510
C          1.93250       -4.65820        1.22030
C          0.74650       -3.95480        1.74590
N          0.56900       -3.58960        3.08660
H          1.33410       -3.61150        3.79440
C         -0.63350       -2.95230        3.21800
N         -1.24050       -2.93350        1.99100
H         -2.07230       -2.39880        1.75270
C         -0.39740       -3.54550        1.06280
H          1.84970        0.00710       -0.99490
H         -2.50170        0.11240        0.25620
H         -2.54020        0.30890        1.94870
H          0.94160        0.04670        5.50180
H          3.40750       -0.28430        5.07980
H          3.83110        1.01270        3.88500
H          5.21870       -1.10310        3.58600
H          4.31160       -0.64330        2.12740
H          4.26770       -2.89750        1.31460
H          2.99860       -4.92060        3.13320
H          3.98110       -5.24980        1.68530
H          1.68700       -5.74250        1.07640
H          2.16310       -4.28520        0.19220
H         -1.04380       -2.53220        4.14100
H         -0.65770       -3.64200        0.01840
