rmsd233.gzmat
 OpenBabel08211713363D

 39 41  0  0  0  0  0  0  0  0999 V2000
    0.0000    0.0000    0.0000 N   0  0  0  0  0  0  0  0  0  0  0  0
    1.3449    0.0000    0.0000 C   0  0  0  0  0  0  0  0  0  0  0  0
    2.1574    0.0000    1.0873 N   0  0  0  0  0  0  0  0  0  0  0  0
    1.4950    0.0208    2.2743 C   0  0  0  0  0  0  0  0  0  0  0  0
    0.0662    0.0050    2.4001 C   0  0  0  0  0  0  0  0  0  0  0  0
   -0.6846   -0.0004    1.1929 C   0  0  0  0  0  0  0  0  0  0  0  0
   -2.0328   -0.0089    1.1520 N   0  0  0  0  0  0  0  0  0  0  0  0
   -0.2822    0.0065    3.7479 N   0  0  0  0  0  0  0  0  0  0  0  0
    0.8532    0.0271    4.4345 C   0  0  0  0  0  0  0  0  0  0  0  0
    1.9871    0.0418    3.5700 N   0  0  0  0  0  0  0  0  0  0  0  0
    3.3828    0.1226    3.9661 C   0  0  0  0  0  0  0  0  0  0  0  0
    4.1092   -1.2223    3.7700 C   0  0  0  0  0  0  0  0  0  0  0  0
    5.2362   -1.1454    2.7704 C   0  0  0  0  0  0  0  0  0  0  0  0
    6.3715   -1.5065    3.1183 O   0  0  0  0  0  0  0  0  0  0  0  0
    4.9760   -0.6733    1.5261 N   0  0  0  0  0  0  0  0  0  0  0  0
    6.0194   -0.3884    0.5417 C   0  0  0  0  0  0  0  0  0  0  0  0
    6.3163   -1.5989   -0.3755 C   0  0  0  0  0  0  0  0  0  0  0  0
    7.5308   -2.3420    0.0129 C   0  0  0  0  0  0  0  0  0  0  0  0
    7.9062   -2.5149    1.3464 N   0  0  0  0  0  0  0  0  0  0  0  0
    7.3424   -2.0806    2.1870 H   0  0  0  0  0  0  0  0  0  0  0  0
    9.0513   -3.2462    1.3971 C   0  0  0  0  0  0  0  0  0  0  0  0
    9.4171   -3.5553    0.1080 N   0  0  0  0  0  0  0  0  0  0  0  0
   10.2250   -4.0917   -0.1678 H   0  0  0  0  0  0  0  0  0  0  0  0
    8.4837   -2.9985   -0.7663 C   0  0  0  0  0  0  0  0  0  0  0  0
    1.8366   -0.0015   -0.9896 H   0  0  0  0  0  0  0  0  0  0  0  0
   -2.5215   -0.0143    0.2723 H   0  0  0  0  0  0  0  0  0  0  0  0
   -2.5654   -0.0121    2.0063 H   0  0  0  0  0  0  0  0  0  0  0  0
    0.9531    0.0373    5.5105 H   0  0  0  0  0  0  0  0  0  0  0  0
    3.4369    0.4336    5.0395 H   0  0  0  0  0  0  0  0  0  0  0  0
    3.8829    0.9396    3.3865 H   0  0  0  0  0  0  0  0  0  0  0  0
    3.3941   -2.0223    3.4680 H   0  0  0  0  0  0  0  0  0  0  0  0
    4.5262   -1.5783    4.7437 H   0  0  0  0  0  0  0  0  0  0  0  0
    4.0013   -0.4198    1.2510 H   0  0  0  0  0  0  0  0  0  0  0  0
    6.9466   -0.0314    1.0473 H   0  0  0  0  0  0  0  0  0  0  0  0
    5.6675    0.4711   -0.0857 H   0  0  0  0  0  0  0  0  0  0  0  0
    6.4037   -1.2464   -1.4305 H   0  0  0  0  0  0  0  0  0  0  0  0
    5.4321   -2.2858   -0.3884 H   0  0  0  0  0  0  0  0  0  0  0  0
    9.5841   -3.5385    2.3004 H   0  0  0  0  0  0  0  0  0  0  0  0
    8.5550   -3.0999   -1.8377 H   0  0  0  0  0  0  0  0  0  0  0  0
  1  2  2  0  0  0  0
  1  6  2  0  0  0  0
  2  3  2  0  0  0  0
  3  4  2  0  0  0  0
  4  5  1  0  0  0  0
  4 10  1  0  0  0  0
  5  8  2  0  0  0  0
  6  5  1  0  0  0  0
  7  6  1  0  0  0  0
  7 27  1  0  0  0  0
  8  9  2  0  0  0  0
  9 28  1  0  0  0  0
 10 11  1  0  0  0  0
 10  9  1  0  0  0  0
 11 29  1  0  0  0  0
 12 11  1  0  0  0  0
 12 32  1  0  0  0  0
 13 14  2  0  0  0  0
 13 12  1  0  0  0  0
 15 13  1  0  0  0  0
 16 34  1  0  0  0  0
 16 15  1  0  0  0  0
 17 18  1  0  0  0  0
 17 16  1  0  0  0  0
 18 19  1  0  0  0  0
 19 21  1  0  0  0  0
 19 20  1  0  0  0  0
 21 38  1  0  0  0  0
 22 21  1  0  0  0  0
 23 22  1  0  0  0  0
 24 18  2  0  0  0  0
 24 22  1  0  0  0  0
 25  2  1  0  0  0  0
 26  7  1  0  0  0  0
 30 11  1  0  0  0  0
 31 12  1  0  0  0  0
 33 15  1  0  0  0  0
 35 16  1  0  0  0  0
 36 17  1  0  0  0  0
 37 17  1  0  0  0  0
 39 24  1  0  0  0  0
M  END
$$$$
