rmsd181.gzmat
 OpenBabel08211713363D

 39 41  0  0  0  0  0  0  0  0999 V2000
    0.0000    0.0000    0.0000 N   0  0  0  0  0  0  0  0  0  0  0  0
    1.3516    0.0000    0.0000 C   0  0  0  0  0  0  0  0  0  0  0  0
    2.1620    0.0000    1.0822 N   0  0  0  0  0  0  0  0  0  0  0  0
    1.5023   -0.0503    2.2708 C   0  0  0  0  0  0  0  0  0  0  0  0
    0.0708   -0.0172    2.3984 C   0  0  0  0  0  0  0  0  0  0  0  0
   -0.6776   -0.0301    1.1895 C   0  0  0  0  0  0  0  0  0  0  0  0
   -2.0317   -0.0294    1.1524 N   0  0  0  0  0  0  0  0  0  0  0  0
   -0.2753   -0.0198    3.7449 N   0  0  0  0  0  0  0  0  0  0  0  0
    0.8668   -0.0746    4.4259 C   0  0  0  0  0  0  0  0  0  0  0  0
    1.9939   -0.0842    3.5653 N   0  0  0  0  0  0  0  0  0  0  0  0
    3.3903   -0.1445    3.9871 C   0  0  0  0  0  0  0  0  0  0  0  0
    4.2666    0.8660    3.2271 C   0  0  0  0  0  0  0  0  0  0  0  0
    3.5587    2.1931    3.1497 C   0  0  0  0  0  0  0  0  0  0  0  0
    3.2858    2.8361    4.1663 O   0  0  0  0  0  0  0  0  0  0  0  0
    3.2452    2.6580    1.9030 N   0  0  0  0  0  0  0  0  0  0  0  0
    2.5168    3.9061    1.6812 C   0  0  0  0  0  0  0  0  0  0  0  0
    0.9913    3.6848    1.5600 C   0  0  0  0  0  0  0  0  0  0  0  0
    0.2452    3.8056    2.8274 C   0  0  0  0  0  0  0  0  0  0  0  0
    0.8421    3.7094    4.0864 N   0  0  0  0  0  0  0  0  0  0  0  0
    1.8823    3.4966    4.2372 H   0  0  0  0  0  0  0  0  0  0  0  0
   -0.1189    3.8166    5.0473 C   0  0  0  0  0  0  0  0  0  0  0  0
   -1.3267    3.9987    4.4213 N   0  0  0  0  0  0  0  0  0  0  0  0
   -2.2197    4.1023    4.8785 H   0  0  0  0  0  0  0  0  0  0  0  0
   -1.1211    4.0001    3.0424 C   0  0  0  0  0  0  0  0  0  0  0  0
    1.8409    0.0075   -0.9940 H   0  0  0  0  0  0  0  0  0  0  0  0
   -2.5133   -0.1150    0.2710 H   0  0  0  0  0  0  0  0  0  0  0  0
   -2.5532   -0.1719    1.9994 H   0  0  0  0  0  0  0  0  0  0  0  0
    0.9674   -0.1289    5.5011 H   0  0  0  0  0  0  0  0  0  0  0  0
    3.7786   -1.1829    3.8131 H   0  0  0  0  0  0  0  0  0  0  0  0
    3.4417    0.0530    5.0859 H   0  0  0  0  0  0  0  0  0  0  0  0
    4.5225    0.4640    2.2171 H   0  0  0  0  0  0  0  0  0  0  0  0
    5.2409    0.9952    3.7537 H   0  0  0  0  0  0  0  0  0  0  0  0
    3.3044    2.0223    1.1018 H   0  0  0  0  0  0  0  0  0  0  0  0
    2.9012    4.3569    0.7295 H   0  0  0  0  0  0  0  0  0  0  0  0
    2.7603    4.6468    2.4783 H   0  0  0  0  0  0  0  0  0  0  0  0
    0.7937    2.6789    1.1077 H   0  0  0  0  0  0  0  0  0  0  0  0
    0.5806    4.4009    0.8059 H   0  0  0  0  0  0  0  0  0  0  0  0
    0.0470    3.7783    6.1223 H   0  0  0  0  0  0  0  0  0  0  0  0
   -1.9250    4.1320    2.3344 H   0  0  0  0  0  0  0  0  0  0  0  0
  1  6  2  0  0  0  0
  2  1  2  0  0  0  0
  2  3  2  0  0  0  0
  3  4  2  0  0  0  0
  4  5  1  0  0  0  0
  4 10  1  0  0  0  0
  5  8  2  0  0  0  0
  6  5  1  0  0  0  0
  7  6  1  0  0  0  0
  7 27  1  0  0  0  0
  8  9  2  0  0  0  0
  9 28  1  0  0  0  0
 10 11  1  0  0  0  0
 10  9  1  0  0  0  0
 11 30  1  0  0  0  0
 12 32  1  0  0  0  0
 12 11  1  0  0  0  0
 13 12  1  0  0  0  0
 13 14  2  0  0  0  0
 15 13  1  0  0  0  0
 16 15  1  0  0  0  0
 16 35  1  0  0  0  0
 17 16  1  0  0  0  0
 17 18  1  0  0  0  0
 18 24  2  0  0  0  0
 18 19  1  0  0  0  0
 19 20  1  0  0  0  0
 19 21  1  0  0  0  0
 21 38  1  0  0  0  0
 22 23  1  0  0  0  0
 22 21  1  0  0  0  0
 24 22  1  0  0  0  0
 25  2  1  0  0  0  0
 26  7  1  0  0  0  0
 29 11  1  0  0  0  0
 31 12  1  0  0  0  0
 33 15  1  0  0  0  0
 34 16  1  0  0  0  0
 36 17  1  0  0  0  0
 37 17  1  0  0  0  0
 39 24  1  0  0  0  0
M  END
$$$$
