rmsd29.gzmat
 OpenBabel08211713363D

 39 41  0  0  0  0  0  0  0  0999 V2000
    0.0000    0.0000    0.0000 N   0  0  0  0  0  0  0  0  0  0  0  0
    1.3541    0.0000    0.0000 C   0  0  0  0  0  0  0  0  0  0  0  0
    2.1596    0.0000    1.0831 N   0  0  0  0  0  0  0  0  0  0  0  0
    1.4966    0.0496    2.2689 C   0  0  0  0  0  0  0  0  0  0  0  0
    0.0637    0.0315    2.3949 C   0  0  0  0  0  0  0  0  0  0  0  0
   -0.6792    0.0314    1.1835 C   0  0  0  0  0  0  0  0  0  0  0  0
   -2.0410   -0.0109    1.1374 N   0  0  0  0  0  0  0  0  0  0  0  0
   -0.2817    0.0391    3.7432 N   0  0  0  0  0  0  0  0  0  0  0  0
    0.8635    0.0783    4.4244 C   0  0  0  0  0  0  0  0  0  0  0  0
    1.9881    0.0801    3.5639 N   0  0  0  0  0  0  0  0  0  0  0  0
    3.3893    0.0821    3.9756 C   0  0  0  0  0  0  0  0  0  0  0  0
    4.2122   -0.9963    3.2484 C   0  0  0  0  0  0  0  0  0  0  0  0
    3.4186   -2.2709    3.1204 C   0  0  0  0  0  0  0  0  0  0  0  0
    3.0173   -2.8922    4.1046 O   0  0  0  0  0  0  0  0  0  0  0  0
    3.1774   -2.7210    1.8498 N   0  0  0  0  0  0  0  0  0  0  0  0
    2.4083   -3.9351    1.5833 C   0  0  0  0  0  0  0  0  0  0  0  0
    0.9272   -3.6387    1.2671 C   0  0  0  0  0  0  0  0  0  0  0  0
    0.0535   -3.4324    2.4373 C   0  0  0  0  0  0  0  0  0  0  0  0
    0.4859   -3.4266    3.7657 N   0  0  0  0  0  0  0  0  0  0  0  0
    1.5077   -3.4659    4.0533 H   0  0  0  0  0  0  0  0  0  0  0  0
   -0.5824   -3.1791    4.5793 C   0  0  0  0  0  0  0  0  0  0  0  0
   -1.6964   -3.0509    3.7917 N   0  0  0  0  0  0  0  0  0  0  0  0
   -2.6260   -2.8316    4.1143 H   0  0  0  0  0  0  0  0  0  0  0  0
   -1.3235   -3.2053    2.4586 C   0  0  0  0  0  0  0  0  0  0  0  0
    1.8459    0.0024   -0.9933 H   0  0  0  0  0  0  0  0  0  0  0  0
   -2.5042    0.0950    0.2449 H   0  0  0  0  0  0  0  0  0  0  0  0
   -2.5637    0.2384    1.9605 H   0  0  0  0  0  0  0  0  0  0  0  0
    0.9625    0.1258    5.5017 H   0  0  0  0  0  0  0  0  0  0  0  0
    3.4386   -0.0756    5.0819 H   0  0  0  0  0  0  0  0  0  0  0  0
    3.8268    1.0930    3.7572 H   0  0  0  0  0  0  0  0  0  0  0  0
    5.1489   -1.2051    3.8188 H   0  0  0  0  0  0  0  0  0  0  0  0
    4.5460   -0.6103    2.2560 H   0  0  0  0  0  0  0  0  0  0  0  0
    3.3403   -2.1000    1.0552 H   0  0  0  0  0  0  0  0  0  0  0  0
    2.5092   -4.6541    2.4308 H   0  0  0  0  0  0  0  0  0  0  0  0
    2.8730   -4.4476    0.6995 H   0  0  0  0  0  0  0  0  0  0  0  0
    0.5209   -4.4779    0.6458 H   0  0  0  0  0  0  0  0  0  0  0  0
    0.8607   -2.7458    0.5938 H   0  0  0  0  0  0  0  0  0  0  0  0
   -0.5524   -3.1099    5.6649 H   0  0  0  0  0  0  0  0  0  0  0  0
   -2.0252   -3.1378    1.6412 H   0  0  0  0  0  0  0  0  0  0  0  0
  1  6  2  0  0  0  0
  2  1  2  0  0  0  0
  2  3  2  0  0  0  0
  3  4  2  0  0  0  0
  4  5  1  0  0  0  0
  4 10  1  0  0  0  0
  5  8  2  0  0  0  0
  6  5  1  0  0  0  0
  7  6  1  0  0  0  0
  7 27  1  0  0  0  0
  8  9  2  0  0  0  0
  9 28  1  0  0  0  0
 10 11  1  0  0  0  0
 10  9  1  0  0  0  0
 11 29  1  0  0  0  0
 12 31  1  0  0  0  0
 12 11  1  0  0  0  0
 13 12  1  0  0  0  0
 13 14  2  0  0  0  0
 15 13  1  0  0  0  0
 16 15  1  0  0  0  0
 16 34  1  0  0  0  0
 17 16  1  0  0  0  0
 17 18  1  0  0  0  0
 18 24  2  0  0  0  0
 18 19  1  0  0  0  0
 19 20  1  0  0  0  0
 19 21  1  0  0  0  0
 21 38  1  0  0  0  0
 22 23  1  0  0  0  0
 22 21  1  0  0  0  0
 24 22  1  0  0  0  0
 25  2  1  0  0  0  0
 26  7  1  0  0  0  0
 30 11  1  0  0  0  0
 32 12  1  0  0  0  0
 33 15  1  0  0  0  0
 35 16  1  0  0  0  0
 36 17  1  0  0  0  0
 37 17  1  0  0  0  0
 39 24  1  0  0  0  0
M  END
$$$$
