rmsd157.gzmat
 OpenBabel08211713363D

 39 41  0  0  0  0  0  0  0  0999 V2000
    0.0000    0.0000    0.0000 N   0  0  0  0  0  0  0  0  0  0  0  0
    1.3551    0.0000    0.0000 C   0  0  0  0  0  0  0  0  0  0  0  0
    2.1548    0.0000    1.0883 N   0  0  0  0  0  0  0  0  0  0  0  0
    1.4826   -0.0539    2.2668 C   0  0  0  0  0  0  0  0  0  0  0  0
    0.0535   -0.0105    2.3952 C   0  0  0  0  0  0  0  0  0  0  0  0
   -0.6824   -0.0126    1.1809 C   0  0  0  0  0  0  0  0  0  0  0  0
   -2.0472    0.0456    1.1341 N   0  0  0  0  0  0  0  0  0  0  0  0
   -0.2866   -0.0306    3.7465 N   0  0  0  0  0  0  0  0  0  0  0  0
    0.8571   -0.1186    4.4241 C   0  0  0  0  0  0  0  0  0  0  0  0
    1.9792   -0.1338    3.5583 N   0  0  0  0  0  0  0  0  0  0  0  0
    3.3897   -0.2610    3.8965 C   0  0  0  0  0  0  0  0  0  0  0  0
    4.0011    1.0617    4.3869 C   0  0  0  0  0  0  0  0  0  0  0  0
    3.3677    2.2901    3.7860 C   0  0  0  0  0  0  0  0  0  0  0  0
    2.8577    3.1413    4.5178 O   0  0  0  0  0  0  0  0  0  0  0  0
    3.4228    2.4825    2.4335 N   0  0  0  0  0  0  0  0  0  0  0  0
    2.9192    3.7173    1.8263 C   0  0  0  0  0  0  0  0  0  0  0  0
    1.5175    3.5745    1.1993 C   0  0  0  0  0  0  0  0  0  0  0  0
    0.3908    3.4699    2.1464 C   0  0  0  0  0  0  0  0  0  0  0  0
    0.5008    3.6095    3.5320 N   0  0  0  0  0  0  0  0  0  0  0  0
    1.4255    3.7094    4.0396 H   0  0  0  0  0  0  0  0  0  0  0  0
   -0.7209    3.3921    4.1010 C   0  0  0  0  0  0  0  0  0  0  0  0
   -1.6217    3.1546    3.0963 N   0  0  0  0  0  0  0  0  0  0  0  0
   -2.5982    2.9322    3.2138 H   0  0  0  0  0  0  0  0  0  0  0  0
   -0.9523    3.2009    1.8751 C   0  0  0  0  0  0  0  0  0  0  0  0
    1.8472   -0.0059   -0.9935 H   0  0  0  0  0  0  0  0  0  0  0  0
   -2.5062   -0.1048    0.2444 H   0  0  0  0  0  0  0  0  0  0  0  0
   -2.5622   -0.2180    1.9594 H   0  0  0  0  0  0  0  0  0  0  0  0
    0.9582   -0.1793    5.5006 H   0  0  0  0  0  0  0  0  0  0  0  0
    3.9411   -0.6360    2.9918 H   0  0  0  0  0  0  0  0  0  0  0  0
    3.5088   -1.0517    4.6816 H   0  0  0  0  0  0  0  0  0  0  0  0
    5.1001    1.0671    4.1925 H   0  0  0  0  0  0  0  0  0  0  0  0
    3.9133    1.1398    5.4994 H   0  0  0  0  0  0  0  0  0  0  0  0
    3.6403    1.7151    1.7951 H   0  0  0  0  0  0  0  0  0  0  0  0
    3.6418    4.0133    1.0201 H   0  0  0  0  0  0  0  0  0  0  0  0
    2.9402    4.5505    2.5703 H   0  0  0  0  0  0  0  0  0  0  0  0
    1.5127    2.6894    0.5145 H   0  0  0  0  0  0  0  0  0  0  0  0
    1.3465    4.4498    0.5196 H   0  0  0  0  0  0  0  0  0  0  0  0
   -0.9366    3.4097    5.1678 H   0  0  0  0  0  0  0  0  0  0  0  0
   -1.4491    3.0296    0.9307 H   0  0  0  0  0  0  0  0  0  0  0  0
  1  6  2  0  0  0  0
  2  1  2  0  0  0  0
  2  3  2  0  0  0  0
  3  4  2  0  0  0  0
  4  5  1  0  0  0  0
  4 10  1  0  0  0  0
  5  8  2  0  0  0  0
  6  5  1  0  0  0  0
  7  6  1  0  0  0  0
  7 27  1  0  0  0  0
  8  9  2  0  0  0  0
  9 28  1  0  0  0  0
 10 11  1  0  0  0  0
 10  9  1  0  0  0  0
 11 12  1  0  0  0  0
 11 30  1  0  0  0  0
 12 32  1  0  0  0  0
 13 12  1  0  0  0  0
 13 14  2  0  0  0  0
 15 13  1  0  0  0  0
 16 15  1  0  0  0  0
 16 35  1  0  0  0  0
 17 16  1  0  0  0  0
 17 18  1  0  0  0  0
 18 19  1  0  0  0  0
 19 20  1  0  0  0  0
 19 21  1  0  0  0  0
 21 38  1  0  0  0  0
 22 23  1  0  0  0  0
 22 21  1  0  0  0  0
 24 18  2  0  0  0  0
 24 22  1  0  0  0  0
 25  2  1  0  0  0  0
 26  7  1  0  0  0  0
 29 11  1  0  0  0  0
 31 12  1  0  0  0  0
 33 15  1  0  0  0  0
 34 16  1  0  0  0  0
 36 17  1  0  0  0  0
 37 17  1  0  0  0  0
 39 24  1  0  0  0  0
M  END
$$$$
