rmsd224.gzmat
 OpenBabel08211713363D

 39 41  0  0  0  0  0  0  0  0999 V2000
    0.0000    0.0000    0.0000 N   0  0  0  0  0  0  0  0  0  0  0  0
    1.3595    0.0000    0.0000 C   0  0  0  0  0  0  0  0  0  0  0  0
    2.1573    0.0000    1.0841 N   0  0  0  0  0  0  0  0  0  0  0  0
    1.4924   -0.0089    2.2684 C   0  0  0  0  0  0  0  0  0  0  0  0
    0.0579    0.0298    2.3888 C   0  0  0  0  0  0  0  0  0  0  0  0
   -0.6762   -0.0086    1.1769 C   0  0  0  0  0  0  0  0  0  0  0  0
   -2.0557    0.0380    1.1273 N   0  0  0  0  0  0  0  0  0  0  0  0
   -0.2878    0.0815    3.7367 N   0  0  0  0  0  0  0  0  0  0  0  0
    0.8574    0.0529    4.4211 C   0  0  0  0  0  0  0  0  0  0  0  0
    1.9804   -0.0149    3.5652 N   0  0  0  0  0  0  0  0  0  0  0  0
    3.3829    0.0503    3.9683 C   0  0  0  0  0  0  0  0  0  0  0  0
    4.1609    1.0897    3.1440 C   0  0  0  0  0  0  0  0  0  0  0  0
    3.4225    2.4016    3.1190 C   0  0  0  0  0  0  0  0  0  0  0  0
    2.7046    2.7680    4.0479 O   0  0  0  0  0  0  0  0  0  0  0  0
    3.5761    3.1890    2.0085 N   0  0  0  0  0  0  0  0  0  0  0  0
    2.9025    4.4827    1.8867 C   0  0  0  0  0  0  0  0  0  0  0  0
    1.6290    4.3901    1.0221 C   0  0  0  0  0  0  0  0  0  0  0  0
    0.4391    3.8281    1.6905 C   0  0  0  0  0  0  0  0  0  0  0  0
    0.3722    3.4559    3.0379 N   0  0  0  0  0  0  0  0  0  0  0  0
    1.2082    3.4238    3.6722 H   0  0  0  0  0  0  0  0  0  0  0  0
   -0.8657    2.9356    3.2944 C   0  0  0  0  0  0  0  0  0  0  0  0
   -1.6020    3.0046    2.1416 N   0  0  0  0  0  0  0  0  0  0  0  0
   -2.5223    2.6094    2.0006 H   0  0  0  0  0  0  0  0  0  0  0  0
   -0.8086    3.5515    1.1331 C   0  0  0  0  0  0  0  0  0  0  0  0
    1.8456   -0.0176   -0.9961 H   0  0  0  0  0  0  0  0  0  0  0  0
   -2.4839   -0.1817    0.2324 H   0  0  0  0  0  0  0  0  0  0  0  0
   -2.5511   -0.3271    1.9304 H   0  0  0  0  0  0  0  0  0  0  0  0
    0.9520    0.0600    5.5012 H   0  0  0  0  0  0  0  0  0  0  0  0
    3.8457   -0.9630    3.8300 H   0  0  0  0  0  0  0  0  0  0  0  0
    3.4340    0.3042    5.0569 H   0  0  0  0  0  0  0  0  0  0  0  0
    4.3300    0.6931    2.1114 H   0  0  0  0  0  0  0  0  0  0  0  0
    5.1772    1.2331    3.5792 H   0  0  0  0  0  0  0  0  0  0  0  0
    4.0919    2.8667    1.1979 H   0  0  0  0  0  0  0  0  0  0  0  0
    3.6136    5.2074    1.4120 H   0  0  0  0  0  0  0  0  0  0  0  0
    2.6792    4.9036    2.8961 H   0  0  0  0  0  0  0  0  0  0  0  0
    1.8509    3.7890    0.1045 H   0  0  0  0  0  0  0  0  0  0  0  0
    1.3877    5.4118    0.6320 H   0  0  0  0  0  0  0  0  0  0  0  0
   -1.2047    2.5204    4.2476 H   0  0  0  0  0  0  0  0  0  0  0  0
   -1.1656    3.6913    0.1232 H   0  0  0  0  0  0  0  0  0  0  0  0
  1  6  2  0  0  0  0
  2  1  2  0  0  0  0
  2  3  2  0  0  0  0
  3  4  2  0  0  0  0
  4  5  1  0  0  0  0
  4 10  1  0  0  0  0
  5  8  2  0  0  0  0
  6  5  1  0  0  0  0
  7  6  1  0  0  0  0
  7 27  1  0  0  0  0
  8  9  2  0  0  0  0
  9 28  1  0  0  0  0
 10 11  1  0  0  0  0
 10  9  1  0  0  0  0
 11 30  1  0  0  0  0
 12 32  1  0  0  0  0
 12 11  1  0  0  0  0
 13 12  1  0  0  0  0
 13 14  2  0  0  0  0
 15 13  1  0  0  0  0
 16 15  1  0  0  0  0
 16 35  1  0  0  0  0
 17 18  1  0  0  0  0
 17 16  1  0  0  0  0
 18 19  1  0  0  0  0
 19 21  1  0  0  0  0
 19 20  1  0  0  0  0
 21 38  1  0  0  0  0
 22 21  1  0  0  0  0
 23 22  1  0  0  0  0
 24 18  2  0  0  0  0
 24 22  1  0  0  0  0
 25  2  1  0  0  0  0
 26  7  1  0  0  0  0
 29 11  1  0  0  0  0
 31 12  1  0  0  0  0
 33 15  1  0  0  0  0
 34 16  1  0  0  0  0
 36 17  1  0  0  0  0
 37 17  1  0  0  0  0
 39 24  1  0  0  0  0
M  END
$$$$
