rmsd137.gzmat
 OpenBabel08211713363D

 39 41  0  0  0  0  0  0  0  0999 V2000
    0.0000    0.0000    0.0000 N   0  0  0  0  0  0  0  0  0  0  0  0
    1.3450    0.0000    0.0000 C   0  0  0  0  0  0  0  0  0  0  0  0
    2.1660    0.0000    1.0804 N   0  0  0  0  0  0  0  0  0  0  0  0
    1.5061   -0.1078    2.2658 C   0  0  0  0  0  0  0  0  0  0  0  0
    0.0755   -0.0912    2.3957 C   0  0  0  0  0  0  0  0  0  0  0  0
   -0.6809   -0.0461    1.1933 C   0  0  0  0  0  0  0  0  0  0  0  0
   -2.0297   -0.0447    1.1543 N   0  0  0  0  0  0  0  0  0  0  0  0
   -0.2686   -0.1918    3.7399 N   0  0  0  0  0  0  0  0  0  0  0  0
    0.8702   -0.2897    4.4166 C   0  0  0  0  0  0  0  0  0  0  0  0
    1.9985   -0.2568    3.5500 N   0  0  0  0  0  0  0  0  0  0  0  0
    3.3981   -0.3399    3.9365 C   0  0  0  0  0  0  0  0  0  0  0  0
    3.8898    0.9895    4.5283 C   0  0  0  0  0  0  0  0  0  0  0  0
    3.8570    2.0614    3.4662 C   0  0  0  0  0  0  0  0  0  0  0  0
    4.6825    2.1218    2.5714 O   0  0  0  0  0  0  0  0  0  0  0  0
    2.8454    2.9933    3.5434 N   0  0  0  0  0  0  0  0  0  0  0  0
    2.7849    4.1059    2.5973 C   0  0  0  0  0  0  0  0  0  0  0  0
    2.0307    3.7359    1.2945 C   0  0  0  0  0  0  0  0  0  0  0  0
    2.9604    3.4279    0.1920 C   0  0  0  0  0  0  0  0  0  0  0  0
    3.7287    2.2608    0.1442 N   0  0  0  0  0  0  0  0  0  0  0  0
    3.6933    1.5239    0.8683 H   0  0  0  0  0  0  0  0  0  0  0  0
    4.4876    2.2655   -0.9861 C   0  0  0  0  0  0  0  0  0  0  0  0
    4.2112    3.4240   -1.6737 N   0  0  0  0  0  0  0  0  0  0  0  0
    4.6209    3.7028   -2.5511 H   0  0  0  0  0  0  0  0  0  0  0  0
    3.2666    4.1568   -0.9580 C   0  0  0  0  0  0  0  0  0  0  0  0
    1.8307    0.0036   -0.9922 H   0  0  0  0  0  0  0  0  0  0  0  0
   -2.5159   -0.0597    0.2720 H   0  0  0  0  0  0  0  0  0  0  0  0
   -2.5628   -0.1248    2.0031 H   0  0  0  0  0  0  0  0  0  0  0  0
    0.9737   -0.4072    5.4867 H   0  0  0  0  0  0  0  0  0  0  0  0
    4.0154   -0.6208    3.0419 H   0  0  0  0  0  0  0  0  0  0  0  0
    3.5252   -1.1678    4.6797 H   0  0  0  0  0  0  0  0  0  0  0  0
    4.9471    0.8701    4.8732 H   0  0  0  0  0  0  0  0  0  0  0  0
    3.3171    1.2668    5.4345 H   0  0  0  0  0  0  0  0  0  0  0  0
    2.0734    2.8908    4.1862 H   0  0  0  0  0  0  0  0  0  0  0  0
    3.8219    4.4508    2.3594 H   0  0  0  0  0  0  0  0  0  0  0  0
    2.2752    4.9668    3.0939 H   0  0  0  0  0  0  0  0  0  0  0  0
    1.3537    4.5744    1.0086 H   0  0  0  0  0  0  0  0  0  0  0  0
    1.3371    2.8832    1.4859 H   0  0  0  0  0  0  0  0  0  0  0  0
    5.1917    1.4909   -1.2870 H   0  0  0  0  0  0  0  0  0  0  0  0
    2.8841    5.1070   -1.2949 H   0  0  0  0  0  0  0  0  0  0  0  0
  1  2  2  0  0  0  0
  1  6  2  0  0  0  0
  2  3  2  0  0  0  0
  3  4  2  0  0  0  0
  4  5  1  0  0  0  0
  4 10  1  0  0  0  0
  5  8  2  0  0  0  0
  6  5  1  0  0  0  0
  7  6  1  0  0  0  0
  7 27  1  0  0  0  0
  8  9  2  0  0  0  0
  9 28  1  0  0  0  0
 10 11  1  0  0  0  0
 10  9  1  0  0  0  0
 11 12  1  0  0  0  0
 11 30  1  0  0  0  0
 12 31  1  0  0  0  0
 12 32  1  0  0  0  0
 13 15  1  0  0  0  0
 13 12  1  0  0  0  0
 14 13  2  0  0  0  0
 15 33  1  0  0  0  0
 16 35  1  0  0  0  0
 16 15  1  0  0  0  0
 17 37  1  0  0  0  0
 17 16  1  0  0  0  0
 18 17  1  0  0  0  0
 19 18  1  0  0  0  0
 19 20  1  0  0  0  0
 21 19  1  0  0  0  0
 22 21  1  0  0  0  0
 22 24  1  0  0  0  0
 23 22  1  0  0  0  0
 24 18  2  0  0  0  0
 25  2  1  0  0  0  0
 26  7  1  0  0  0  0
 29 11  1  0  0  0  0
 34 16  1  0  0  0  0
 36 17  1  0  0  0  0
 38 21  1  0  0  0  0
 39 24  1  0  0  0  0
M  END
$$$$
