39
rmsd78.gzmat
N          0.00000        0.00000        0.00000
C          1.35970        0.00000        0.00000
N          2.15910        0.00000        1.08590
C          1.48850        0.04570        2.26520
C          0.05630        0.00060        2.38820
C         -0.67830        0.01130        1.17710
N         -2.05590       -0.07020        1.13710
N         -0.29090        0.02100        3.73750
C          0.84780        0.11800        4.42020
N          1.97380        0.14060        3.55920
C          3.38010        0.21860        3.92760
C          3.84140       -1.05860        4.64160
C          3.29880       -2.31910        4.01680
O          2.58180       -3.08040        4.66320
N          3.66840       -2.63860        2.73740
C          3.33170       -3.94890        2.17630
C          2.16430       -3.91890        1.17280
C          0.83850       -3.59130        1.73020
N          0.51850       -3.55850        3.09160
H          1.22480       -3.67970        3.85810
C         -0.78200       -3.16210        3.23320
N         -1.31030       -2.98600        1.98140
H         -2.21420       -2.58340        1.76430
C         -0.31950       -3.24350        1.03500
H          1.84860        0.01550       -0.99480
H         -2.50110        0.15280        0.25150
H         -2.55180        0.25870        1.95770
H          0.94190        0.18200        5.49880
H          3.54040        1.11000        4.58960
H          3.98690        0.41340        3.00450
H          3.52070       -1.04360        5.71360
H          4.95450       -1.09630        4.68560
H          4.07170       -1.95160        2.10980
H          3.12350       -4.67240        3.00400
H          4.24570       -4.33710        1.65380
H          2.11370       -4.91940        0.66750
H          2.40580       -3.20290        0.34800
H         -1.30520       -3.00980        4.17910
H         -0.49290       -3.15870       -0.02910
