39
rmsd119.gzmat
N          0.00000        0.00000        0.00000
C          1.36060        0.00000        0.00000
N          2.15650        0.00000        1.08620
C          1.48860        0.01700        2.26620
C          0.05510       -0.00790        2.38880
C         -0.67550        0.01440        1.17650
N         -2.05520       -0.07160        1.13270
N         -0.28880       -0.04450        3.74120
C          0.86060       -0.02110        4.42230
N          1.97870        0.04580        3.56340
C          3.37930       -0.09520        3.94220
C          3.94380       -1.44870        3.47640
C          3.11260       -2.58480        4.01500
O          2.21300       -2.43150        4.82290
N          3.40000       -3.84360        3.52950
C          2.66380       -5.00600        4.02200
C          1.49100       -5.38720        3.08470
C          0.42700       -4.36630        3.09400
N         -0.27880       -3.99810        1.93650
H         -0.14740       -4.39850        1.02050
C         -1.17890       -3.01450        2.25760
N         -1.06820       -2.76450        3.59630
H         -1.49440       -1.96910        4.08220
C         -0.07690       -3.58470        4.13120
H          1.85190        0.00800       -0.99320
H         -2.49200        0.10800        0.23340
H         -2.55890        0.30970        1.92310
H          0.96290       -0.04340        5.50300
H          3.46940        0.00350        5.05230
H          3.96450        0.73970        3.47200
H          5.00180       -1.54530        3.80950
H          3.97940       -1.47290        2.36090
H          4.11980       -4.00440        2.84290
H          2.28180       -4.80440        5.05430
H          3.36370       -5.87270        4.11040
H          1.08030       -6.37480        3.41240
H          1.88320       -5.56490        2.05840
H         -1.86150       -2.51240        1.56380
H          0.22220       -3.53540        5.17450
