43
rmsd223.gzmat
C          0.00000        0.00000        0.00000
C          1.39260        0.00000        0.00000
C          2.04730        0.00000        1.23170
F          3.36940       -0.00100        1.24490
C          1.36900        0.00020        2.45130
C         -0.02250       -0.00170        2.42440
C         -0.70230       -0.00840        1.20530
S         -2.45880       -0.00240        1.18750
O         -2.91970        0.89640        2.24020
O         -2.89920        0.16870       -0.17660
C         -2.91370       -1.66620        1.70970
C         -3.54880       -1.73050        3.10310
O         -2.77730       -1.01230        4.03530
C         -4.99850       -1.26900        3.14450
C         -3.49610       -3.21150        3.56790
O         -3.92480       -4.09380        2.86180
N         -2.93730       -3.43280        4.82000
C         -2.76670       -4.68610        5.42690
C         -2.02530       -4.71620        6.62900
C         -1.82080       -5.92150        7.28070
C         -2.34120       -7.11270        6.75740
C         -3.07910       -7.07580        5.56750
C         -3.29480       -5.87630        4.90320
C         -2.14500       -8.36850        7.39260
N         -2.00010       -9.40430        7.88790
C         -1.02150       -5.96880        8.56000
F         -1.66560       -6.55660        9.56680
F          0.12250       -6.64020        8.43590
F         -0.65970       -4.78430        9.05000
H         -0.53240        0.01240       -0.96190
H          1.95040        0.00520       -0.93540
H          1.90850        0.00600        3.39720
H         -0.56770        0.00450        3.37700
H         -2.02760       -2.33130        1.66680
H         -3.61520       -2.11460        0.96840
H         -2.91290       -0.02580        3.91040
H         -5.63930       -1.86300        2.47900
H         -5.09810       -0.21170        2.84680
H         -5.41570       -1.34550        4.15790
H         -2.58220       -2.61240        5.32470
H         -1.61950       -3.78320        7.02350
H         -3.49010       -8.00330        5.15710
H         -3.87640       -5.87170        3.97530
