43
rmsd242.gzmat
C          0.00000        0.00000        0.00000
C          1.39210        0.00000        0.00000
C          2.04680        0.00000        1.23240
F          3.36890        0.00320        1.24510
C          1.36820        0.00000        2.45160
C         -0.02390       -0.00520        2.42440
C         -0.70280       -0.01500        1.20550
S         -2.45960       -0.00830        1.18430
O         -2.92180        0.55440        2.44970
O         -2.89390        0.54460       -0.07560
C         -2.91620       -1.74980        1.21370
C         -3.93630       -2.11680        2.29820
O         -3.44900       -1.79310        3.57470
C         -5.32190       -1.52190        2.08660
C         -4.07540       -3.66420        2.28540
O         -4.25380       -4.25610        1.24640
N         -3.99970       -4.28950        3.52280
C         -4.11070       -5.67060        3.74310
C         -3.86300       -6.13230        5.05520
C         -3.98090       -7.48240        5.34240
C         -4.34380       -8.39560        4.34340
C         -4.57570       -7.93360        3.04180
C         -4.46340       -6.58420        2.73800
C         -4.49510       -9.78450        4.60230
N         -4.62920      -10.91980        4.78280
C         -3.73020       -7.98890        6.74180
F         -4.82500       -8.47670        7.32350
F         -2.83630       -8.97500        6.79530
F         -3.27060       -7.08380        7.60400
H         -0.53070        0.02320       -0.96140
H          1.95010        0.00780       -0.93530
H          1.90800        0.01010        3.39750
H         -0.57210        0.00820        3.37560
H         -2.01180       -2.37960        1.33790
H         -3.32600       -2.05020        0.22060
H         -3.37810       -0.79780        3.67660
H         -5.72890       -1.76920        1.09670
H         -5.31730       -0.42420        2.18050
H         -6.03520       -1.88860        2.83760
H         -3.80310       -3.69490        4.33640
H         -3.57990       -5.41250        5.82530
H         -4.85210       -8.64320        2.25650
H         -4.65550       -6.24620        1.71400
