rmsd204.gzmat
 OpenBabel08211713373D

 43 44  0  0  1  0  0  0  0  0999 V2000
    0.0000    0.0000    0.0000 C   0  0  0  0  0  0  0  0  0  0  0  0
    1.3927    0.0000    0.0000 C   0  0  0  0  0  0  0  0  0  0  0  0
    2.0470    0.0000    1.2317 C   0  0  0  0  0  0  0  0  0  0  0  0
    3.3691   -0.0053    1.2451 F   0  0  0  0  0  0  0  0  0  0  0  0
    1.3682    0.0047    2.4513 C   0  0  0  0  0  0  0  0  0  0  0  0
   -0.0231    0.0062    2.4241 C   0  0  0  0  0  0  0  0  0  0  0  0
   -0.7028   -0.0063    1.2051 C   0  0  0  0  0  0  0  0  0  0  0  0
   -2.4599   -0.0089    1.1870 S   0  0  0  0  0  0  0  0  0  0  0  0
   -2.9265    0.9470    2.1850 O   0  0  0  0  0  0  0  0  0  0  0  0
   -2.9007    0.0798   -0.1849 O   0  0  0  0  0  0  0  0  0  0  0  0
   -2.9086   -1.6427    1.8034 C   0  0  0  0  0  0  0  0  0  0  0  0
   -3.4992   -1.6349    3.2183 C   0  0  1  0  0  0  0  0  0  0  0  0
   -2.7130   -0.8491    4.0812 O   0  0  0  0  0  0  0  0  0  0  0  0
   -4.9539   -1.1934    3.2782 C   0  0  0  0  0  0  0  0  0  0  0  0
   -3.4007   -3.0852    3.7662 C   0  0  0  0  0  0  0  0  0  0  0  0
   -3.8803   -4.0089    3.1521 O   0  0  0  0  0  0  0  0  0  0  0  0
   -2.7278   -3.2316    4.9723 N   0  0  0  0  0  0  0  0  0  0  0  0
   -2.4799   -4.4467    5.6278 C   0  0  0  0  0  0  0  0  0  0  0  0
   -1.6546   -4.3946    6.7734 C   0  0  0  0  0  0  0  0  0  0  0  0
   -1.3560   -5.5601    7.4598 C   0  0  0  0  0  0  0  0  0  0  0  0
   -1.8654   -6.7919    7.0277 C   0  0  0  0  0  0  0  0  0  0  0  0
   -2.6924   -6.8355    5.8981 C   0  0  0  0  0  0  0  0  0  0  0  0
   -3.0032   -5.6761    5.2012 C   0  0  0  0  0  0  0  0  0  0  0  0
   -1.5690   -8.0098    7.6968 C   0  0  0  0  0  0  0  0  0  0  0  0
   -1.3424   -9.0165    8.2207 N   0  0  0  0  0  0  0  0  0  0  0  0
   -0.4713   -5.5202    8.6818 C   0  0  0  0  0  0  0  0  0  0  0  0
   -1.0506   -6.0290    9.7680 F   0  0  0  0  0  0  0  0  0  0  0  0
    0.6593   -6.2091    8.5326 F   0  0  0  0  0  0  0  0  0  0  0  0
   -0.0720   -4.3069    9.0593 F   0  0  0  0  0  0  0  0  0  0  0  0
   -0.5324    0.0084   -0.9621 H   0  0  0  0  0  0  0  0  0  0  0  0
    1.9505    0.0034   -0.9357 H   0  0  0  0  0  0  0  0  0  0  0  0
    1.9070    0.0104    3.3974 H   0  0  0  0  0  0  0  0  0  0  0  0
   -0.5678    0.0189    3.3771 H   0  0  0  0  0  0  0  0  0  0  0  0
   -2.0282   -2.3153    1.7622 H   0  0  0  0  0  0  0  0  0  0  0  0
   -3.6374   -2.1191    1.1077 H   0  0  0  0  0  0  0  0  0  0  0  0
   -2.8789    0.1260    3.9119 H   0  0  0  0  0  0  0  0  0  0  0  0
   -5.6065   -1.8391    2.6751 H   0  0  0  0  0  0  0  0  0  0  0  0
   -5.0813   -0.1598    2.9150 H   0  0  0  0  0  0  0  0  0  0  0  0
   -5.3354   -1.2098    4.3083 H   0  0  0  0  0  0  0  0  0  0  0  0
   -2.3539   -2.3791    5.4052 H   0  0  0  0  0  0  0  0  0  0  0  0
   -1.2609   -3.4300    7.0979 H   0  0  0  0  0  0  0  0  0  0  0  0
   -3.0974   -7.7946    5.5613 H   0  0  0  0  0  0  0  0  0  0  0  0
   -3.6553   -5.7340    4.3231 H   0  0  0  0  0  0  0  0  0  0  0  0
  1  7  1  0  0  0  0
  2  1  2  0  0  0  0
  2  3  1  0  0  0  0
  3  4  1  0  0  0  0
  3  5  2  0  0  0  0
  5 32  1  0  0  0  0
  6  5  1  0  0  0  0
  6 33  1  0  0  0  0
  7  6  2  0  0  0  0
  8  7  1  0  0  0  0
  8 11  1  0  0  0  0
  8  9  2  0  0  0  0
 10  8  2  0  0  0  0
 11 12  1  0  0  0  0
 12 14  1  0  0  0  0
 12 15  1  1  0  0  0
 12 13  1  0  0  0  0
 14 39  1  0  0  0  0
 15 17  1  0  0  0  0
 16 15  2  0  0  0  0
 17 40  1  0  0  0  0
 17 18  1  0  0  0  0
 18 19  1  0  0  0  0
 19 41  1  0  0  0  0
 19 20  2  0  0  0  0
 20 26  1  0  0  0  0
 21 20  1  0  0  0  0
 21 24  1  0  0  0  0
 22 21  2  0  0  0  0
 23 18  2  0  0  0  0
 23 22  1  0  0  0  0
 24 25  3  0  0  0  0
 26 29  1  0  0  0  0
 26 27  1  0  0  0  0
 28 26  1  0  0  0  0
 30  1  1  0  0  0  0
 31  2  1  0  0  0  0
 34 11  1  0  0  0  0
 35 11  1  0  0  0  0
 36 13  1  0  0  0  0
 37 14  1  0  0  0  0
 38 14  1  0  0  0  0
 42 22  1  0  0  0  0
 43 23  1  0  0  0  0
M  END
$$$$
