43
rmsd209.gzmat
C          0.00000        0.00000        0.00000
C          1.39200        0.00000        0.00000
C          2.04630        0.00000        1.23270
F          3.36830        0.00610        1.24610
C          1.36760       -0.00780        2.45170
C         -0.02440       -0.00600        2.42450
C         -0.70300        0.01470        1.20550
S         -2.45820        0.02260        1.18880
O         -2.90340       -0.67390       -0.01430
O         -2.92410       -0.38710        2.49220
C         -2.91390        1.74580        0.94410
C         -4.22030        1.93940        0.16480
O         -4.11950        1.42430       -1.13630
C         -5.45770        1.38540        0.85890
C         -4.42700        3.46950       -0.02780
O         -4.17770        4.25060        0.86000
N         -4.94570        3.84420       -1.26090
C         -5.21050        5.15940       -1.67050
C         -5.61230        5.33960       -3.01310
C         -5.89350        6.61210       -3.48210
C         -5.78310        7.72410       -2.63620
C         -5.38950        7.53860       -1.30500
C         -5.10630        6.26950       -0.81900
C         -6.05810        9.04440       -3.08310
N         -6.27480       10.12980       -3.42070
C         -6.32510        6.81790       -4.91350
F         -7.54760        7.33590       -5.02250
F         -5.53250        7.64800       -5.58960
F         -6.36400        5.71760       -5.66290
H         -0.52840       -0.02470       -0.96210
H          1.95040       -0.00900       -0.93490
H          1.90740       -0.02100        3.39720
H         -0.57360       -0.03270        3.37610
H         -2.09990        2.28760        0.42020
H         -3.00460        2.26280        1.92760
H         -3.89230        0.44670       -1.11800
H         -5.55230        1.75190        1.89020
H         -5.45060        0.28570        0.90320
H         -6.37530        1.66070        0.32150
H         -5.06310        3.10100       -1.96080
H         -5.69290        4.46610       -3.66270
H         -5.30480        8.40340       -0.64020
H         -4.80300        6.14830        0.22620
