rmsd242.gzmat
 OpenBabel08211713373D

 43 44  0  0  1  0  0  0  0  0999 V2000
    0.0000    0.0000    0.0000 C   0  0  0  0  0  0  0  0  0  0  0  0
    1.3921    0.0000    0.0000 C   0  0  0  0  0  0  0  0  0  0  0  0
    2.0468    0.0000    1.2324 C   0  0  0  0  0  0  0  0  0  0  0  0
    3.3689    0.0032    1.2451 F   0  0  0  0  0  0  0  0  0  0  0  0
    1.3682    0.0000    2.4516 C   0  0  0  0  0  0  0  0  0  0  0  0
   -0.0239   -0.0052    2.4244 C   0  0  0  0  0  0  0  0  0  0  0  0
   -0.7028   -0.0150    1.2055 C   0  0  0  0  0  0  0  0  0  0  0  0
   -2.4596   -0.0083    1.1843 S   0  0  0  0  0  0  0  0  0  0  0  0
   -2.9218    0.5544    2.4497 O   0  0  0  0  0  0  0  0  0  0  0  0
   -2.8939    0.5446   -0.0756 O   0  0  0  0  0  0  0  0  0  0  0  0
   -2.9162   -1.7498    1.2137 C   0  0  0  0  0  0  0  0  0  0  0  0
   -3.9363   -2.1168    2.2982 C   0  0  1  0  0  0  0  0  0  0  0  0
   -3.4490   -1.7931    3.5747 O   0  0  0  0  0  0  0  0  0  0  0  0
   -5.3219   -1.5219    2.0866 C   0  0  0  0  0  0  0  0  0  0  0  0
   -4.0754   -3.6642    2.2854 C   0  0  0  0  0  0  0  0  0  0  0  0
   -4.2538   -4.2561    1.2464 O   0  0  0  0  0  0  0  0  0  0  0  0
   -3.9997   -4.2895    3.5228 N   0  0  0  0  0  0  0  0  0  0  0  0
   -4.1107   -5.6706    3.7431 C   0  0  0  0  0  0  0  0  0  0  0  0
   -3.8630   -6.1323    5.0552 C   0  0  0  0  0  0  0  0  0  0  0  0
   -3.9809   -7.4824    5.3424 C   0  0  0  0  0  0  0  0  0  0  0  0
   -4.3438   -8.3956    4.3434 C   0  0  0  0  0  0  0  0  0  0  0  0
   -4.5757   -7.9336    3.0418 C   0  0  0  0  0  0  0  0  0  0  0  0
   -4.4634   -6.5842    2.7380 C   0  0  0  0  0  0  0  0  0  0  0  0
   -4.4951   -9.7845    4.6023 C   0  0  0  0  0  0  0  0  0  0  0  0
   -4.6292  -10.9198    4.7828 N   0  0  0  0  0  0  0  0  0  0  0  0
   -3.7302   -7.9889    6.7418 C   0  0  0  0  0  0  0  0  0  0  0  0
   -4.8250   -8.4767    7.3235 F   0  0  0  0  0  0  0  0  0  0  0  0
   -2.8363   -8.9750    6.7953 F   0  0  0  0  0  0  0  0  0  0  0  0
   -3.2706   -7.0838    7.6040 F   0  0  0  0  0  0  0  0  0  0  0  0
   -0.5307    0.0232   -0.9614 H   0  0  0  0  0  0  0  0  0  0  0  0
    1.9501    0.0078   -0.9353 H   0  0  0  0  0  0  0  0  0  0  0  0
    1.9080    0.0101    3.3975 H   0  0  0  0  0  0  0  0  0  0  0  0
   -0.5721    0.0082    3.3756 H   0  0  0  0  0  0  0  0  0  0  0  0
   -2.0118   -2.3796    1.3379 H   0  0  0  0  0  0  0  0  0  0  0  0
   -3.3260   -2.0502    0.2206 H   0  0  0  0  0  0  0  0  0  0  0  0
   -3.3781   -0.7978    3.6766 H   0  0  0  0  0  0  0  0  0  0  0  0
   -5.7289   -1.7692    1.0967 H   0  0  0  0  0  0  0  0  0  0  0  0
   -5.3173   -0.4242    2.1805 H   0  0  0  0  0  0  0  0  0  0  0  0
   -6.0352   -1.8886    2.8376 H   0  0  0  0  0  0  0  0  0  0  0  0
   -3.8031   -3.6949    4.3364 H   0  0  0  0  0  0  0  0  0  0  0  0
   -3.5799   -5.4125    5.8253 H   0  0  0  0  0  0  0  0  0  0  0  0
   -4.8521   -8.6432    2.2565 H   0  0  0  0  0  0  0  0  0  0  0  0
   -4.6555   -6.2462    1.7140 H   0  0  0  0  0  0  0  0  0  0  0  0
  1  7  1  0  0  0  0
  2  1  2  0  0  0  0
  2  3  1  0  0  0  0
  3  4  1  0  0  0  0
  3  5  2  0  0  0  0
  5 32  1  0  0  0  0
  6  5  1  0  0  0  0
  6 33  1  0  0  0  0
  7  6  2  0  0  0  0
  8  7  1  0  0  0  0
  8 11  1  0  0  0  0
  8  9  2  0  0  0  0
 10  8  2  0  0  0  0
 11 34  1  0  0  0  0
 11 12  1  0  0  0  0
 12 15  1  6  0  0  0
 12 13  1  0  0  0  0
 13 36  1  0  0  0  0
 14 38  1  0  0  0  0
 14 12  1  0  0  0  0
 14 39  1  0  0  0  0
 15 17  1  0  0  0  0
 16 15  2  0  0  0  0
 17 18  1  0  0  0  0
 17 40  1  0  0  0  0
 18 19  2  0  0  0  0
 19 20  1  0  0  0  0
 19 41  1  0  0  0  0
 20 26  1  0  0  0  0
 21 24  1  0  0  0  0
 21 20  2  0  0  0  0
 22 21  1  0  0  0  0
 23 22  2  0  0  0  0
 23 18  1  0  0  0  0
 24 25  3  0  0  0  0
 26 28  1  0  0  0  0
 26 27  1  0  0  0  0
 26 29  1  0  0  0  0
 30  1  1  0  0  0  0
 31  2  1  0  0  0  0
 35 11  1  0  0  0  0
 37 14  1  0  0  0  0
 42 22  1  0  0  0  0
 43 23  1  0  0  0  0
M  END
$$$$
