43
rmsd203.gzmat
C          0.00000        0.00000        0.00000
C          1.39270        0.00000        0.00000
C          2.04740        0.00000        1.23180
F          3.36950        0.00260        1.24540
C          1.36920       -0.00180        2.45130
C         -0.02220       -0.00530        2.42460
C         -0.70210       -0.00970        1.20540
S         -2.45860        0.02260        1.19450
O         -2.88950        0.89990        2.27790
O         -2.90020        0.24370       -0.16200
C         -2.95940       -1.64160        1.67290
C         -3.66350       -1.70550        3.03200
O         -2.87390       -1.08850        4.02080
C         -5.07210       -1.12830        3.03430
C         -3.76680       -3.19850        3.44660
O         -4.19390       -4.02600        2.67630
N         -3.37160       -3.49060        4.74570
C         -3.41240       -4.75920        5.34400
C         -2.77630       -4.89540        6.59780
C         -2.80090       -6.11610        7.25270
C         -3.44740       -7.21970        6.68000
C         -4.07570       -7.07870        5.43600
C         -4.06230       -5.86190        4.76850
C         -3.49060       -8.48830        7.31900
N         -3.54250       -9.53170        7.81670
C         -2.12060       -6.27430        8.59060
F         -2.91420       -6.78230        9.53210
F         -1.06520       -7.08640        8.54640
F         -1.65260       -5.15000        9.12980
H         -0.53230        0.01580       -0.96140
H          1.95060        0.00800       -0.93520
H          1.90880        0.00590        3.39710
H         -0.56840       -0.00080        3.37660
H         -2.08310       -2.32000        1.67170
H         -3.63040       -2.07280        0.89420
H         -2.93250       -0.09190        3.93390
H         -5.71750       -1.61410        2.29070
H         -5.07240       -0.04640        2.81650
H         -5.55250       -1.24400        4.01520
H         -2.97650       -2.72080        5.29770
H         -2.26910       -4.03110        7.02990
H         -4.58480       -7.93680        4.98650
H         -4.56180       -5.77390        3.79790
