43
rmsd141.gzmat
C          0.00000        0.00000        0.00000
C          1.39220        0.00000        0.00000
C          2.04680        0.00000        1.23210
F          3.36870        0.00470        1.24500
C          1.36820        0.00020        2.45130
C         -0.02370        0.00170        2.42480
C         -0.70310       -0.00930        1.20550
S         -2.45650        0.04630        1.18600
O         -2.90220        0.66930        2.42950
O         -2.87310        0.57160       -0.09240
C         -3.01730       -1.65860        1.29930
C         -4.42930       -1.78520        1.88740
O         -4.46250       -1.35770        3.22280
C         -5.51640       -1.08650        1.08000
C         -4.78850       -3.29740        1.93950
O         -4.49330       -4.03990        1.03260
N         -5.50470       -3.69690        3.06060
C         -5.98850       -4.99100        3.30340
C         -6.61670       -5.21550        4.54930
C         -7.13680       -6.46560        4.84160
C         -7.04400       -7.51180        3.91370
C         -6.41810       -7.28400        2.68160
C         -5.89410       -6.03650        2.37260
C         -7.56600       -8.80670        4.17700
N         -7.98060       -9.87060        4.36550
C         -7.81310       -6.72080        6.16640
F         -9.08390       -7.10090        6.04330
F         -7.22790       -7.68330        6.87740
F         -7.85920       -5.68020        6.99590
H         -0.53010        0.02280       -0.96210
H          1.95020        0.01030       -0.93520
H          1.90810        0.00870        3.39720
H         -0.57150        0.02760        3.37600
H         -2.31750       -2.25800        1.91630
H         -2.99860       -2.14410        0.29710
H         -4.11360       -0.42050        3.30960
H         -5.50190       -1.38490        0.02290
H         -5.41720        0.00940        1.10660
H         -6.51630       -1.30810        1.47630
H         -5.63720       -2.99710        3.80110
H         -6.68140       -4.39360        5.26490
H         -6.34220       -8.09780        1.95450
H         -5.41140       -5.88190        1.40190
