rmsd209.gzmat
 OpenBabel08211713373D

 43 44  0  0  1  0  0  0  0  0999 V2000
    0.0000    0.0000    0.0000 C   0  0  0  0  0  0  0  0  0  0  0  0
    1.3920    0.0000    0.0000 C   0  0  0  0  0  0  0  0  0  0  0  0
    2.0463    0.0000    1.2327 C   0  0  0  0  0  0  0  0  0  0  0  0
    3.3683    0.0061    1.2461 F   0  0  0  0  0  0  0  0  0  0  0  0
    1.3676   -0.0078    2.4517 C   0  0  0  0  0  0  0  0  0  0  0  0
   -0.0244   -0.0060    2.4245 C   0  0  0  0  0  0  0  0  0  0  0  0
   -0.7030    0.0147    1.2055 C   0  0  0  0  0  0  0  0  0  0  0  0
   -2.4582    0.0226    1.1888 S   0  0  0  0  0  0  0  0  0  0  0  0
   -2.9034   -0.6739   -0.0143 O   0  0  0  0  0  0  0  0  0  0  0  0
   -2.9241   -0.3871    2.4922 O   0  0  0  0  0  0  0  0  0  0  0  0
   -2.9139    1.7458    0.9441 C   0  0  0  0  0  0  0  0  0  0  0  0
   -4.2203    1.9394    0.1648 C   0  0  1  0  0  0  0  0  0  0  0  0
   -4.1195    1.4243   -1.1363 O   0  0  0  0  0  0  0  0  0  0  0  0
   -5.4577    1.3854    0.8589 C   0  0  0  0  0  0  0  0  0  0  0  0
   -4.4270    3.4695   -0.0278 C   0  0  0  0  0  0  0  0  0  0  0  0
   -4.1777    4.2506    0.8600 O   0  0  0  0  0  0  0  0  0  0  0  0
   -4.9457    3.8442   -1.2609 N   0  0  0  0  0  0  0  0  0  0  0  0
   -5.2105    5.1594   -1.6705 C   0  0  0  0  0  0  0  0  0  0  0  0
   -5.6123    5.3396   -3.0131 C   0  0  0  0  0  0  0  0  0  0  0  0
   -5.8935    6.6121   -3.4821 C   0  0  0  0  0  0  0  0  0  0  0  0
   -5.7831    7.7241   -2.6362 C   0  0  0  0  0  0  0  0  0  0  0  0
   -5.3895    7.5386   -1.3050 C   0  0  0  0  0  0  0  0  0  0  0  0
   -5.1063    6.2695   -0.8190 C   0  0  0  0  0  0  0  0  0  0  0  0
   -6.0581    9.0444   -3.0831 C   0  0  0  0  0  0  0  0  0  0  0  0
   -6.2748   10.1298   -3.4207 N   0  0  0  0  0  0  0  0  0  0  0  0
   -6.3251    6.8179   -4.9135 C   0  0  0  0  0  0  0  0  0  0  0  0
   -7.5476    7.3359   -5.0225 F   0  0  0  0  0  0  0  0  0  0  0  0
   -5.5325    7.6480   -5.5896 F   0  0  0  0  0  0  0  0  0  0  0  0
   -6.3640    5.7176   -5.6629 F   0  0  0  0  0  0  0  0  0  0  0  0
   -0.5284   -0.0247   -0.9621 H   0  0  0  0  0  0  0  0  0  0  0  0
    1.9504   -0.0090   -0.9349 H   0  0  0  0  0  0  0  0  0  0  0  0
    1.9074   -0.0210    3.3972 H   0  0  0  0  0  0  0  0  0  0  0  0
   -0.5736   -0.0327    3.3761 H   0  0  0  0  0  0  0  0  0  0  0  0
   -2.0999    2.2876    0.4202 H   0  0  0  0  0  0  0  0  0  0  0  0
   -3.0046    2.2628    1.9276 H   0  0  0  0  0  0  0  0  0  0  0  0
   -3.8923    0.4467   -1.1180 H   0  0  0  0  0  0  0  0  0  0  0  0
   -5.5523    1.7519    1.8902 H   0  0  0  0  0  0  0  0  0  0  0  0
   -5.4506    0.2857    0.9032 H   0  0  0  0  0  0  0  0  0  0  0  0
   -6.3753    1.6607    0.3215 H   0  0  0  0  0  0  0  0  0  0  0  0
   -5.0631    3.1010   -1.9608 H   0  0  0  0  0  0  0  0  0  0  0  0
   -5.6929    4.4661   -3.6627 H   0  0  0  0  0  0  0  0  0  0  0  0
   -5.3048    8.4034   -0.6402 H   0  0  0  0  0  0  0  0  0  0  0  0
   -4.8030    6.1483    0.2262 H   0  0  0  0  0  0  0  0  0  0  0  0
  1  2  2  0  0  0  0
  1  7  1  0  0  0  0
  2  3  1  0  0  0  0
  3  4  1  0  0  0  0
  3  5  2  0  0  0  0
  5 32  1  0  0  0  0
  6  5  1  0  0  0  0
  6 33  1  0  0  0  0
  7  6  2  0  0  0  0
  8  7  1  0  0  0  0
  8 10  2  0  0  0  0
  9  8  2  0  0  0  0
 11  8  1  0  0  0  0
 11 35  1  0  0  0  0
 12 13  1  6  0  0  0
 12 14  1  0  0  0  0
 12 11  1  0  0  0  0
 13 36  1  0  0  0  0
 14 38  1  0  0  0  0
 14 37  1  0  0  0  0
 15 12  1  0  0  0  0
 15 16  2  0  0  0  0
 17 15  1  0  0  0  0
 18 17  1  0  0  0  0
 18 23  2  0  0  0  0
 19 18  1  0  0  0  0
 20 19  2  0  0  0  0
 20 21  1  0  0  0  0
 21 22  2  0  0  0  0
 22 23  1  0  0  0  0
 22 42  1  0  0  0  0
 23 43  1  0  0  0  0
 24 21  1  0  0  0  0
 25 24  3  0  0  0  0
 26 20  1  0  0  0  0
 27 26  1  0  0  0  0
 28 26  1  0  0  0  0
 29 26  1  0  0  0  0
 30  1  1  0  0  0  0
 31  2  1  0  0  0  0
 34 11  1  0  0  0  0
 39 14  1  0  0  0  0
 40 17  1  0  0  0  0
 41 19  1  0  0  0  0
M  END
$$$$
