rmsd136.gzmat
 OpenBabel08211713373D

 43 44  0  0  1  0  0  0  0  0999 V2000
    0.0000    0.0000    0.0000 C   0  0  0  0  0  0  0  0  0  0  0  0
    1.3923    0.0000    0.0000 C   0  0  0  0  0  0  0  0  0  0  0  0
    2.0472    0.0000    1.2322 C   0  0  0  0  0  0  0  0  0  0  0  0
    3.3692   -0.0067    1.2449 F   0  0  0  0  0  0  0  0  0  0  0  0
    1.3694    0.0106    2.4515 C   0  0  0  0  0  0  0  0  0  0  0  0
   -0.0228    0.0086    2.4246 C   0  0  0  0  0  0  0  0  0  0  0  0
   -0.7026   -0.0137    1.2060 C   0  0  0  0  0  0  0  0  0  0  0  0
   -2.4600   -0.0224    1.1893 S   0  0  0  0  0  0  0  0  0  0  0  0
   -2.9213    0.5045    2.4704 O   0  0  0  0  0  0  0  0  0  0  0  0
   -2.9051    0.5574   -0.0547 O   0  0  0  0  0  0  0  0  0  0  0  0
   -2.9063   -1.7676    1.1778 C   0  0  0  0  0  0  0  0  0  0  0  0
   -3.9250   -2.1623    2.2541 C   0  0  1  0  0  0  0  0  0  0  0  0
   -3.4234   -1.8846    3.5368 O   0  0  0  0  0  0  0  0  0  0  0  0
   -5.3046   -1.5438    2.0755 C   0  0  0  0  0  0  0  0  0  0  0  0
   -4.0826   -3.7070    2.1932 C   0  0  0  0  0  0  0  0  0  0  0  0
   -4.2738   -4.2663    1.1385 O   0  0  0  0  0  0  0  0  0  0  0  0
   -4.0065   -4.3718    3.4098 N   0  0  0  0  0  0  0  0  0  0  0  0
   -4.1122   -5.7604    3.5832 C   0  0  0  0  0  0  0  0  0  0  0  0
   -3.7707   -6.2751    4.8537 C   0  0  0  0  0  0  0  0  0  0  0  0
   -3.8597   -7.6372    5.0900 C   0  0  0  0  0  0  0  0  0  0  0  0
   -4.2907   -8.5094    4.0811 C   0  0  0  0  0  0  0  0  0  0  0  0
   -4.6306   -7.9928    2.8246 C   0  0  0  0  0  0  0  0  0  0  0  0
   -4.5465   -6.6306    2.5718 C   0  0  0  0  0  0  0  0  0  0  0  0
   -4.4018   -9.9107    4.2885 C   0  0  0  0  0  0  0  0  0  0  0  0
   -4.5047  -11.0543    4.4315 N   0  0  0  0  0  0  0  0  0  0  0  0
   -3.4924   -8.2035    6.4397 C   0  0  0  0  0  0  0  0  0  0  0  0
   -4.5109   -8.8080    7.0496 F   0  0  0  0  0  0  0  0  0  0  0  0
   -2.5267   -9.1195    6.3798 F   0  0  0  0  0  0  0  0  0  0  0  0
   -3.0518   -7.3182    7.3316 F   0  0  0  0  0  0  0  0  0  0  0  0
   -0.5299    0.0235   -0.9616 H   0  0  0  0  0  0  0  0  0  0  0  0
    1.9514    0.0067   -0.9349 H   0  0  0  0  0  0  0  0  0  0  0  0
    1.9107    0.0263    3.3969 H   0  0  0  0  0  0  0  0  0  0  0  0
   -0.5713    0.0346    3.3755 H   0  0  0  0  0  0  0  0  0  0  0  0
   -1.9985   -2.3941    1.2901 H   0  0  0  0  0  0  0  0  0  0  0  0
   -3.3136   -2.0474    0.1778 H   0  0  0  0  0  0  0  0  0  0  0  0
   -3.3584   -0.8937    3.6743 H   0  0  0  0  0  0  0  0  0  0  0  0
   -5.7359   -1.7749    1.0921 H   0  0  0  0  0  0  0  0  0  0  0  0
   -5.2807   -0.4468    2.1796 H   0  0  0  0  0  0  0  0  0  0  0  0
   -6.0070   -1.9055    2.8390 H   0  0  0  0  0  0  0  0  0  0  0  0
   -3.7915   -3.8069    4.2397 H   0  0  0  0  0  0  0  0  0  0  0  0
   -3.4363   -5.5860    5.6310 H   0  0  0  0  0  0  0  0  0  0  0  0
   -4.9677   -8.6699    2.0343 H   0  0  0  0  0  0  0  0  0  0  0  0
   -4.8222   -6.2479    1.5834 H   0  0  0  0  0  0  0  0  0  0  0  0
  1  7  1  0  0  0  0
  2  1  2  0  0  0  0
  2  3  1  0  0  0  0
  3  4  1  0  0  0  0
  3  5  2  0  0  0  0
  5 32  1  0  0  0  0
  6  5  1  0  0  0  0
  6 33  1  0  0  0  0
  7  6  2  0  0  0  0
  8  7  1  0  0  0  0
  8  9  2  0  0  0  0
 10  8  2  0  0  0  0
 11  8  1  0  0  0  0
 11 34  1  0  0  0  0
 11 12  1  0  0  0  0
 12 15  1  6  0  0  0
 12 13  1  0  0  0  0
 13 36  1  0  0  0  0
 14 38  1  0  0  0  0
 14 12  1  0  0  0  0
 14 39  1  0  0  0  0
 15 17  1  0  0  0  0
 16 15  2  0  0  0  0
 17 18  1  0  0  0  0
 17 40  1  0  0  0  0
 18 19  2  0  0  0  0
 19 20  1  0  0  0  0
 19 41  1  0  0  0  0
 20 26  1  0  0  0  0
 21 24  1  0  0  0  0
 21 20  2  0  0  0  0
 22 21  1  0  0  0  0
 23 22  2  0  0  0  0
 23 18  1  0  0  0  0
 24 25  3  0  0  0  0
 26 27  1  0  0  0  0
 26 29  1  0  0  0  0
 28 26  1  0  0  0  0
 30  1  1  0  0  0  0
 31  2  1  0  0  0  0
 35 11  1  0  0  0  0
 37 14  1  0  0  0  0
 42 22  1  0  0  0  0
 43 23  1  0  0  0  0
M  END
$$$$
