rmsd32.gzmat
 OpenBabel08211713363D

 29 30  0  0  0  0  0  0  0  0999 V2000
    0.0000    0.0000    0.0000 C   0  0  0  0  0  0  0  0  0  0  0  0
    1.4209    0.0000    0.0000 C   0  0  0  0  0  0  0  0  0  0  0  0
    2.2567    0.0000    1.2120 C   0  0  0  0  0  0  0  0  0  0  0  0
    3.4580    0.1904    1.1971 O   0  0  0  0  0  0  0  0  0  0  0  0
    1.7052   -0.2560    2.4132 O   0  0  0  0  0  0  0  0  0  0  0  0
    2.1081    0.0092   -1.2191 C   0  0  0  0  0  0  0  0  0  0  0  0
    1.4393   -0.0077   -2.4322 C   0  0  0  0  0  0  0  0  0  0  0  0
    0.0360   -0.0459   -2.4386 C   0  0  0  0  0  0  0  0  0  0  0  0
   -0.6730   -0.0516   -1.2599 C   0  0  0  0  0  0  0  0  0  0  0  0
   -0.6557   -0.0857    1.1871 N   0  0  0  0  0  0  0  0  0  0  0  0
   -1.9041    0.3409    1.4574 C   0  0  0  0  0  0  0  0  0  0  0  0
   -2.5504    1.4951    0.9424 C   0  0  0  0  0  0  0  0  0  0  0  0
   -1.6824    2.4883   -0.1485 Cl  0  0  0  0  0  0  0  0  0  0  0  0
   -3.8210    1.8973    1.3303 C   0  0  0  0  0  0  0  0  0  0  0  0
   -4.4525    3.1144    0.7375 C   0  0  0  0  0  0  0  0  0  0  0  0
   -4.5110    1.1583    2.2933 C   0  0  0  0  0  0  0  0  0  0  0  0
   -3.9048    0.0388    2.8706 C   0  0  0  0  0  0  0  0  0  0  0  0
   -2.6479   -0.3450    2.4625 C   0  0  0  0  0  0  0  0  0  0  0  0
   -1.9486   -1.7283    3.1904 Cl  0  0  0  0  0  0  0  0  0  0  0  0
    3.2017    0.0333   -1.2015 H   0  0  0  0  0  0  0  0  0  0  0  0
    1.9850    0.0067   -3.3638 H   0  0  0  0  0  0  0  0  0  0  0  0
   -0.4894   -0.0739   -3.3906 H   0  0  0  0  0  0  0  0  0  0  0  0
   -1.7562   -0.1061   -1.2646 H   0  0  0  0  0  0  0  0  0  0  0  0
    0.6946   -0.3664    2.3842 H   0  0  0  0  0  0  0  0  0  0  0  0
   -3.8590    4.0145    0.9601 H   0  0  0  0  0  0  0  0  0  0  0  0
   -5.4650    3.2903    1.1170 H   0  0  0  0  0  0  0  0  0  0  0  0
   -4.5210    3.0329   -0.3576 H   0  0  0  0  0  0  0  0  0  0  0  0
   -5.5042    1.4521    2.6014 H   0  0  0  0  0  0  0  0  0  0  0  0
   -4.4384   -0.5227    3.6358 H   0  0  0  0  0  0  0  0  0  0  0  0
  1 10  1  0  0  0  0
  2  1  1  0  0  0  0
  2  3  1  0  0  0  0
  3  5  1  0  0  0  0
  4  3  2  0  0  0  0
  6 20  1  0  0  0  0
  6  2  2  0  0  0  0
  7  6  1  0  0  0  0
  8  7  2  0  0  0  0
  8  9  1  0  0  0  0
  9  1  2  0  0  0  0
 10 11  1  0  0  0  0
 11 18  2  0  0  0  0
 12 14  2  0  0  0  0
 12 11  1  0  0  0  0
 13 12  1  0  0  0  0
 14 16  1  0  0  0  0
 15 25  1  0  0  0  0
 15 26  1  0  0  0  0
 15 14  1  0  0  0  0
 16 28  1  0  0  0  0
 16 17  2  0  0  0  0
 17 29  1  0  0  0  0
 18 17  1  0  0  0  0
 18 19  1  0  0  0  0
 21  7  1  0  0  0  0
 22  8  1  0  0  0  0
 23  9  1  0  0  0  0
 24  5  1  0  0  0  0
 27 15  1  0  0  0  0
M  RAD  1  10   2
M  END
$$$$
