29
rmsd29.gzmat
C          0.00000        0.00000        0.00000
C          1.42010        0.00000        0.00000
C          2.25500        0.00000        1.21250
O          3.45660       -0.18580        1.19800
O          1.70120        0.24810        2.41440
C          2.10730       -0.01580       -1.21940
C          1.43800       -0.00450       -2.43230
C          0.03490        0.03930       -2.43870
C         -0.67360        0.05080       -1.25960
N         -0.65870        0.07910        1.18720
C         -1.89950       -0.37490        1.44740
C         -2.51780       -1.53630        0.91320
Cl        -1.61530       -2.50960       -0.16770
C         -3.78800       -1.96210        1.27510
C         -4.39430       -3.17550        0.64940
C         -4.49990       -1.25050        2.24290
C         -3.91900       -0.12970        2.84360
C         -2.66620        0.28440        2.45300
Cl        -2.00380        1.67480        3.20160
H          3.20060       -0.04190       -1.20090
H          1.98270       -0.02760       -3.36440
H         -0.49120        0.06540       -3.39040
H         -1.75700        0.10640       -1.26400
H          0.68940        0.35080        2.38610
H         -4.37700       -3.11040       -0.44900
H         -5.43670       -3.32690        0.94930
H         -3.83540       -4.08150        0.92920
H         -5.49080       -1.56540        2.53680
H         -4.47010        0.40950        3.61250
