29
rmsd27.gzmat
C          0.00000        0.00000        0.00000
C          1.42190        0.00000        0.00000
C          2.25920        0.00000        1.21060
O          3.46180       -0.18190        1.19270
O          1.70930        0.24590        2.41450
C          2.10930       -0.00450       -1.21890
C          1.44070        0.01100       -2.43220
C          0.03710        0.04330       -2.43880
C         -0.67280        0.04610       -1.26080
N         -0.65080        0.09090        1.18720
C         -1.91300       -0.29300        1.46090
C         -2.59620       -1.43200        0.96140
Cl        -1.76340       -2.46270       -0.12180
C         -3.87740       -1.79010        1.35860
C         -4.54760       -2.99670        0.78730
C         -4.54250       -1.01600        2.31140
C         -3.90010        0.09100        2.87350
C         -2.63180        0.42840        2.45930
Cl        -1.88620        1.79560        3.17180
H          3.20300       -0.02190       -1.20080
H          1.98670        0.00000       -3.36370
H         -0.48710        0.06960       -3.39150
H         -1.75620        0.09690       -1.26640
H          0.69830        0.35350        2.38660
H         -4.64800       -2.91510       -0.30510
H         -5.55160       -3.15360        1.19650
H         -3.96490       -3.90800        0.99230
H         -5.54480       -1.27220        2.62330
H         -4.41350        0.67950        3.63230
