29
rmsd26.gzmat
C          0.00000        0.00000        0.00000
C          1.42210        0.00000        0.00000
C          2.25950        0.00000        1.21060
O          3.46550       -0.15850        1.19070
O          1.70490        0.21620        2.41800
C          2.10830       -0.00080       -1.21970
C          1.44010        0.02320       -2.43300
C          0.03680        0.06380       -2.43920
C         -0.67220        0.06020       -1.26070
N         -0.65130        0.07700        1.18760
C         -1.91790       -0.29960        1.45380
C         -2.60650       -1.43090        0.94490
Cl        -1.78160       -2.45380       -0.15170
C         -3.88920       -1.78670        1.33960
C         -4.56400       -2.98640        0.75910
C         -4.55060       -1.01700        2.29850
C         -3.90450        0.08490        2.86630
C         -2.63520        0.42030        2.45350
Cl        -1.88700        1.78580        3.16520
H          3.20180       -0.02280       -1.20250
H          1.98600        0.01290       -3.36430
H         -0.48950        0.10160       -3.39070
H         -1.75480        0.11670       -1.26660
H          0.69360        0.31720        2.39120
H         -4.67210       -2.89170       -0.33160
H         -5.56500       -3.14810        1.17420
H         -3.98030       -3.90010        0.95040
H         -5.55380       -1.27240        2.60900
H         -4.41660        0.67080        3.62830
