29
rmsd24.gzmat
C          0.00000        0.00000        0.00000
C          1.42090        0.00000        0.00000
C          2.25640        0.00000        1.21160
O          3.46090        0.16870        1.19560
O          1.70060       -0.23030        2.41600
C          2.10740        0.01020       -1.21980
C          1.43890       -0.01150       -2.43300
C          0.03560       -0.05790       -2.43860
C         -0.67310       -0.05940       -1.26000
N         -0.65880       -0.07270        1.18580
C         -1.91130        0.35560        1.43920
C         -2.54340        1.51400        0.91600
Cl        -1.65510        2.50250       -0.16290
C         -3.81760        1.92280        1.28420
C         -4.43010        3.14760        0.68740
C         -4.52640        1.18440        2.23380
C         -3.93580        0.05950        2.81700
C         -2.67380       -0.32960        2.42920
Cl        -1.99450       -1.71920        3.16330
H          3.20060        0.03940       -1.20150
H          1.98420        0.00560       -3.36510
H         -0.49090       -0.09400       -3.38970
H         -1.75620       -0.11490       -1.26350
H          0.68920       -0.33140        2.38760
H         -3.83450        4.04130        0.92880
H         -5.44900        3.32740        1.04680
H         -4.47680        3.07630       -0.40930
H         -5.52230        1.48340        2.52830
H         -4.48400       -0.50170        3.57230
