rmsd22.gzmat
 OpenBabel08211713363D

 29 30  0  0  0  0  0  0  0  0999 V2000
    0.0000    0.0000    0.0000 C   0  0  0  0  0  0  0  0  0  0  0  0
    1.4205    0.0000    0.0000 C   0  0  0  0  0  0  0  0  0  0  0  0
    2.2557    0.0000    1.2121 C   0  0  0  0  0  0  0  0  0  0  0  0
    3.4544    0.2054    1.1990 O   0  0  0  0  0  0  0  0  0  0  0  0
    1.7060   -0.2730    2.4104 O   0  0  0  0  0  0  0  0  0  0  0  0
    2.1084    0.0172   -1.2187 C   0  0  0  0  0  0  0  0  0  0  0  0
    1.4398    0.0183   -2.4320 C   0  0  0  0  0  0  0  0  0  0  0  0
    0.0363   -0.0169   -2.4395 C   0  0  0  0  0  0  0  0  0  0  0  0
   -0.6730   -0.0352   -1.2607 C   0  0  0  0  0  0  0  0  0  0  0  0
   -0.6561   -0.0974    1.1866 N   0  0  0  0  0  0  0  0  0  0  0  0
   -1.9021    0.3376    1.4561 C   0  0  0  0  0  0  0  0  0  0  0  0
   -2.5333    1.5026    0.9456 C   0  0  0  0  0  0  0  0  0  0  0  0
   -1.6424    2.5035   -0.1195 Cl  0  0  0  0  0  0  0  0  0  0  0  0
   -3.8077    1.9073    1.3167 C   0  0  0  0  0  0  0  0  0  0  0  0
   -4.4252    3.1313    0.7229 C   0  0  0  0  0  0  0  0  0  0  0  0
   -4.5150    1.1624    2.2624 C   0  0  0  0  0  0  0  0  0  0  0  0
   -3.9211    0.0367    2.8413 C   0  0  0  0  0  0  0  0  0  0  0  0
   -2.6601   -0.3503    2.4487 C   0  0  0  0  0  0  0  0  0  0  0  0
   -1.9769   -1.7412    3.1774 Cl  0  0  0  0  0  0  0  0  0  0  0  0
    3.2019    0.0341   -1.1990 H   0  0  0  0  0  0  0  0  0  0  0  0
    1.9858    0.0454   -3.3633 H   0  0  0  0  0  0  0  0  0  0  0  0
   -0.4892   -0.0333   -3.3917 H   0  0  0  0  0  0  0  0  0  0  0  0
   -1.7565   -0.0876   -1.2654 H   0  0  0  0  0  0  0  0  0  0  0  0
    0.6961   -0.3906    2.3792 H   0  0  0  0  0  0  0  0  0  0  0  0
   -3.8354    4.0288    0.9657 H   0  0  0  0  0  0  0  0  0  0  0  0
   -5.4457    3.3049    1.0803 H   0  0  0  0  0  0  0  0  0  0  0  0
   -4.4711    3.0610   -0.3740 H   0  0  0  0  0  0  0  0  0  0  0  0
   -5.5127    1.4562    2.5548 H   0  0  0  0  0  0  0  0  0  0  0  0
   -4.4672   -0.5275    3.5959 H   0  0  0  0  0  0  0  0  0  0  0  0
  1 10  1  0  0  0  0
  2  1  1  0  0  0  0
  2  3  1  0  0  0  0
  3  5  1  0  0  0  0
  4  3  2  0  0  0  0
  6 20  1  0  0  0  0
  6  2  2  0  0  0  0
  7  6  1  0  0  0  0
  8  7  2  0  0  0  0
  8  9  1  0  0  0  0
  9  1  2  0  0  0  0
 10 11  1  0  0  0  0
 11 18  2  0  0  0  0
 12 14  2  0  0  0  0
 12 11  1  0  0  0  0
 13 12  1  0  0  0  0
 14 16  1  0  0  0  0
 15 25  1  0  0  0  0
 15 26  1  0  0  0  0
 15 14  1  0  0  0  0
 16 28  1  0  0  0  0
 16 17  2  0  0  0  0
 17 29  1  0  0  0  0
 18 17  1  0  0  0  0
 18 19  1  0  0  0  0
 21  7  1  0  0  0  0
 22  8  1  0  0  0  0
 23  9  1  0  0  0  0
 24  5  1  0  0  0  0
 27 15  1  0  0  0  0
M  RAD  1  10   2
M  END
$$$$
