rmsd27.gzmat
 OpenBabel08211713363D

 29 30  0  0  0  0  0  0  0  0999 V2000
    0.0000    0.0000    0.0000 C   0  0  0  0  0  0  0  0  0  0  0  0
    1.4219    0.0000    0.0000 C   0  0  0  0  0  0  0  0  0  0  0  0
    2.2592    0.0000    1.2106 C   0  0  0  0  0  0  0  0  0  0  0  0
    3.4618   -0.1819    1.1927 O   0  0  0  0  0  0  0  0  0  0  0  0
    1.7093    0.2459    2.4145 O   0  0  0  0  0  0  0  0  0  0  0  0
    2.1093   -0.0045   -1.2189 C   0  0  0  0  0  0  0  0  0  0  0  0
    1.4407    0.0110   -2.4322 C   0  0  0  0  0  0  0  0  0  0  0  0
    0.0371    0.0433   -2.4388 C   0  0  0  0  0  0  0  0  0  0  0  0
   -0.6728    0.0461   -1.2608 C   0  0  0  0  0  0  0  0  0  0  0  0
   -0.6508    0.0909    1.1872 N   0  0  0  0  0  0  0  0  0  0  0  0
   -1.9130   -0.2930    1.4609 C   0  0  0  0  0  0  0  0  0  0  0  0
   -2.5962   -1.4320    0.9614 C   0  0  0  0  0  0  0  0  0  0  0  0
   -1.7634   -2.4627   -0.1218 Cl  0  0  0  0  0  0  0  0  0  0  0  0
   -3.8774   -1.7901    1.3586 C   0  0  0  0  0  0  0  0  0  0  0  0
   -4.5476   -2.9967    0.7873 C   0  0  0  0  0  0  0  0  0  0  0  0
   -4.5425   -1.0160    2.3114 C   0  0  0  0  0  0  0  0  0  0  0  0
   -3.9001    0.0910    2.8735 C   0  0  0  0  0  0  0  0  0  0  0  0
   -2.6318    0.4284    2.4593 C   0  0  0  0  0  0  0  0  0  0  0  0
   -1.8862    1.7956    3.1718 Cl  0  0  0  0  0  0  0  0  0  0  0  0
    3.2030   -0.0219   -1.2008 H   0  0  0  0  0  0  0  0  0  0  0  0
    1.9867    0.0000   -3.3637 H   0  0  0  0  0  0  0  0  0  0  0  0
   -0.4871    0.0696   -3.3915 H   0  0  0  0  0  0  0  0  0  0  0  0
   -1.7562    0.0969   -1.2664 H   0  0  0  0  0  0  0  0  0  0  0  0
    0.6983    0.3535    2.3866 H   0  0  0  0  0  0  0  0  0  0  0  0
   -4.6480   -2.9151   -0.3051 H   0  0  0  0  0  0  0  0  0  0  0  0
   -5.5516   -3.1536    1.1965 H   0  0  0  0  0  0  0  0  0  0  0  0
   -3.9649   -3.9080    0.9923 H   0  0  0  0  0  0  0  0  0  0  0  0
   -5.5448   -1.2722    2.6233 H   0  0  0  0  0  0  0  0  0  0  0  0
   -4.4135    0.6795    3.6323 H   0  0  0  0  0  0  0  0  0  0  0  0
  1 10  1  0  0  0  0
  2  1  1  0  0  0  0
  2  3  1  0  0  0  0
  3  5  1  0  0  0  0
  4  3  2  0  0  0  0
  6 20  1  0  0  0  0
  6  2  2  0  0  0  0
  7  6  1  0  0  0  0
  8  7  2  0  0  0  0
  8  9  1  0  0  0  0
  9  1  2  0  0  0  0
 10 11  1  0  0  0  0
 11 18  2  0  0  0  0
 12 14  2  0  0  0  0
 12 11  1  0  0  0  0
 13 12  1  0  0  0  0
 14 16  1  0  0  0  0
 15 27  1  0  0  0  0
 15 26  1  0  0  0  0
 15 14  1  0  0  0  0
 16 28  1  0  0  0  0
 16 17  2  0  0  0  0
 17 29  1  0  0  0  0
 18 17  1  0  0  0  0
 18 19  1  0  0  0  0
 21  7  1  0  0  0  0
 22  8  1  0  0  0  0
 23  9  1  0  0  0  0
 24  5  1  0  0  0  0
 25 15  1  0  0  0  0
M  RAD  1  10   2
M  END
$$$$
