rmsd25.gzmat
 OpenBabel08211713363D

 29 30  0  0  0  0  0  0  0  0999 V2000
    0.0000    0.0000    0.0000 C   0  0  0  0  0  0  0  0  0  0  0  0
    1.4221    0.0000    0.0000 C   0  0  0  0  0  0  0  0  0  0  0  0
    2.2603    0.0000    1.2101 C   0  0  0  0  0  0  0  0  0  0  0  0
    3.4674   -0.1498    1.1884 O   0  0  0  0  0  0  0  0  0  0  0  0
    1.7054    0.2068    2.4191 O   0  0  0  0  0  0  0  0  0  0  0  0
    2.1083    0.0002   -1.2197 C   0  0  0  0  0  0  0  0  0  0  0  0
    1.4395    0.0251   -2.4329 C   0  0  0  0  0  0  0  0  0  0  0  0
    0.0363    0.0668   -2.4388 C   0  0  0  0  0  0  0  0  0  0  0  0
   -0.6730    0.0643   -1.2602 C   0  0  0  0  0  0  0  0  0  0  0  0
   -0.6509    0.0735    1.1882 N   0  0  0  0  0  0  0  0  0  0  0  0
   -1.9157   -0.3085    1.4546 C   0  0  0  0  0  0  0  0  0  0  0  0
   -2.6028   -1.4381    0.9391 C   0  0  0  0  0  0  0  0  0  0  0  0
   -1.7774   -2.4522   -0.1654 Cl  0  0  0  0  0  0  0  0  0  0  0  0
   -3.8836   -1.7999    1.3347 C   0  0  0  0  0  0  0  0  0  0  0  0
   -4.5568   -2.9969    0.7465 C   0  0  0  0  0  0  0  0  0  0  0  0
   -4.5449   -1.0390    2.3006 C   0  0  0  0  0  0  0  0  0  0  0  0
   -3.9009    0.0615    2.8736 C   0  0  0  0  0  0  0  0  0  0  0  0
   -2.6333    0.4031    2.4607 C   0  0  0  0  0  0  0  0  0  0  0  0
   -1.8886    1.7649    3.1839 Cl  0  0  0  0  0  0  0  0  0  0  0  0
    3.2018   -0.0209   -1.2023 H   0  0  0  0  0  0  0  0  0  0  0  0
    1.9854    0.0174   -3.3644 H   0  0  0  0  0  0  0  0  0  0  0  0
   -0.4896    0.1051   -3.3904 H   0  0  0  0  0  0  0  0  0  0  0  0
   -1.7558    0.1242   -1.2657 H   0  0  0  0  0  0  0  0  0  0  0  0
    0.6931    0.3045    2.3925 H   0  0  0  0  0  0  0  0  0  0  0  0
   -4.6682   -2.8934   -0.3431 H   0  0  0  0  0  0  0  0  0  0  0  0
   -5.5559   -3.1644    1.1634 H   0  0  0  0  0  0  0  0  0  0  0  0
   -3.9699   -3.9106    0.9280 H   0  0  0  0  0  0  0  0  0  0  0  0
   -5.5461   -1.2997    2.6137 H   0  0  0  0  0  0  0  0  0  0  0  0
   -4.4134    0.6413    3.6396 H   0  0  0  0  0  0  0  0  0  0  0  0
  1 10  1  0  0  0  0
  2  1  1  0  0  0  0
  2  3  1  0  0  0  0
  3  5  1  0  0  0  0
  4  3  2  0  0  0  0
  6 20  1  0  0  0  0
  6  2  2  0  0  0  0
  7  6  1  0  0  0  0
  8  7  2  0  0  0  0
  8  9  1  0  0  0  0
  9  1  2  0  0  0  0
 10 11  1  0  0  0  0
 11 18  2  0  0  0  0
 12 14  2  0  0  0  0
 12 11  1  0  0  0  0
 13 12  1  0  0  0  0
 14 16  1  0  0  0  0
 15 27  1  0  0  0  0
 15 26  1  0  0  0  0
 15 14  1  0  0  0  0
 16 28  1  0  0  0  0
 16 17  2  0  0  0  0
 17 29  1  0  0  0  0
 18 17  1  0  0  0  0
 18 19  1  0  0  0  0
 21  7  1  0  0  0  0
 22  8  1  0  0  0  0
 23  9  1  0  0  0  0
 24  5  1  0  0  0  0
 25 15  1  0  0  0  0
M  RAD  1  10   2
M  END
$$$$
