29
rmsd32.gzmat
C          0.00000        0.00000        0.00000
C          1.42090        0.00000        0.00000
C          2.25670        0.00000        1.21200
O          3.45800        0.19040        1.19710
O          1.70520       -0.25600        2.41320
C          2.10810        0.00920       -1.21910
C          1.43930       -0.00770       -2.43220
C          0.03600       -0.04590       -2.43860
C         -0.67300       -0.05160       -1.25990
N         -0.65570       -0.08570        1.18710
C         -1.90410        0.34090        1.45740
C         -2.55040        1.49510        0.94240
Cl        -1.68240        2.48830       -0.14850
C         -3.82100        1.89730        1.33030
C         -4.45250        3.11440        0.73750
C         -4.51100        1.15830        2.29330
C         -3.90480        0.03880        2.87060
C         -2.64790       -0.34500        2.46250
Cl        -1.94860       -1.72830        3.19040
H          3.20170        0.03330       -1.20150
H          1.98500        0.00670       -3.36380
H         -0.48940       -0.07390       -3.39060
H         -1.75620       -0.10610       -1.26460
H          0.69460       -0.36640        2.38420
H         -3.85900        4.01450        0.96010
H         -5.46500        3.29030        1.11700
H         -4.52100        3.03290       -0.35760
H         -5.50420        1.45210        2.60140
H         -4.43840       -0.52270        3.63580
