rmsd31.gzmat
 OpenBabel08211713363D

 43 45  0  0  0  0  0  0  0  0999 V2000
    0.0000    0.0000    0.0000 C   0  0  0  0  0  0  0  0  0  0  0  0
    1.3940    0.0000    0.0000 C   0  0  0  0  0  0  0  0  0  0  0  0
    2.0913    0.0000    1.2053 C   0  0  0  0  0  0  0  0  0  0  0  0
    1.3985    0.0048    2.4174 C   0  0  0  0  0  0  0  0  0  0  0  0
    0.0024   -0.0181    2.4145 C   0  0  0  0  0  0  0  0  0  0  0  0
   -0.6943   -0.0139    1.2079 C   0  0  0  0  0  0  0  0  0  0  0  0
    2.1309    0.0176    3.7436 C   0  0  0  0  0  0  0  0  0  0  0  0
    1.4327   -0.3685    4.5536 H   0  0  0  0  0  0  0  0  0  0  0  0
    2.5271    1.3804    4.1821 N   0  0  0  0  0  0  0  0  0  0  0  0
    1.4181    2.2408    4.5939 C   0  0  0  0  0  0  0  0  0  0  0  0
    0.7797    3.0674    3.4531 C   0  0  0  0  0  0  0  0  0  0  0  0
    1.8581    3.8897    2.7812 N   0  0  0  0  0  0  0  0  0  0  0  0
    2.3038    4.5154    3.5003 H   0  0  0  0  0  0  0  0  0  0  0  0
    1.2697    4.7263    1.6833 C   0  0  0  0  0  0  0  0  0  0  0  0
    2.9140    2.9602    2.2213 C   0  0  0  0  0  0  0  0  0  0  0  0
    3.5030    2.0895    3.3563 C   0  0  0  0  0  0  0  0  0  0  0  0
    3.3220   -0.9216    3.7717 C   0  0  0  0  0  0  0  0  0  0  0  0
    4.4111   -0.6689    4.6075 C   0  0  0  0  0  0  0  0  0  0  0  0
    5.4812   -1.5599    4.6519 C   0  0  0  0  0  0  0  0  0  0  0  0
    5.4579   -2.7205    3.8821 C   0  0  0  0  0  0  0  0  0  0  0  0
    4.3547   -2.9937    3.0753 C   0  0  0  0  0  0  0  0  0  0  0  0
    3.2880   -2.1001    3.0227 C   0  0  0  0  0  0  0  0  0  0  0  0
   -0.5461   -0.0143   -0.9450 H   0  0  0  0  0  0  0  0  0  0  0  0
    1.9395   -0.0256   -0.9449 H   0  0  0  0  0  0  0  0  0  0  0  0
    3.1818   -0.0449    1.2021 H   0  0  0  0  0  0  0  0  0  0  0  0
   -0.5491   -0.0702    3.3529 H   0  0  0  0  0  0  0  0  0  0  0  0
   -1.7854   -0.0443    1.2097 H   0  0  0  0  0  0  0  0  0  0  0  0
    1.8055    2.9194    5.3947 H   0  0  0  0  0  0  0  0  0  0  0  0
    0.6239    1.6291    5.0889 H   0  0  0  0  0  0  0  0  0  0  0  0
   -0.0177    3.7334    3.8483 H   0  0  0  0  0  0  0  0  0  0  0  0
    0.2984    2.3936    2.7036 H   0  0  0  0  0  0  0  0  0  0  0  0
    0.7958    4.1009    0.9022 H   0  0  0  0  0  0  0  0  0  0  0  0
    2.0478    5.3416    1.1903 H   0  0  0  0  0  0  0  0  0  0  0  0
    0.4941    5.4129    2.0745 H   0  0  0  0  0  0  0  0  0  0  0  0
    2.4603    2.3179    1.4297 H   0  0  0  0  0  0  0  0  0  0  0  0
    3.7191    3.5538    1.7347 H   0  0  0  0  0  0  0  0  0  0  0  0
    4.2214    1.3531    2.9099 H   0  0  0  0  0  0  0  0  0  0  0  0
    4.1192    2.7210    4.0441 H   0  0  0  0  0  0  0  0  0  0  0  0
    4.4221    0.2162    5.2436 H   0  0  0  0  0  0  0  0  0  0  0  0
    6.3329   -1.3505    5.2990 H   0  0  0  0  0  0  0  0  0  0  0  0
    6.2944   -3.4189    3.9188 H   0  0  0  0  0  0  0  0  0  0  0  0
    4.3206   -3.9121    2.4878 H   0  0  0  0  0  0  0  0  0  0  0  0
    2.4250   -2.3345    2.3989 H   0  0  0  0  0  0  0  0  0  0  0  0
  1  6  1  0  0  0  0
  2  1  2  0  0  0  0
  2  3  1  0  0  0  0
  3  4  2  0  0  0  0
  4  7  1  0  0  0  0
  5  4  1  0  0  0  0
  5 26  1  0  0  0  0
  6 27  1  0  0  0  0
  6  5  2  0  0  0  0
  7 17  1  0  0  0  0
  7  9  1  0  0  0  0
  7  8  1  0  0  0  0
  9 10  1  0  0  0  0
 10 29  1  0  0  0  0
 10 28  1  0  0  0  0
 11 30  1  0  0  0  0
 11 10  1  0  0  0  0
 12 11  1  0  0  0  0
 12 13  1  0  0  0  0
 14 34  1  0  0  0  0
 14 12  1  0  0  0  0
 15 12  1  0  0  0  0
 15 16  1  0  0  0  0
 16 38  1  0  0  0  0
 16  9  1  0  0  0  0
 17 18  2  0  0  0  0
 18 19  1  0  0  0  0
 18 39  1  0  0  0  0
 19 40  1  0  0  0  0
 20 41  1  0  0  0  0
 20 19  2  0  0  0  0
 21 20  1  0  0  0  0
 22 21  2  0  0  0  0
 22 17  1  0  0  0  0
 23  1  1  0  0  0  0
 24  2  1  0  0  0  0
 25  3  1  0  0  0  0
 31 11  1  0  0  0  0
 32 14  1  0  0  0  0
 33 14  1  0  0  0  0
 35 15  1  0  0  0  0
 36 15  1  0  0  0  0
 37 16  1  0  0  0  0
 42 21  1  0  0  0  0
 43 22  1  0  0  0  0
M  END
$$$$
