43
rmsd31.gzmat
C          0.00000        0.00000        0.00000
C          1.39400        0.00000        0.00000
C          2.09130        0.00000        1.20530
C          1.39850        0.00480        2.41740
C          0.00240       -0.01810        2.41450
C         -0.69430       -0.01390        1.20790
C          2.13090        0.01760        3.74360
H          1.43270       -0.36850        4.55360
N          2.52710        1.38040        4.18210
C          1.41810        2.24080        4.59390
C          0.77970        3.06740        3.45310
N          1.85810        3.88970        2.78120
H          2.30380        4.51540        3.50030
C          1.26970        4.72630        1.68330
C          2.91400        2.96020        2.22130
C          3.50300        2.08950        3.35630
C          3.32200       -0.92160        3.77170
C          4.41110       -0.66890        4.60750
C          5.48120       -1.55990        4.65190
C          5.45790       -2.72050        3.88210
C          4.35470       -2.99370        3.07530
C          3.28800       -2.10010        3.02270
H         -0.54610       -0.01430       -0.94500
H          1.93950       -0.02560       -0.94490
H          3.18180       -0.04490        1.20210
H         -0.54910       -0.07020        3.35290
H         -1.78540       -0.04430        1.20970
H          1.80550        2.91940        5.39470
H          0.62390        1.62910        5.08890
H         -0.01770        3.73340        3.84830
H          0.29840        2.39360        2.70360
H          0.79580        4.10090        0.90220
H          2.04780        5.34160        1.19030
H          0.49410        5.41290        2.07450
H          2.46030        2.31790        1.42970
H          3.71910        3.55380        1.73470
H          4.22140        1.35310        2.90990
H          4.11920        2.72100        4.04410
H          4.42210        0.21620        5.24360
H          6.33290       -1.35050        5.29900
H          6.29440       -3.41890        3.91880
H          4.32060       -3.91210        2.48780
H          2.42500       -2.33450        2.39890
