rmsd27.gzmat
 OpenBabel08211713363D

 43 45  0  0  0  0  0  0  0  0999 V2000
    0.0000    0.0000    0.0000 C   0  0  0  0  0  0  0  0  0  0  0  0
    1.3936    0.0000    0.0000 C   0  0  0  0  0  0  0  0  0  0  0  0
    2.0929    0.0000    1.2044 C   0  0  0  0  0  0  0  0  0  0  0  0
    1.4008    0.0196    2.4174 C   0  0  0  0  0  0  0  0  0  0  0  0
    0.0053   -0.0295    2.4147 C   0  0  0  0  0  0  0  0  0  0  0  0
   -0.6923   -0.0286    1.2091 C   0  0  0  0  0  0  0  0  0  0  0  0
    2.1667    0.0016    3.7268 C   0  0  0  0  0  0  0  0  0  0  0  0
    2.3040   -1.0984    3.9766 H   0  0  0  0  0  0  0  0  0  0  0  0
    1.3280    0.5551    4.8215 N   0  0  0  0  0  0  0  0  0  0  0  0
    0.9264    1.9561    4.7055 C   0  0  0  0  0  0  0  0  0  0  0  0
    1.9004    2.9827    5.3290 C   0  0  0  0  0  0  0  0  0  0  0  0
    2.2031    2.5998    6.7620 N   0  0  0  0  0  0  0  0  0  0  0  0
    1.3067    2.6069    7.3125 H   0  0  0  0  0  0  0  0  0  0  0  0
    3.1700    3.5776    7.3627 C   0  0  0  0  0  0  0  0  0  0  0  0
    2.7846    1.2025    6.7934 C   0  0  0  0  0  0  0  0  0  0  0  0
    1.7678    0.2146    6.1739 C   0  0  0  0  0  0  0  0  0  0  0  0
    3.5285    0.6581    3.6300 C   0  0  0  0  0  0  0  0  0  0  0  0
    4.6192    0.0478    4.2523 C   0  0  0  0  0  0  0  0  0  0  0  0
    5.8763    0.6467    4.2054 C   0  0  0  0  0  0  0  0  0  0  0  0
    6.0522    1.8503    3.5259 C   0  0  0  0  0  0  0  0  0  0  0  0
    4.9720    2.4456    2.8768 C   0  0  0  0  0  0  0  0  0  0  0  0
    3.7142    1.8498    2.9267 C   0  0  0  0  0  0  0  0  0  0  0  0
   -0.5466    0.0104   -0.9432 H   0  0  0  0  0  0  0  0  0  0  0  0
    1.9407   -0.0048   -0.9438 H   0  0  0  0  0  0  0  0  0  0  0  0
    3.1829   -0.0245    1.1895 H   0  0  0  0  0  0  0  0  0  0  0  0
   -0.5433   -0.0848    3.3555 H   0  0  0  0  0  0  0  0  0  0  0  0
   -1.7816   -0.0604    1.2149 H   0  0  0  0  0  0  0  0  0  0  0  0
   -0.0847    2.0495    5.1748 H   0  0  0  0  0  0  0  0  0  0  0  0
    0.7742    2.2124    3.6244 H   0  0  0  0  0  0  0  0  0  0  0  0
    1.4602    4.0036    5.2953 H   0  0  0  0  0  0  0  0  0  0  0  0
    2.8526    3.0222    4.7483 H   0  0  0  0  0  0  0  0  0  0  0  0
    4.1374    3.5761    6.8244 H   0  0  0  0  0  0  0  0  0  0  0  0
    3.3776    3.3345    8.4224 H   0  0  0  0  0  0  0  0  0  0  0  0
    2.7703    4.6096    7.3243 H   0  0  0  0  0  0  0  0  0  0  0  0
    3.7438    1.1829    6.2215 H   0  0  0  0  0  0  0  0  0  0  0  0
    3.0248    0.9139    7.8395 H   0  0  0  0  0  0  0  0  0  0  0  0
    2.2060   -0.8139    6.1852 H   0  0  0  0  0  0  0  0  0  0  0  0
    0.8517    0.1483    6.8129 H   0  0  0  0  0  0  0  0  0  0  0  0
    4.5001   -0.9138    4.7514 H   0  0  0  0  0  0  0  0  0  0  0  0
    6.7287    0.1594    4.6822 H   0  0  0  0  0  0  0  0  0  0  0  0
    7.0396    2.3133    3.4797 H   0  0  0  0  0  0  0  0  0  0  0  0
    5.1155    3.3656    2.3075 H   0  0  0  0  0  0  0  0  0  0  0  0
    2.8807    2.2966    2.3816 H   0  0  0  0  0  0  0  0  0  0  0  0
  1  6  1  0  0  0  0
  2  1  2  0  0  0  0
  2  3  1  0  0  0  0
  3  4  2  0  0  0  0
  4  7  1  0  0  0  0
  5  4  1  0  0  0  0
  5 26  1  0  0  0  0
  6 27  1  0  0  0  0
  6  5  2  0  0  0  0
  7  8  1  0  0  0  0
  7  9  1  0  0  0  0
  9 16  1  0  0  0  0
 10  9  1  0  0  0  0
 10 28  1  0  0  0  0
 10 11  1  0  0  0  0
 11 12  1  0  0  0  0
 12 15  1  0  0  0  0
 12 13  1  0  0  0  0
 12 14  1  0  0  0  0
 14 33  1  0  0  0  0
 15 36  1  0  0  0  0
 16 37  1  0  0  0  0
 16 15  1  0  0  0  0
 16 38  1  0  0  0  0
 17  7  1  0  0  0  0
 17 18  2  0  0  0  0
 18 39  1  0  0  0  0
 19 18  1  0  0  0  0
 19 40  1  0  0  0  0
 20 19  2  0  0  0  0
 21 22  2  0  0  0  0
 21 20  1  0  0  0  0
 22 17  1  0  0  0  0
 23  1  1  0  0  0  0
 24  2  1  0  0  0  0
 25  3  1  0  0  0  0
 29 10  1  0  0  0  0
 30 11  1  0  0  0  0
 31 11  1  0  0  0  0
 32 14  1  0  0  0  0
 34 14  1  0  0  0  0
 35 15  1  0  0  0  0
 41 20  1  0  0  0  0
 42 21  1  0  0  0  0
 43 22  1  0  0  0  0
M  END
$$$$
