rmsd34.gzmat
 OpenBabel08211713363D

 43 45  0  0  0  0  0  0  0  0999 V2000
    0.0000    0.0000    0.0000 C   0  0  0  0  0  0  0  0  0  0  0  0
    1.3935    0.0000    0.0000 C   0  0  0  0  0  0  0  0  0  0  0  0
    2.0935    0.0000    1.2041 C   0  0  0  0  0  0  0  0  0  0  0  0
    1.4018    0.0169    2.4169 C   0  0  0  0  0  0  0  0  0  0  0  0
    0.0058   -0.0180    2.4145 C   0  0  0  0  0  0  0  0  0  0  0  0
   -0.6925   -0.0182    1.2093 C   0  0  0  0  0  0  0  0  0  0  0  0
    2.1674   -0.0314    3.7255 C   0  0  0  0  0  0  0  0  0  0  0  0
    2.2788   -1.1371    3.9632 H   0  0  0  0  0  0  0  0  0  0  0  0
    1.3382    0.5298    4.8235 N   0  0  0  0  0  0  0  0  0  0  0  0
    0.9829    1.9447    4.7278 C   0  0  0  0  0  0  0  0  0  0  0  0
    1.9764    2.9297    5.3876 C   0  0  0  0  0  0  0  0  0  0  0  0
    2.2526    2.5028    6.8137 N   0  0  0  0  0  0  0  0  0  0  0  0
    1.3495    2.5199    7.3533 H   0  0  0  0  0  0  0  0  0  0  0  0
    3.2359    3.4389    7.4521 C   0  0  0  0  0  0  0  0  0  0  0  0
    2.7968    1.0904    6.8169 C   0  0  0  0  0  0  0  0  0  0  0  0
    1.7540    0.1482    6.1723 C   0  0  0  0  0  0  0  0  0  0  0  0
    3.5445    0.5938    3.6416 C   0  0  0  0  0  0  0  0  0  0  0  0
    4.6214   -0.0558    4.2482 C   0  0  0  0  0  0  0  0  0  0  0  0
    5.8883    0.5244    4.2315 C   0  0  0  0  0  0  0  0  0  0  0  0
    6.0878    1.7493    3.5983 C   0  0  0  0  0  0  0  0  0  0  0  0
    5.0231    2.3803    2.9567 C   0  0  0  0  0  0  0  0  0  0  0  0
    3.7567    1.8011    2.9734 C   0  0  0  0  0  0  0  0  0  0  0  0
   -0.5467    0.0007   -0.9435 H   0  0  0  0  0  0  0  0  0  0  0  0
    1.9405   -0.0086   -0.9435 H   0  0  0  0  0  0  0  0  0  0  0  0
    3.1831   -0.0255    1.1887 H   0  0  0  0  0  0  0  0  0  0  0  0
   -0.5434   -0.0640    3.3549 H   0  0  0  0  0  0  0  0  0  0  0  0
   -1.7818   -0.0456    1.2151 H   0  0  0  0  0  0  0  0  0  0  0  0
   -0.0324    2.0628    5.1820 H   0  0  0  0  0  0  0  0  0  0  0  0
    0.8572    2.2239    3.6490 H   0  0  0  0  0  0  0  0  0  0  0  0
    1.5621    3.9621    5.3763 H   0  0  0  0  0  0  0  0  0  0  0  0
    2.9356    2.9610    4.8182 H   0  0  0  0  0  0  0  0  0  0  0  0
    4.2077    3.4348    6.9211 H   0  0  0  0  0  0  0  0  0  0  0  0
    3.4302    3.1562    8.5046 H   0  0  0  0  0  0  0  0  0  0  0  0
    2.8567    4.4793    7.4439 H   0  0  0  0  0  0  0  0  0  0  0  0
    3.7565    1.0550    6.2465 H   0  0  0  0  0  0  0  0  0  0  0  0
    3.0265    0.7746    7.8575 H   0  0  0  0  0  0  0  0  0  0  0  0
    2.1585   -0.8941    6.1664 H   0  0  0  0  0  0  0  0  0  0  0  0
    0.8305    0.0995    6.8023 H   0  0  0  0  0  0  0  0  0  0  0  0
    4.4837   -1.0320    4.7131 H   0  0  0  0  0  0  0  0  0  0  0  0
    6.7293    0.0074    4.6972 H   0  0  0  0  0  0  0  0  0  0  0  0
    7.0813    2.2012    3.5823 H   0  0  0  0  0  0  0  0  0  0  0  0
    5.1856    3.3171    2.4208 H   0  0  0  0  0  0  0  0  0  0  0  0
    2.9357    2.2759    2.4333 H   0  0  0  0  0  0  0  0  0  0  0  0
  1  6  1  0  0  0  0
  2  1  2  0  0  0  0
  2  3  1  0  0  0  0
  3  4  2  0  0  0  0
  4  7  1  0  0  0  0
  5  4  1  0  0  0  0
  5 26  1  0  0  0  0
  6 27  1  0  0  0  0
  6  5  2  0  0  0  0
  7  8  1  0  0  0  0
  7  9  1  0  0  0  0
  9 16  1  0  0  0  0
 10  9  1  0  0  0  0
 10 28  1  0  0  0  0
 10 11  1  0  0  0  0
 11 12  1  0  0  0  0
 12 15  1  0  0  0  0
 12 13  1  0  0  0  0
 12 14  1  0  0  0  0
 14 33  1  0  0  0  0
 15 36  1  0  0  0  0
 16 38  1  0  0  0  0
 16 15  1  0  0  0  0
 17  7  1  0  0  0  0
 17 18  2  0  0  0  0
 18 39  1  0  0  0  0
 19 18  1  0  0  0  0
 19 40  1  0  0  0  0
 20 19  2  0  0  0  0
 21 22  2  0  0  0  0
 21 20  1  0  0  0  0
 22 17  1  0  0  0  0
 23  1  1  0  0  0  0
 24  2  1  0  0  0  0
 25  3  1  0  0  0  0
 29 10  1  0  0  0  0
 30 11  1  0  0  0  0
 31 11  1  0  0  0  0
 32 14  1  0  0  0  0
 34 14  1  0  0  0  0
 35 15  1  0  0  0  0
 37 16  1  0  0  0  0
 41 20  1  0  0  0  0
 42 21  1  0  0  0  0
 43 22  1  0  0  0  0
M  END
$$$$
