34

O          0.02140        0.02280        0.03240
C          1.37570       -0.00760        0.01360
C          2.03220       -0.03240        1.24970
C          3.42710       -0.03350        1.30920
O          4.09090       -0.05690        2.49850
C          4.20620       -0.00450        0.13400
C          5.71320       -0.02950        0.21270
C          6.27910       -1.42040        0.53020
C          3.52470        0.00900       -1.08240
C          2.12380       -0.00650       -1.18130
C          1.45390        0.03510       -2.49580
N          1.75640        0.98820       -3.38440
N          0.97830        0.73940       -4.44550
H          1.03330        1.35060       -5.25080
C          0.16940       -0.33640       -4.28420
C          0.44910       -0.84810       -3.02150
C         -0.13940       -2.06010       -2.46200
C          0.22050       -2.78010       -1.33480
N         -0.65340       -3.84330       -1.28760
H         -0.67170       -4.56420       -0.57720
C         -1.49080       -3.73600       -2.36280
N         -1.20840       -2.67870       -3.08580
H         -0.31230        0.02800       -0.87770
H          1.42800       -0.03070        2.16070
H          3.45090       -0.04140        3.22160
H          6.04880        0.67920        0.98760
H          6.12460        0.32820       -0.74500
H          5.90120       -1.78030        1.49910
H          7.38000       -1.40070        0.58010
H          5.98550       -2.15010       -0.24160
H          4.09880        0.03430       -2.01150
H         -0.52160       -0.68810       -5.04530
H          0.99950       -2.62920       -0.59440
H         -2.28390       -4.45690       -2.56050
