34
rmsd164.gzmat
O          0.00000        0.00000        0.00000
C          1.34940        0.00000        0.00000
C          1.93440        0.00000        1.27060
C          3.32440        0.01640        1.33820
O          3.97460        0.01740        2.52880
C          4.14210        0.02620        0.19320
C          5.63090        0.06950        0.31600
C          6.13650        1.50720        0.15720
C          3.52030        0.02590       -1.04950
C          2.12440        0.00430       -1.17100
C          1.51180        0.02920       -2.48210
N          1.82460        0.97700       -3.40610
N          1.07060        0.72060       -4.50460
H          1.13910        1.33750       -5.28740
C          0.25360       -0.37430       -4.31820
C          0.51630       -0.85660       -3.02830
C         -0.08230       -1.99860       -2.41730
C          0.40420       -2.80810       -1.38350
N         -0.56040       -3.78830       -1.17050
H         -0.50930       -4.50660       -0.48530
C         -1.60060       -3.55220       -2.07430
N         -1.32530       -2.48160       -2.83060
H         -0.38040       -0.08280       -0.91680
H          1.30740       -0.00070        2.15420
H          3.35020        0.00500        3.29460
H          6.10710       -0.58720       -0.43950
H          5.95590       -0.33390        1.29890
H          5.83170        1.93440       -0.80510
H          7.22790        1.55500        0.21690
H          5.73080        2.15440        0.94420
H          4.12540        0.04940       -1.96010
H         -0.43640       -0.74650       -5.05340
H          1.31630       -2.74650       -0.82570
H         -2.48840       -4.15690       -2.13560
