rmsd189.gzmat
 OpenBabel08211713423D

 34 36  0  0  0  0  0  0  0  0999 V2000
    0.0000    0.0000    0.0000 O   0  0  0  0  0  0  0  0  0  0  0  0
    1.3498    0.0000    0.0000 C   0  0  0  0  0  0  0  0  0  0  0  0
    1.9407    0.0000    1.2671 C   0  0  0  0  0  0  0  0  0  0  0  0
    3.3318   -0.0151    1.3286 C   0  0  0  0  0  0  0  0  0  0  0  0
    3.9855   -0.0160    2.5176 O   0  0  0  0  0  0  0  0  0  0  0  0
    4.1438   -0.0226    0.1802 C   0  0  0  0  0  0  0  0  0  0  0  0
    5.6344   -0.0539    0.2839 C   0  0  0  0  0  0  0  0  0  0  0  0
    6.1694   -1.4524   -0.0413 C   0  0  0  0  0  0  0  0  0  0  0  0
    3.5155   -0.0202   -1.0599 C   0  0  0  0  0  0  0  0  0  0  0  0
    2.1201   -0.0024   -1.1745 C   0  0  0  0  0  0  0  0  0  0  0  0
    1.4962   -0.0300   -2.4800 C   0  0  0  0  0  0  0  0  0  0  0  0
    1.7721   -1.0007   -3.3917 N   0  0  0  0  0  0  0  0  0  0  0  0
    1.0096   -0.7429   -4.4838 N   0  0  0  0  0  0  0  0  0  0  0  0
    1.0524   -1.3743   -5.2568 H   0  0  0  0  0  0  0  0  0  0  0  0
    0.2248    0.3767   -4.3055 C   0  0  0  0  0  0  0  0  0  0  0  0
    0.5172    0.8734   -3.0273 C   0  0  0  0  0  0  0  0  0  0  0  0
   -0.0376    2.0470   -2.4352 C   0  0  0  0  0  0  0  0  0  0  0  0
    0.4489    2.8251   -1.3776 C   0  0  0  0  0  0  0  0  0  0  0  0
   -0.4606    3.8653   -1.2094 N   0  0  0  0  0  0  0  0  0  0  0  0
   -0.3998    4.5783   -0.5196 H   0  0  0  0  0  0  0  0  0  0  0  0
   -1.4680    3.6960   -2.1637 C   0  0  0  0  0  0  0  0  0  0  0  0
   -1.2263    2.6084   -2.9068 N   0  0  0  0  0  0  0  0  0  0  0  0
   -0.3765    0.0692   -0.9200 H   0  0  0  0  0  0  0  0  0  0  0  0
    1.3173   -0.0013    2.1531 H   0  0  0  0  0  0  0  0  0  0  0  0
    3.3617   -0.0072    3.2844 H   0  0  0  0  0  0  0  0  0  0  0  0
    5.9675    0.2458    1.3003 H   0  0  0  0  0  0  0  0  0  0  0  0
    6.0836    0.6920   -0.4032 H   0  0  0  0  0  0  0  0  0  0  0  0
    5.7833   -2.1957    0.6663 H   0  0  0  0  0  0  0  0  0  0  0  0
    7.2620   -1.4818    0.0073 H   0  0  0  0  0  0  0  0  0  0  0  0
    5.8678   -1.7713   -1.0459 H   0  0  0  0  0  0  0  0  0  0  0  0
    4.1170   -0.0376   -1.9730 H   0  0  0  0  0  0  0  0  0  0  0  0
   -0.4626    0.7577   -5.0387 H   0  0  0  0  0  0  0  0  0  0  0  0
    1.3280    2.7082   -0.7769 H   0  0  0  0  0  0  0  0  0  0  0  0
   -2.3077    4.3598   -2.2700 H   0  0  0  0  0  0  0  0  0  0  0  0
  2  1  1  0  0  0  0
  2  3  2  0  0  0  0
  3  4  1  0  0  0  0
  3 24  1  0  0  0  0
  4  5  1  0  0  0  0
  5 25  1  0  0  0  0
  6  7  1  0  0  0  0
  6  4  2  0  0  0  0
  7 26  1  0  0  0  0
  8 29  1  0  0  0  0
  8  7  1  0  0  0  0
  8 28  1  0  0  0  0
  9  6  1  0  0  0  0
 10  9  2  0  0  0  0
 10  2  1  0  0  0  0
 11 10  1  0  0  0  0
 12 11  2  0  0  0  0
 13 15  1  0  0  0  0
 13 12  1  0  0  0  0
 14 13  1  0  0  0  0
 15 16  2  0  0  0  0
 16 11  1  0  0  0  0
 16 17  1  0  0  0  0
 17 18  1  0  0  0  0
 18 19  1  0  0  0  0
 18 33  1  0  0  0  0
 19 20  1  0  0  0  0
 21 19  1  0  0  0  0
 22 17  2  0  0  0  0
 22 21  2  0  0  0  0
 23  1  1  0  0  0  0
 27  7  1  0  0  0  0
 30  8  1  0  0  0  0
 31  9  1  0  0  0  0
 32 15  1  0  0  0  0
 34 21  1  0  0  0  0
M  RAD  1  18   2
M  END
$$$$
