
     RDKit          3D

 34 36  0  0  0  0  0  0  0  0999 V2000
    0.0214    0.0228    0.0324 O   0  0  0  0  0  0  0  0  0  0  0  0
    1.3757   -0.0076    0.0136 C   0  0  0  0  0  0  0  0  0  0  0  0
    2.0322   -0.0324    1.2497 C   0  0  0  0  0  0  0  0  0  0  0  0
    3.4271   -0.0335    1.3092 C   0  0  0  0  0  0  0  0  0  0  0  0
    4.0909   -0.0569    2.4985 O   0  0  0  0  0  0  0  0  0  0  0  0
    4.2062   -0.0045    0.1340 C   0  0  0  0  0  0  0  0  0  0  0  0
    5.7132   -0.0295    0.2127 C   0  0  0  0  0  0  0  0  0  0  0  0
    6.2791   -1.4204    0.5302 C   0  0  0  0  0  0  0  0  0  0  0  0
    3.5247    0.0090   -1.0824 C   0  0  0  0  0  0  0  0  0  0  0  0
    2.1238   -0.0065   -1.1813 C   0  0  0  0  0  0  0  0  0  0  0  0
    1.4539    0.0351   -2.4958 C   0  0  0  0  0  0  0  0  0  0  0  0
    1.7564    0.9882   -3.3844 N   0  0  0  0  0  0  0  0  0  0  0  0
    0.9783    0.7394   -4.4455 N   0  0  0  0  0  0  0  0  0  0  0  0
    1.0333    1.3506   -5.2508 H   0  0  0  0  0  0  0  0  0  0  0  0
    0.1694   -0.3364   -4.2842 C   0  0  0  0  0  0  0  0  0  0  0  0
    0.4491   -0.8481   -3.0215 C   0  0  0  0  0  0  0  0  0  0  0  0
   -0.1394   -2.0601   -2.4620 C   0  0  0  0  0  0  0  0  0  0  0  0
    0.2205   -2.7801   -1.3348 C   0  0  0  0  0  0  0  0  0  0  0  0
   -0.6534   -3.8433   -1.2876 N   0  0  0  0  0  0  0  0  0  0  0  0
   -0.6717   -4.5642   -0.5772 H   0  0  0  0  0  0  0  0  0  0  0  0
   -1.4908   -3.7360   -2.3628 C   0  0  0  0  0  0  0  0  0  0  0  0
   -1.2084   -2.6787   -3.0858 N   0  0  0  0  0  0  0  0  0  0  0  0
   -0.3123    0.0280   -0.8777 H   0  0  0  0  0  0  0  0  0  0  0  0
    1.4280   -0.0307    2.1607 H   0  0  0  0  0  0  0  0  0  0  0  0
    3.4509   -0.0414    3.2216 H   0  0  0  0  0  0  0  0  0  0  0  0
    6.0488    0.6792    0.9876 H   0  0  0  0  0  0  0  0  0  0  0  0
    6.1246    0.3282   -0.7450 H   0  0  0  0  0  0  0  0  0  0  0  0
    5.9012   -1.7803    1.4991 H   0  0  0  0  0  0  0  0  0  0  0  0
    7.3800   -1.4007    0.5801 H   0  0  0  0  0  0  0  0  0  0  0  0
    5.9855   -2.1501   -0.2416 H   0  0  0  0  0  0  0  0  0  0  0  0
    4.0988    0.0343   -2.0115 H   0  0  0  0  0  0  0  0  0  0  0  0
   -0.5216   -0.6881   -5.0453 H   0  0  0  0  0  0  0  0  0  0  0  0
    0.9995   -2.6292   -0.5944 H   0  0  0  0  0  0  0  0  0  0  0  0
   -2.2839   -4.4569   -2.5605 H   0  0  0  0  0  0  0  0  0  0  0  0
  1  2  1  0
  1 23  1  0
  2  3  2  0
  2 10  1  0
  3  4  1  0
  3 24  1  0
  4  5  1  0
  4  6  2  0
  5 25  1  0
  6  7  1  0
  6  9  1  0
  7  8  1  0
  7 26  1  0
  7 27  1  0
  8 28  1  0
  8 29  1  0
  8 30  1  0
  9 10  2  0
  9 31  1  0
 10 11  1  0
 11 12  2  0
 11 16  1  0
 12 13  1  0
 13 14  1  0
 13 15  1  0
 15 16  2  0
 15 32  1  0
 16 17  1  0
 17 18  2  0
 17 22  1  0
 18 19  1  0
 18 33  1  0
 19 20  1  0
 19 21  1  0
 21 22  2  0
 21 34  1  0
M  END

