34
rmsd189.gzmat
O          0.00000        0.00000        0.00000
C          1.34980        0.00000        0.00000
C          1.94070        0.00000        1.26710
C          3.33180       -0.01510        1.32860
O          3.98550       -0.01600        2.51760
C          4.14380       -0.02260        0.18020
C          5.63440       -0.05390        0.28390
C          6.16940       -1.45240       -0.04130
C          3.51550       -0.02020       -1.05990
C          2.12010       -0.00240       -1.17450
C          1.49620       -0.03000       -2.48000
N          1.77210       -1.00070       -3.39170
N          1.00960       -0.74290       -4.48380
H          1.05240       -1.37430       -5.25680
C          0.22480        0.37670       -4.30550
C          0.51720        0.87340       -3.02730
C         -0.03760        2.04700       -2.43520
C          0.44890        2.82510       -1.37760
N         -0.46060        3.86530       -1.20940
H         -0.39980        4.57830       -0.51960
C         -1.46800        3.69600       -2.16370
N         -1.22630        2.60840       -2.90680
H         -0.37650        0.06920       -0.92000
H          1.31730       -0.00130        2.15310
H          3.36170       -0.00720        3.28440
H          5.96750        0.24580        1.30030
H          6.08360        0.69200       -0.40320
H          5.78330       -2.19570        0.66630
H          7.26200       -1.48180        0.00730
H          5.86780       -1.77130       -1.04590
H          4.11700       -0.03760       -1.97300
H         -0.46260        0.75770       -5.03870
H          1.32800        2.70820       -0.77690
H         -2.30770        4.35980       -2.27000
