34
rmsd126.gzmat
O          0.00000        0.00000        0.00000
C          1.34990        0.00000        0.00000
C          1.93970        0.00000        1.26820
C          3.33060       -0.01270        1.32920
O          3.98920       -0.01940        2.51510
C          4.14200       -0.02010        0.17980
C          5.63170       -0.01560        0.29430
C          6.16150        1.42240        0.28950
C          3.51580       -0.02140       -1.06050
C          2.11990       -0.00390       -1.17440
C          1.49510       -0.02910       -2.47970
N          1.75950       -1.00320       -3.39090
N          0.99800       -0.73770       -4.48200
H          1.03020       -1.36790       -5.25630
C          0.22550        0.39070       -4.30340
C          0.52480        0.88460       -3.02600
C         -0.01970        2.05930       -2.42660
C          0.45990        2.80970       -1.34580
N         -0.43950        3.85710       -1.16930
H         -0.37860        4.55450       -0.46350
C         -1.43360        3.72060       -2.14270
N         -1.19350        2.64580       -2.90520
H         -0.37680        0.07960       -0.91910
H          1.31520       -0.00070        2.15340
H          3.36970       -0.04450        3.28500
H          6.09070       -0.59270       -0.53370
H          5.95340       -0.53060        1.22500
H          5.87710        1.94840       -0.62880
H          7.25260        1.44520        0.36630
H          5.75700        1.99010        1.13640
H          4.11820       -0.03910       -1.97280
H         -0.45870        0.77580       -5.03740
H          1.32810        2.66830       -0.73480
H         -2.26430        4.39590       -2.24760
