
     RDKit          3D

 34 36  0  0  0  0  0  0  0  0999 V2000
    0.0214   -0.0108    0.0732 O   0  0  0  0  0  0  0  0  0  0  0  0
    1.3762   -0.0070    0.0599 C   0  0  0  0  0  0  0  0  0  0  0  0
    2.0281   -0.0356    1.2984 C   0  0  0  0  0  0  0  0  0  0  0  0
    3.4224   -0.0659    1.3625 C   0  0  0  0  0  0  0  0  0  0  0  0
    4.0816   -0.0996    2.5541 O   0  0  0  0  0  0  0  0  0  0  0  0
    4.2058   -0.0628    0.1898 C   0  0  0  0  0  0  0  0  0  0  0  0
    5.7113   -0.1354    0.2733 C   0  0  0  0  0  0  0  0  0  0  0  0
    6.2300   -1.5430    0.5981 C   0  0  0  0  0  0  0  0  0  0  0  0
    3.5289   -0.0257   -1.0286 C   0  0  0  0  0  0  0  0  0  0  0  0
    2.1288    0.0181   -1.1317 C   0  0  0  0  0  0  0  0  0  0  0  0
    1.4637    0.0356   -2.4493 C   0  0  0  0  0  0  0  0  0  0  0  0
    1.7517   -0.8919   -3.3693 N   0  0  0  0  0  0  0  0  0  0  0  0
    0.9829   -0.5917   -4.4239 N   0  0  0  0  0  0  0  0  0  0  0  0
    1.0297   -1.1757   -5.2497 H   0  0  0  0  0  0  0  0  0  0  0  0
    0.1940    0.4931   -4.2282 C   0  0  0  0  0  0  0  0  0  0  0  0
    0.4780    0.9555   -2.9476 C   0  0  0  0  0  0  0  0  0  0  0  0
   -0.0898    2.1584   -2.3487 C   0  0  0  0  0  0  0  0  0  0  0  0
    0.2789    2.8319   -1.1958 C   0  0  0  0  0  0  0  0  0  0  0  0
   -0.5749    3.9094   -1.1149 N   0  0  0  0  0  0  0  0  0  0  0  0
   -0.5825    4.6054   -0.3800 H   0  0  0  0  0  0  0  0  0  0  0  0
   -1.4095    3.8555   -2.1962 C   0  0  0  0  0  0  0  0  0  0  0  0
   -1.1442    2.8187   -2.9545 N   0  0  0  0  0  0  0  0  0  0  0  0
   -0.3086    0.0196   -0.8378 H   0  0  0  0  0  0  0  0  0  0  0  0
    1.4203   -0.0557    2.2067 H   0  0  0  0  0  0  0  0  0  0  0  0
    3.4385   -0.1074    3.2745 H   0  0  0  0  0  0  0  0  0  0  0  0
    6.0681    0.5654    1.0461 H   0  0  0  0  0  0  0  0  0  0  0  0
    6.1368    0.2041   -0.6849 H   0  0  0  0  0  0  0  0  0  0  0  0
    5.8379   -1.8858    1.5674 H   0  0  0  0  0  0  0  0  0  0  0  0
    7.3308   -1.5589    0.6507 H   0  0  0  0  0  0  0  0  0  0  0  0
    5.9135   -2.2654   -0.1710 H   0  0  0  0  0  0  0  0  0  0  0  0
    4.1063   -0.0249   -1.9560 H   0  0  0  0  0  0  0  0  0  0  0  0
   -0.4871    0.8841   -4.9792 H   0  0  0  0  0  0  0  0  0  0  0  0
    1.0517    2.6404   -0.4584 H   0  0  0  0  0  0  0  0  0  0  0  0
   -2.1879    4.5979   -2.3717 H   0  0  0  0  0  0  0  0  0  0  0  0
  1  2  1  0
  1 23  1  0
  2  3  2  0
  2 10  1  0
  3  4  1  0
  3 24  1  0
  4  5  1  0
  4  6  2  0
  5 25  1  0
  6  7  1  0
  6  9  1  0
  7  8  1  0
  7 26  1  0
  7 27  1  0
  8 28  1  0
  8 29  1  0
  8 30  1  0
  9 10  2  0
  9 31  1  0
 10 11  1  0
 11 12  2  0
 11 16  1  0
 12 13  1  0
 13 14  1  0
 13 15  1  0
 15 16  2  0
 15 32  1  0
 16 17  1  0
 17 18  2  0
 17 22  1  0
 18 19  1  0
 18 33  1  0
 19 20  1  0
 19 21  1  0
 21 22  2  0
 21 34  1  0
M  END

