rmsd161.gzmat
 OpenBabel08211713363D

 24 25  0  0  1  0  0  0  0  0999 V2000
    0.0000    0.0000    0.0000 N   0  0  0  0  0  0  0  0  0  0  0  0
    1.3861    0.0000    0.0000 C   0  0  0  0  0  0  0  0  0  0  0  0
    2.1061    0.0000    1.1545 C   0  0  0  0  0  0  0  0  0  0  0  0
    1.4352    0.1856    2.4114 C   0  0  0  0  0  0  0  0  0  0  0  0
    0.0942    0.3051    2.4588 C   0  0  0  0  0  0  0  0  0  0  0  0
   -0.7534    0.2336    1.2354 C   0  0  1  0  0  0  0  0  0  0  0  0
   -0.6932    0.2890   -1.2617 C   0  0  0  0  0  0  0  0  0  0  0  0
   -0.4696    1.7297   -1.7774 C   0  0  0  0  0  0  0  0  0  0  0  0
   -1.3564    2.7668   -1.0980 C   0  0  0  0  0  0  0  0  0  0  0  0
   -1.0257    2.9047    0.6579 S   0  0  0  0  0  0  0  0  0  0  0  0
   -1.9518    3.8483    1.2261 O   0  0  0  0  0  0  0  0  0  0  0  0
   -1.5451    1.3990    1.1079 O   0  0  0  0  0  0  0  0  0  0  0  0
    0.3906    3.0336    0.8735 O   0  0  0  0  0  0  0  0  0  0  0  0
    1.8646   -0.0675   -0.9822 H   0  0  0  0  0  0  0  0  0  0  0  0
    3.1840   -0.0976    1.1459 H   0  0  0  0  0  0  0  0  0  0  0  0
    2.0480    0.2429    3.3110 H   0  0  0  0  0  0  0  0  0  0  0  0
   -0.4534    0.4937    3.3767 H   0  0  0  0  0  0  0  0  0  0  0  0
   -1.5787   -0.5336    1.3067 H   0  0  0  0  0  0  0  0  0  0  0  0
   -1.7822    0.0897   -1.1279 H   0  0  0  0  0  0  0  0  0  0  0  0
   -0.3372   -0.4381   -2.0284 H   0  0  0  0  0  0  0  0  0  0  0  0
   -0.6652    1.7459   -2.8699 H   0  0  0  0  0  0  0  0  0  0  0  0
    0.6035    2.0048   -1.6740 H   0  0  0  0  0  0  0  0  0  0  0  0
   -2.4281    2.5244   -1.2505 H   0  0  0  0  0  0  0  0  0  0  0  0
   -1.2169    3.7575   -1.5770 H   0  0  0  0  0  0  0  0  0  0  0  0
  1  2  1  0  0  0  0
  1  6  1  0  0  0  0
  2  3  2  0  0  0  0
  3  4  1  0  0  0  0
  4  5  2  0  0  0  0
  4 16  1  0  0  0  0
  5 17  1  0  0  0  0
  6 18  1  1  0  0  0
  6  5  1  0  0  0  0
  7 19  1  0  0  0  0
  7  1  1  0  0  0  0
  8 22  1  0  0  0  0
  8  7  1  0  0  0  0
  8  9  1  0  0  0  0
  9 10  1  0  0  0  0
 10 13  1  0  0  0  0
 10 12  1  0  0  0  0
 10 11  1  0  0  0  0
 12  6  1  0  0  0  0
 14  2  1  0  0  0  0
 15  3  1  0  0  0  0
 20  7  1  0  0  0  0
 21  8  1  0  0  0  0
 23  9  1  0  0  0  0
 24  9  1  0  0  0  0
M  RAD  2  11   2  13   2
M  END
$$$$
