24
rmsd178.gzmat
N          0.00000        0.00000        0.00000
C          1.46340        0.00000        0.00000
C          2.06270        0.00000        1.36980
C          1.31570       -0.20360        2.47210
C         -0.10190       -0.41020        2.36300
C         -0.69700       -0.36960        1.13970
C         -0.65460       -0.21750       -1.29720
C         -0.61600       -1.69640       -1.74800
C          0.51040       -2.01370       -2.72500
S          2.12550       -1.46700       -2.17460
O          2.35130       -0.15230       -2.73340
O          1.90050       -1.24500       -0.55720
O          3.06810       -2.53610       -2.35380
H          1.82840        0.84370       -0.64880
H          3.14140        0.11430        1.39310
H          1.75660       -0.22030        3.46870
H         -0.67390       -0.60160        3.26160
H         -1.76950       -0.54590        1.01480
H         -0.17980        0.45250       -2.05460
H         -1.71110        0.12780       -1.22550
H         -1.58630       -1.95740       -2.21850
H         -0.54760       -2.35290       -0.85210
H          0.29730       -1.55230       -3.71240
H          0.53820       -3.10700       -2.91980
