rmsd165.gzmat
 OpenBabel08211713363D

 24 25  0  0  1  0  0  0  0  0999 V2000
    0.0000    0.0000    0.0000 N   0  0  0  0  0  0  0  0  0  0  0  0
    1.4654    0.0000    0.0000 C   0  0  1  0  0  0  0  0  0  0  0  0
    2.0708    0.0000    1.3616 C   0  0  0  0  0  0  0  0  0  0  0  0
    1.3221   -0.0185    2.4813 C   0  0  0  0  0  0  0  0  0  0  0  0
   -0.1114   -0.0649    2.3986 C   0  0  0  0  0  0  0  0  0  0  0  0
   -0.7129   -0.1419    1.1805 C   0  0  0  0  0  0  0  0  0  0  0  0
   -0.6606   -0.3693   -1.2581 C   0  0  0  0  0  0  0  0  0  0  0  0
   -0.9830   -1.8773   -1.3714 C   0  0  0  0  0  0  0  0  0  0  0  0
    0.2110   -2.7250   -1.7938 C   0  0  0  0  0  0  0  0  0  0  0  0
    1.5409   -2.6800   -0.5936 S   0  0  0  0  0  0  0  0  0  0  0  0
    1.9520   -1.0864   -0.7641 O   0  0  0  0  0  0  0  0  0  0  0  0
    1.0132   -2.9239    0.7215 O   0  0  0  0  0  0  0  0  0  0  0  0
    2.6444   -3.4492   -1.1048 O   0  0  0  0  0  0  0  0  0  0  0  0
    1.8272    0.8487   -0.6508 H   0  0  0  0  0  0  0  0  0  0  0  0
    3.1557   -0.0177    1.3730 H   0  0  0  0  0  0  0  0  0  0  0  0
    1.7741   -0.0177    3.4737 H   0  0  0  0  0  0  0  0  0  0  0  0
   -0.6887   -0.0786    3.3138 H   0  0  0  0  0  0  0  0  0  0  0  0
   -1.7967   -0.2522    1.0742 H   0  0  0  0  0  0  0  0  0  0  0  0
   -0.0175   -0.0474   -2.1106 H   0  0  0  0  0  0  0  0  0  0  0  0
   -1.6035    0.2195   -1.3415 H   0  0  0  0  0  0  0  0  0  0  0  0
   -1.7999   -2.0066   -2.1116 H   0  0  0  0  0  0  0  0  0  0  0  0
   -1.4039   -2.2458   -0.4096 H   0  0  0  0  0  0  0  0  0  0  0  0
    0.5969   -2.3937   -2.7793 H   0  0  0  0  0  0  0  0  0  0  0  0
   -0.1054   -3.7760   -1.9513 H   0  0  0  0  0  0  0  0  0  0  0  0
  1  2  1  0  0  0  0
  1  6  1  0  0  0  0
  2 14  1  6  0  0  0
  2  3  1  0  0  0  0
  3 15  1  0  0  0  0
  3  4  2  0  0  0  0
  4 16  1  0  0  0  0
  5  4  1  0  0  0  0
  5 17  1  0  0  0  0
  6  5  2  0  0  0  0
  7  1  1  0  0  0  0
  8  7  1  0  0  0  0
  8 22  1  0  0  0  0
  9  8  1  0  0  0  0
  9 10  1  0  0  0  0
 10 12  1  0  0  0  0
 11 10  1  0  0  0  0
 11  2  1  0  0  0  0
 13 10  1  0  0  0  0
 18  6  1  0  0  0  0
 19  7  1  0  0  0  0
 20  7  1  0  0  0  0
 21  8  1  0  0  0  0
 23  9  1  0  0  0  0
 24  9  1  0  0  0  0
M  RAD  2  12   2  13   2
M  END
$$$$
