rmsd164.gzmat
 OpenBabel08211713363D

 24 25  0  0  1  0  0  0  0  0999 V2000
    0.0000    0.0000    0.0000 N   0  0  0  0  0  0  0  0  0  0  0  0
    1.4634    0.0000    0.0000 C   0  0  1  0  0  0  0  0  0  0  0  0
    2.0623    0.0000    1.3701 C   0  0  0  0  0  0  0  0  0  0  0  0
    1.3149   -0.2002    2.4728 C   0  0  0  0  0  0  0  0  0  0  0  0
   -0.1032   -0.4038    2.3644 C   0  0  0  0  0  0  0  0  0  0  0  0
   -0.6981   -0.3658    1.1409 C   0  0  0  0  0  0  0  0  0  0  0  0
   -0.6540   -0.2224   -1.2968 C   0  0  0  0  0  0  0  0  0  0  0  0
   -0.6201   -1.7043   -1.7380 C   0  0  0  0  0  0  0  0  0  0  0  0
    0.5057   -2.0327   -2.7125 C   0  0  0  0  0  0  0  0  0  0  0  0
    2.1190   -1.4678   -2.1757 S   0  0  0  0  0  0  0  0  0  0  0  0
    2.3265   -0.1515   -2.7378 O   0  0  0  0  0  0  0  0  0  0  0  0
    1.9036   -1.2439   -0.5569 O   0  0  0  0  0  0  0  0  0  0  0  0
    3.0731   -2.5257   -2.3603 O   0  0  0  0  0  0  0  0  0  0  0  0
    1.8268    0.8445   -0.6489 H   0  0  0  0  0  0  0  0  0  0  0  0
    3.1412    0.1114    1.3933 H   0  0  0  0  0  0  0  0  0  0  0  0
    1.7558   -0.2160    3.4694 H   0  0  0  0  0  0  0  0  0  0  0  0
   -0.6759   -0.5909    3.2635 H   0  0  0  0  0  0  0  0  0  0  0  0
   -1.7712   -0.5427    1.0154 H   0  0  0  0  0  0  0  0  0  0  0  0
   -0.1761    0.4407   -2.0587 H   0  0  0  0  0  0  0  0  0  0  0  0
   -1.7086    0.1292   -1.2282 H   0  0  0  0  0  0  0  0  0  0  0  0
   -1.5910   -1.9651   -2.2074 H   0  0  0  0  0  0  0  0  0  0  0  0
   -0.5545   -2.3556   -0.8383 H   0  0  0  0  0  0  0  0  0  0  0  0
    0.2878   -1.5894   -3.7068 H   0  0  0  0  0  0  0  0  0  0  0  0
    0.5388   -3.1288   -2.8884 H   0  0  0  0  0  0  0  0  0  0  0  0
  1  6  1  0  0  0  0
  2 14  1  6  0  0  0
  2  1  1  0  0  0  0
  2  3  1  0  0  0  0
  3 15  1  0  0  0  0
  3  4  2  0  0  0  0
  4 16  1  0  0  0  0
  5  4  1  0  0  0  0
  5 17  1  0  0  0  0
  6  5  2  0  0  0  0
  7 20  1  0  0  0  0
  7  1  1  0  0  0  0
  8  7  1  0  0  0  0
  8 22  1  0  0  0  0
  9 10  1  0  0  0  0
  9  8  1  0  0  0  0
 10 12  1  0  0  0  0
 11 10  1  0  0  0  0
 12  2  1  0  0  0  0
 13 10  1  0  0  0  0
 18  6  1  0  0  0  0
 19  7  1  0  0  0  0
 21  8  1  0  0  0  0
 23  9  1  0  0  0  0
 24  9  1  0  0  0  0
M  RAD  2  11   2  13   2
M  END
$$$$
