24
rmsd161.gzmat
N          0.00000        0.00000        0.00000
C          1.38610        0.00000        0.00000
C          2.10610        0.00000        1.15450
C          1.43520        0.18560        2.41140
C          0.09420        0.30510        2.45880
C         -0.75340        0.23360        1.23540
C         -0.69320        0.28900       -1.26170
C         -0.46960        1.72970       -1.77740
C         -1.35640        2.76680       -1.09800
S         -1.02570        2.90470        0.65790
O         -1.95180        3.84830        1.22610
O         -1.54510        1.39900        1.10790
O          0.39060        3.03360        0.87350
H          1.86460       -0.06750       -0.98220
H          3.18400       -0.09760        1.14590
H          2.04800        0.24290        3.31100
H         -0.45340        0.49370        3.37670
H         -1.57870       -0.53360        1.30670
H         -1.78220        0.08970       -1.12790
H         -0.33720       -0.43810       -2.02840
H         -0.66520        1.74590       -2.86990
H          0.60350        2.00480       -1.67400
H         -2.42810        2.52440       -1.25050
H         -1.21690        3.75750       -1.57700
