24
rmsd28.gzmat
N          0.00000        0.00000        0.00000
C          1.46370        0.00000        0.00000
C          2.06410        0.00000        1.36910
C          1.31680        0.18220        2.47470
C         -0.10370        0.36660        2.37050
C         -0.69980        0.33760        1.14730
C         -0.65670        0.23820       -1.29250
C         -0.60290        1.72120       -1.72940
C          0.51690        2.02990       -2.71720
S          2.12780        1.46210       -2.17730
O          2.33280        0.14500       -2.73780
O          3.08640        2.51600       -2.35890
O          1.90540        1.24210       -0.55850
H          1.82580       -0.84570       -0.64800
H          3.14420       -0.09670        1.38900
H          1.75910        0.19720        3.47070
H         -0.67720        0.53280        3.27320
H         -1.77540        0.49980        1.02680
H         -1.71680       -0.09620       -1.22060
H         -0.19140       -0.42980       -2.05830
H         -0.51380        2.36880       -0.82900
H         -1.57510        2.00040       -2.18480
H          0.55520        3.12270       -2.91170
H          0.29090        1.57080       -3.70260
