24
rmsd9.gzmat
N          0.00000        0.00000        0.00000
C          1.38590        0.00000        0.00000
C          2.10750        0.00000        1.15350
C          1.43720        0.18220        2.41080
C          0.09590        0.29670        2.45920
C         -0.75310        0.22680        1.23670
C         -0.69230        0.29390       -1.26110
C         -0.47820        1.74060       -1.76410
C         -1.38530        2.75990       -1.08530
S         -1.05150        2.89920        0.66930
O         -1.55230        1.38730        1.11620
O          0.36350        3.04410        0.88120
O         -1.98610        3.83100        1.24300
H          1.86390       -0.06900       -0.98200
H          3.18540       -0.09570        1.14270
H          2.05060        0.23940        3.31020
H         -0.45090        0.47980        3.37880
H         -1.57540       -0.54400        1.30680
H         -1.78010        0.08690       -1.12960
H         -0.33120       -0.42440       -2.03330
H         -0.65980        1.76380       -2.85850
H          0.59060        2.02710       -1.64480
H         -2.45200        2.49660       -1.23640
H         -1.26620        3.75410       -1.56120
