24
rmsd165.gzmat
N          0.00000        0.00000        0.00000
C          1.46540        0.00000        0.00000
C          2.07080        0.00000        1.36160
C          1.32210       -0.01850        2.48130
C         -0.11140       -0.06490        2.39860
C         -0.71290       -0.14190        1.18050
C         -0.66060       -0.36930       -1.25810
C         -0.98300       -1.87730       -1.37140
C          0.21100       -2.72500       -1.79380
S          1.54090       -2.68000       -0.59360
O          1.95200       -1.08640       -0.76410
O          1.01320       -2.92390        0.72150
O          2.64440       -3.44920       -1.10480
H          1.82720        0.84870       -0.65080
H          3.15570       -0.01770        1.37300
H          1.77410       -0.01770        3.47370
H         -0.68870       -0.07860        3.31380
H         -1.79670       -0.25220        1.07420
H         -0.01750       -0.04740       -2.11060
H         -1.60350        0.21950       -1.34150
H         -1.79990       -2.00660       -2.11160
H         -1.40390       -2.24580       -0.40960
H          0.59690       -2.39370       -2.77930
H         -0.10540       -3.77600       -1.95130
