24
rmsd171.gzmat
N          0.00000        0.00000        0.00000
C          1.38650        0.00000        0.00000
C          2.10410        0.00000        1.15640
C          1.42610        0.14390        2.41490
C          0.08980        0.30750        2.45550
C         -0.73590        0.36810        1.21020
C         -0.67940        0.24610       -1.27930
C         -0.66420        1.73720       -1.68940
C         -1.94030        2.49060       -1.33120
S         -2.46110        2.27500        0.36940
O         -1.08340        1.75350        1.10810
O         -2.80580        3.55670        0.91930
O         -3.38140        1.16010        0.40320
H          1.86910       -0.08250       -0.97870
H          3.18170       -0.10060        1.15160
H          2.02870        0.11730        3.32250
H         -0.46290        0.46600        3.37550
H         -1.67690       -0.24590        1.26520
H         -1.72250       -0.14890       -1.21390
H         -0.18650       -0.36670       -2.06830
H         -0.49810        1.80950       -2.78400
H          0.21990        2.23560       -1.23390
H         -2.76880        2.17150       -1.99810
H         -1.80570        3.57330       -1.53980
