rmsd203.gzmat
 OpenBabel08211713413D

 43 45  0  0  1  0  0  0  0  0999 V2000
    0.0000    0.0000    0.0000 N   0  0  0  0  0  0  0  0  0  0  0  0
    1.3411    0.0000    0.0000 C   0  0  0  0  0  0  0  0  0  0  0  0
    2.1023    0.0000    1.1793 C   0  0  2  0  0  0  0  0  0  0  0  0
    1.3975   -0.0155    2.3870 C   0  0  0  0  0  0  0  0  0  0  0  0
   -0.0027   -0.0432    2.4187 C   0  0  0  0  0  0  0  0  0  0  0  0
   -0.6651   -0.0183    1.1769 C   0  0  0  0  0  0  0  0  0  0  0  0
   -2.1494    0.0089    1.0640 C   0  0  0  0  0  0  0  0  0  0  0  0
   -2.6830    1.7650    1.0062 S   0  0  2  0  0  0  0  0  0  0  0  0
   -2.3238    2.3742    2.3095 O   0  0  0  0  0  0  0  0  0  0  0  0
   -4.4445    1.4520    1.2313 C   0  0  0  0  0  0  0  0  0  0  0  0
   -5.1831    2.0348    2.2712 N   0  0  0  0  0  0  0  0  0  0  0  0
   -4.8179    2.5979    3.0136 H   0  0  0  0  0  0  0  0  0  0  0  0
   -6.5037    1.6381    2.0883 C   0  0  2  0  0  0  0  0  0  0  0  0
   -6.5056    0.8087    0.9143 C   0  0  0  0  0  0  0  0  0  0  0  0
   -5.2033    0.7224    0.4163 N   0  0  0  0  0  0  0  0  0  0  0  0
   -7.7025    0.2420    0.4488 C   0  0  0  0  0  0  0  0  0  0  0  0
   -8.8591    0.5151    1.1413 C   0  0  0  0  0  0  0  0  0  0  0  0
   -8.8315    1.3462    2.2998 C   0  0  0  0  0  0  0  0  0  0  0  0
   -7.6747    1.9178    2.8032 C   0  0  0  0  0  0  0  0  0  0  0  0
  -10.0720    1.4940    2.8285 O   0  0  0  0  0  0  0  0  0  0  0  0
  -10.1961    2.3188    3.9800 C   0  0  0  0  0  0  0  0  0  0  0  0
   -0.7356   -0.0813    3.7073 C   0  0  0  0  0  0  0  0  0  0  0  0
    2.1019   -0.1091    3.5634 O   0  0  0  0  0  0  0  0  0  0  0  0
    2.3404    1.1660    4.1565 C   0  0  0  0  0  0  0  0  0  0  0  0
    3.5849    0.0175    1.1382 C   0  0  0  0  0  0  0  0  0  0  0  0
    1.8182    0.0057   -0.9857 H   0  0  0  0  0  0  0  0  0  0  0  0
   -2.6341   -0.5588    1.8798 H   0  0  0  0  0  0  0  0  0  0  0  0
   -2.4937   -0.4816    0.1220 H   0  0  0  0  0  0  0  0  0  0  0  0
   -7.6915   -0.3922   -0.4374 H   0  0  0  0  0  0  0  0  0  0  0  0
   -9.8180    0.1074    0.8250 H   0  0  0  0  0  0  0  0  0  0  0  0
   -7.6553    2.5403    3.6858 H   0  0  0  0  0  0  0  0  0  0  0  0
  -11.2732    2.2625    4.1881 H   0  0  0  0  0  0  0  0  0  0  0  0
   -9.9024    3.3491    3.7555 H   0  0  0  0  0  0  0  0  0  0  0  0
   -9.6221    1.9102    4.8175 H   0  0  0  0  0  0  0  0  0  0  0  0
   -1.2535    0.8797    3.8950 H   0  0  0  0  0  0  0  0  0  0  0  0
   -0.0699   -0.2641    4.5648 H   0  0  0  0  0  0  0  0  0  0  0  0
   -1.4969   -0.8740    3.7292 H   0  0  0  0  0  0  0  0  0  0  0  0
    1.4002    1.6964    4.3437 H   0  0  0  0  0  0  0  0  0  0  0  0
    3.0038    1.7614    3.5226 H   0  0  0  0  0  0  0  0  0  0  0  0
    2.8324    0.9002    5.1009 H   0  0  0  0  0  0  0  0  0  0  0  0
    3.9719    1.0449    1.0608 H   0  0  0  0  0  0  0  0  0  0  0  0
    3.9845   -0.5477    0.2841 H   0  0  0  0  0  0  0  0  0  0  0  0
    4.0234   -0.4256    2.0488 H   0  0  0  0  0  0  0  0  0  0  0  0
  1  6  2  0  0  0  0
  2  1  2  0  0  0  0
  2  3  1  0  0  0  0
  3 25  1  1  0  0  0
  3  4  1  0  0  0  0
  4  5  2  0  0  0  0
  4 23  1  0  0  0  0
  5 22  1  0  0  0  0
  6  5  1  0  0  0  0
  7  6  1  0  0  0  0
  7 27  1  0  0  0  0
  8  7  1  0  0  0  0
  8 10  1  0  0  0  0
  8  9  2  1  0  0  0
 10 11  1  0  0  0  0
 11 12  1  0  0  0  0
 13 14  1  6  0  0  0
 13 11  1  0  0  0  0
 13 19  1  0  0  0  0
 15 14  2  0  0  0  0
 15 10  2  0  0  0  0
 16 14  1  0  0  0  0
 16 17  2  0  0  0  0
 17 18  1  0  0  0  0
 18 19  2  0  0  0  0
 18 20  1  0  0  0  0
 19 31  1  0  0  0  0
 20 21  1  0  0  0  0
 21 32  1  0  0  0  0
 21 34  1  0  0  0  0
 22 37  1  0  0  0  0
 22 35  1  0  0  0  0
 22 36  1  0  0  0  0
 23 24  1  0  0  0  0
 24 38  1  0  0  0  0
 24 40  1  0  0  0  0
 25 43  1  0  0  0  0
 26  2  1  0  0  0  0
 28  7  1  0  0  0  0
 29 16  1  0  0  0  0
 30 17  1  0  0  0  0
 33 21  1  0  0  0  0
 39 24  1  0  0  0  0
 41 25  1  0  0  0  0
 42 25  1  0  0  0  0
M  RAD  2   3   2  13   2
M  END
$$$$
