43
rmsd65.gzmat
N          0.00000        0.00000        0.00000
C          1.34130        0.00000        0.00000
C          2.10260        0.00000        1.17860
C          1.39740        0.01680        2.38640
C         -0.00280        0.03430        2.41840
C         -0.66660        0.01600        1.17570
C         -2.15150       -0.00370        1.05890
S         -2.76870        1.72310        0.94670
O         -2.58950        2.32640        2.28940
C         -4.52420        1.30250        0.99940
N         -5.35590        1.73100        2.04450
H         -5.07400        2.25790        2.84820
C         -6.63410        1.27260        1.74650
C         -6.51760        0.56840        0.49840
N         -5.18730        0.61410        0.07310
C         -7.64730       -0.02640       -0.08600
C         -8.85040        0.08580        0.57090
C         -8.93800        0.78810        1.80900
C         -7.85390        1.39250        2.42320
O        -10.20610        0.78010        2.29060
C        -10.43820        1.43920        3.52850
C         -0.73610        0.10140        3.70490
O          2.09670        0.13280        3.56440
C          2.43890       -1.13280        4.12390
C          3.58550       -0.01130        1.13690
H          1.81860       -0.00260       -0.98560
H         -2.61510       -0.56160        1.89360
H         -2.47170       -0.53760        0.13140
H         -7.55100       -0.55700       -1.03310
H         -9.76080       -0.35420        0.16620
H         -7.92310        1.92330        3.36150
H        -11.51650        1.28550        3.67130
H        -10.21040        2.50690        3.45310
H         -9.87330        0.96380        4.33630
H         -1.36320        1.01660        3.75560
H         -0.06300        0.15780        4.57380
H         -1.39950       -0.76080        3.85410
H          3.06790       -1.70550        3.43670
H          1.53710       -1.69410        4.38790
H          2.99920       -0.85020        5.02450
H          4.02230        0.45420        2.03700
H          3.98390        0.53720        0.27160
H          3.97700       -1.03850        1.08090
