43
rmsd224.gzmat
N          0.00000        0.00000        0.00000
C          1.34040        0.00000        0.00000
C          2.10300        0.00000        1.17880
C          1.39890        0.00370        2.38670
C         -0.00210       -0.00730        2.41830
C         -0.66600       -0.00860        1.17670
C         -2.15090       -0.01930        1.05950
S         -2.73720        1.71910        0.97790
O         -2.71070        2.23630        2.36800
C         -4.48800        1.34030        0.76780
N         -5.46620        1.77870        1.67230
H         -5.30330        2.26390        2.53220
C         -6.69280        1.37720        1.15400
C         -6.39500        0.69470       -0.07570
N         -5.01200        0.69610       -0.27290
C         -7.43110        0.16160       -0.85910
C         -8.72310        0.31520       -0.41340
C         -8.99170        0.99560        0.81080
C         -8.00430        1.53670        1.61750
O        -10.32320        1.04190        1.06620
C        -10.73210        1.64980        2.28480
C         -0.73790       -0.01240        3.70530
O          2.09440       -0.09950        3.56760
C          2.46320        1.16970        4.10280
C          3.58530       -0.01670        1.12480
H          1.81800       -0.00070       -0.98540
H         -2.62330       -0.57980        1.88770
H         -2.47340       -0.54010        0.12490
H         -7.19530       -0.35540       -1.78940
H         -9.56800       -0.07620       -0.97790
H         -8.21190        2.05240        2.54370
H        -11.82520        1.55420        2.23260
H        -10.44040        2.70420        2.31530
H        -10.33890        1.09870        3.14490
H         -1.33280        0.91420        3.83130
H         -0.06870       -0.08550        4.57570
H         -1.43670       -0.85830        3.77820
H          3.05110        0.89020        4.98640
H          1.57240        1.73860        4.38990
H          3.07350        1.73440        3.39210
H          3.99110        0.96080        0.82360
H          3.95840       -0.76120        0.40490
H          4.03270       -0.27200        2.10000
