rmsd177.gzmat
 OpenBabel08211713413D

 43 45  0  0  1  0  0  0  0  0999 V2000
    0.0000    0.0000    0.0000 N   0  0  0  0  0  0  0  0  0  0  0  0
    1.3406    0.0000    0.0000 C   0  0  0  0  0  0  0  0  0  0  0  0
    2.1021    0.0000    1.1793 C   0  0  2  0  0  0  0  0  0  0  0  0
    1.3981    0.0141    2.3870 C   0  0  0  0  0  0  0  0  0  0  0  0
   -0.0023    0.0435    2.4185 C   0  0  0  0  0  0  0  0  0  0  0  0
   -0.6658    0.0224    1.1766 C   0  0  0  0  0  0  0  0  0  0  0  0
   -2.1505    0.0136    1.0607 C   0  0  0  0  0  0  0  0  0  0  0  0
   -2.7384    1.7447    0.8994 S   0  0  2  0  0  0  0  0  0  0  0  0
   -2.6834    2.3441    2.2540 O   0  0  0  0  0  0  0  0  0  0  0  0
   -4.4955    1.3537    0.7642 C   0  0  0  0  0  0  0  0  0  0  0  0
   -5.4521    1.9365    1.6081 N   0  0  0  0  0  0  0  0  0  0  0  0
   -5.2663    2.5252    2.3962 H   0  0  0  0  0  0  0  0  0  0  0  0
   -6.6918    1.4743    1.1796 C   0  0  2  0  0  0  0  0  0  0  0  0
   -6.4241    0.6087    0.0637 C   0  0  0  0  0  0  0  0  0  0  0  0
   -5.0449    0.5658   -0.1572 N   0  0  0  0  0  0  0  0  0  0  0  0
   -7.4796   -0.0285   -0.6072 C   0  0  0  0  0  0  0  0  0  0  0  0
   -8.7617    0.2083   -0.1688 C   0  0  0  0  0  0  0  0  0  0  0  0
   -9.0007    1.0775    0.9359 C   0  0  0  0  0  0  0  0  0  0  0  0
   -7.9927    1.7231    1.6328 C   0  0  0  0  0  0  0  0  0  0  0  0
  -10.3266    1.1804    1.2044 O   0  0  0  0  0  0  0  0  0  0  0  0
  -10.7104    2.0447    2.2659 C   0  0  0  0  0  0  0  0  0  0  0  0
   -0.7374    0.1303    3.7028 C   0  0  0  0  0  0  0  0  0  0  0  0
    2.1096    0.1105    3.5596 O   0  0  0  0  0  0  0  0  0  0  0  0
    2.3416   -1.1608    4.1619 C   0  0  0  0  0  0  0  0  0  0  0  0
    3.5845    0.0033    1.1286 C   0  0  0  0  0  0  0  0  0  0  0  0
    1.8192   -0.0034   -0.9848 H   0  0  0  0  0  0  0  0  0  0  0  0
   -2.6246   -0.5103    1.9112 H   0  0  0  0  0  0  0  0  0  0  0  0
   -2.4760   -0.5464    0.1499 H   0  0  0  0  0  0  0  0  0  0  0  0
   -7.2665   -0.6876   -1.4484 H   0  0  0  0  0  0  0  0  0  0  0  0
   -9.6202   -0.2579   -0.6498 H   0  0  0  0  0  0  0  0  0  0  0  0
   -8.1772    2.3792    2.4710 H   0  0  0  0  0  0  0  0  0  0  0  0
  -11.8035    1.9360    2.2683 H   0  0  0  0  0  0  0  0  0  0  0  0
  -10.4295    3.0793    2.0453 H   0  0  0  0  0  0  0  0  0  0  0  0
  -10.2897    1.7070    3.2180 H   0  0  0  0  0  0  0  0  0  0  0  0
   -1.3929    1.0261    3.7272 H   0  0  0  0  0  0  0  0  0  0  0  0
   -0.0664    0.2365    4.5685 H   0  0  0  0  0  0  0  0  0  0  0  0
   -1.3750   -0.7457    3.8806 H   0  0  0  0  0  0  0  0  0  0  0  0
    2.9622   -0.9018    5.0291 H   0  0  0  0  0  0  0  0  0  0  0  0
    2.8822   -1.8238    3.4803 H   0  0  0  0  0  0  0  0  0  0  0  0
    1.3979   -1.6142    4.4808 H   0  0  0  0  0  0  0  0  0  0  0  0
    4.0354    0.0965    2.1305 H   0  0  0  0  0  0  0  0  0  0  0  0
    3.9653    0.8501    0.5373 H   0  0  0  0  0  0  0  0  0  0  0  0
    3.9789   -0.9184    0.6764 H   0  0  0  0  0  0  0  0  0  0  0  0
  1  6  2  0  0  0  0
  2  1  2  0  0  0  0
  2  3  1  0  0  0  0
  3 25  1  6  0  0  0
  3  4  1  0  0  0  0
  4  5  2  0  0  0  0
  4 23  1  0  0  0  0
  5 22  1  0  0  0  0
  6  5  1  0  0  0  0
  7  6  1  0  0  0  0
  7 27  1  0  0  0  0
  8  7  1  0  0  0  0
  8  9  2  1  0  0  0
 10  8  1  0  0  0  0
 10 11  1  0  0  0  0
 11 12  1  0  0  0  0
 13 14  1  6  0  0  0
 13 11  1  0  0  0  0
 13 19  1  0  0  0  0
 15 14  2  0  0  0  0
 15 10  2  0  0  0  0
 16 17  2  0  0  0  0
 16 14  1  0  0  0  0
 17 18  1  0  0  0  0
 18 20  1  0  0  0  0
 18 19  2  0  0  0  0
 19 31  1  0  0  0  0
 20 21  1  0  0  0  0
 21 32  1  0  0  0  0
 21 34  1  0  0  0  0
 22 35  1  0  0  0  0
 22 37  1  0  0  0  0
 22 36  1  0  0  0  0
 23 24  1  0  0  0  0
 24 40  1  0  0  0  0
 24 38  1  0  0  0  0
 25 41  1  0  0  0  0
 26  2  1  0  0  0  0
 28  7  1  0  0  0  0
 29 16  1  0  0  0  0
 30 17  1  0  0  0  0
 33 21  1  0  0  0  0
 39 24  1  0  0  0  0
 42 25  1  0  0  0  0
 43 25  1  0  0  0  0
M  RAD  2   3   2  13   2
M  END
$$$$
