rmsd85.gzmat
 OpenBabel08211713413D

 43 45  0  0  1  0  0  0  0  0999 V2000
    0.0000    0.0000    0.0000 N   0  0  0  0  0  0  0  0  0  0  0  0
    1.3405    0.0000    0.0000 C   0  0  0  0  0  0  0  0  0  0  0  0
    2.1022    0.0000    1.1792 C   0  0  2  0  0  0  0  0  0  0  0  0
    1.3982    0.0252    2.3870 C   0  0  0  0  0  0  0  0  0  0  0  0
   -0.0022    0.0646    2.4175 C   0  0  0  0  0  0  0  0  0  0  0  0
   -0.6659    0.0288    1.1765 C   0  0  0  0  0  0  0  0  0  0  0  0
   -2.1503   -0.0023    1.0616 C   0  0  0  0  0  0  0  0  0  0  0  0
   -2.7753    1.7120    0.8582 S   0  0  2  0  0  0  0  0  0  0  0  0
   -2.7437    2.3372    2.2024 O   0  0  0  0  0  0  0  0  0  0  0  0
   -4.5206    1.2670    0.7266 C   0  0  0  0  0  0  0  0  0  0  0  0
   -5.4875    1.7773    1.6050 N   0  0  0  0  0  0  0  0  0  0  0  0
   -5.3161    2.3594    2.4013 H   0  0  0  0  0  0  0  0  0  0  0  0
   -6.7125    1.2740    1.1808 C   0  0  2  0  0  0  0  0  0  0  0  0
   -6.4260    0.4610    0.0304 C   0  0  0  0  0  0  0  0  0  0  0  0
   -5.0506    0.4874   -0.2132 N   0  0  0  0  0  0  0  0  0  0  0  0
   -7.4634   -0.2012   -0.6450 C   0  0  0  0  0  0  0  0  0  0  0  0
   -8.7460   -0.0419   -0.1749 C   0  0  0  0  0  0  0  0  0  0  0  0
   -9.0035    0.7736    0.9663 C   0  0  0  0  0  0  0  0  0  0  0  0
   -8.0136    1.4416    1.6679 C   0  0  0  0  0  0  0  0  0  0  0  0
  -10.3270    0.8034    1.2622 O   0  0  0  0  0  0  0  0  0  0  0  0
  -10.7282    1.5949    2.3732 C   0  0  0  0  0  0  0  0  0  0  0  0
   -0.7374    0.1781    3.7002 C   0  0  0  0  0  0  0  0  0  0  0  0
    2.1159    0.1228    3.5551 O   0  0  0  0  0  0  0  0  0  0  0  0
    2.2714   -1.1333    4.2109 C   0  0  0  0  0  0  0  0  0  0  0  0
    3.5842   -0.0027    1.1287 C   0  0  0  0  0  0  0  0  0  0  0  0
    1.8187   -0.0069   -0.9852 H   0  0  0  0  0  0  0  0  0  0  0  0
   -2.6150   -0.5126    1.9258 H   0  0  0  0  0  0  0  0  0  0  0  0
   -2.4656   -0.5910    0.1655 H   0  0  0  0  0  0  0  0  0  0  0  0
   -7.2364   -0.8184   -1.5138 H   0  0  0  0  0  0  0  0  0  0  0  0
   -9.5913   -0.5297   -0.6579 H   0  0  0  0  0  0  0  0  0  0  0  0
   -8.2117    2.0556    2.5345 H   0  0  0  0  0  0  0  0  0  0  0  0
  -11.8209    1.4823    2.3536 H   0  0  0  0  0  0  0  0  0  0  0  0
  -10.4499    2.6439    2.2310 H   0  0  0  0  0  0  0  0  0  0  0  0
  -10.3162    1.1921    3.3039 H   0  0  0  0  0  0  0  0  0  0  0  0
   -1.3322   -0.7176    3.9220 H   0  0  0  0  0  0  0  0  0  0  0  0
   -1.4327    1.0432    3.6871 H   0  0  0  0  0  0  0  0  0  0  0  0
   -0.0685    0.3569    4.5560 H   0  0  0  0  0  0  0  0  0  0  0  0
    2.8464   -0.8619    5.1057 H   0  0  0  0  0  0  0  0  0  0  0  0
    2.8339   -1.8298    3.5823 H   0  0  0  0  0  0  0  0  0  0  0  0
    1.3005   -1.5555    4.4871 H   0  0  0  0  0  0  0  0  0  0  0  0
    4.0349   -0.1731    2.1196 H   0  0  0  0  0  0  0  0  0  0  0  0
    3.9699    0.9677    0.7776 H   0  0  0  0  0  0  0  0  0  0  0  0
    3.9739   -0.7765    0.4527 H   0  0  0  0  0  0  0  0  0  0  0  0
  1  6  2  0  0  0  0
  2  1  2  0  0  0  0
  2  3  1  0  0  0  0
  3 25  1  6  0  0  0
  3  4  1  0  0  0  0
  4  5  2  0  0  0  0
  4 23  1  0  0  0  0
  5 22  1  0  0  0  0
  6  5  1  0  0  0  0
  7  6  1  0  0  0  0
  7 27  1  0  0  0  0
  8  7  1  0  0  0  0
  8  9  2  1  0  0  0
 10  8  1  0  0  0  0
 10 11  1  0  0  0  0
 11 12  1  0  0  0  0
 13 14  1  6  0  0  0
 13 11  1  0  0  0  0
 13 19  1  0  0  0  0
 15 14  2  0  0  0  0
 15 10  2  0  0  0  0
 16 17  2  0  0  0  0
 16 14  1  0  0  0  0
 17 18  1  0  0  0  0
 18 20  1  0  0  0  0
 18 19  2  0  0  0  0
 19 31  1  0  0  0  0
 20 21  1  0  0  0  0
 21 34  1  0  0  0  0
 22 35  1  0  0  0  0
 22 37  1  0  0  0  0
 23 24  1  0  0  0  0
 24 40  1  0  0  0  0
 24 38  1  0  0  0  0
 25 41  1  0  0  0  0
 26  2  1  0  0  0  0
 28  7  1  0  0  0  0
 29 16  1  0  0  0  0
 30 17  1  0  0  0  0
 32 21  1  0  0  0  0
 33 21  1  0  0  0  0
 36 22  1  0  0  0  0
 39 24  1  0  0  0  0
 42 25  1  0  0  0  0
 43 25  1  0  0  0  0
M  RAD  2   3   2  13   2
M  END
$$$$
