rmsd65.gzmat
 OpenBabel08211713413D

 43 45  0  0  1  0  0  0  0  0999 V2000
    0.0000    0.0000    0.0000 N   0  0  0  0  0  0  0  0  0  0  0  0
    1.3413    0.0000    0.0000 C   0  0  0  0  0  0  0  0  0  0  0  0
    2.1026    0.0000    1.1786 C   0  0  2  0  0  0  0  0  0  0  0  0
    1.3974    0.0168    2.3864 C   0  0  0  0  0  0  0  0  0  0  0  0
   -0.0028    0.0343    2.4184 C   0  0  0  0  0  0  0  0  0  0  0  0
   -0.6666    0.0160    1.1757 C   0  0  0  0  0  0  0  0  0  0  0  0
   -2.1515   -0.0037    1.0589 C   0  0  0  0  0  0  0  0  0  0  0  0
   -2.7687    1.7231    0.9467 S   0  0  2  0  0  0  0  0  0  0  0  0
   -2.5895    2.3264    2.2894 O   0  0  0  0  0  0  0  0  0  0  0  0
   -4.5242    1.3025    0.9994 C   0  0  0  0  0  0  0  0  0  0  0  0
   -5.3559    1.7310    2.0445 N   0  0  0  0  0  0  0  0  0  0  0  0
   -5.0740    2.2579    2.8482 H   0  0  0  0  0  0  0  0  0  0  0  0
   -6.6341    1.2726    1.7465 C   0  0  1  0  0  0  0  0  0  0  0  0
   -6.5176    0.5684    0.4984 C   0  0  0  0  0  0  0  0  0  0  0  0
   -5.1873    0.6141    0.0731 N   0  0  0  0  0  0  0  0  0  0  0  0
   -7.6473   -0.0264   -0.0860 C   0  0  0  0  0  0  0  0  0  0  0  0
   -8.8504    0.0858    0.5709 C   0  0  0  0  0  0  0  0  0  0  0  0
   -8.9380    0.7881    1.8090 C   0  0  0  0  0  0  0  0  0  0  0  0
   -7.8539    1.3925    2.4232 C   0  0  0  0  0  0  0  0  0  0  0  0
  -10.2061    0.7801    2.2906 O   0  0  0  0  0  0  0  0  0  0  0  0
  -10.4382    1.4392    3.5285 C   0  0  0  0  0  0  0  0  0  0  0  0
   -0.7361    0.1014    3.7049 C   0  0  0  0  0  0  0  0  0  0  0  0
    2.0967    0.1328    3.5644 O   0  0  0  0  0  0  0  0  0  0  0  0
    2.4389   -1.1328    4.1239 C   0  0  0  0  0  0  0  0  0  0  0  0
    3.5855   -0.0113    1.1369 C   0  0  0  0  0  0  0  0  0  0  0  0
    1.8186   -0.0026   -0.9856 H   0  0  0  0  0  0  0  0  0  0  0  0
   -2.6151   -0.5616    1.8936 H   0  0  0  0  0  0  0  0  0  0  0  0
   -2.4717   -0.5376    0.1314 H   0  0  0  0  0  0  0  0  0  0  0  0
   -7.5510   -0.5570   -1.0331 H   0  0  0  0  0  0  0  0  0  0  0  0
   -9.7608   -0.3542    0.1662 H   0  0  0  0  0  0  0  0  0  0  0  0
   -7.9231    1.9233    3.3615 H   0  0  0  0  0  0  0  0  0  0  0  0
  -11.5165    1.2855    3.6713 H   0  0  0  0  0  0  0  0  0  0  0  0
  -10.2104    2.5069    3.4531 H   0  0  0  0  0  0  0  0  0  0  0  0
   -9.8733    0.9638    4.3363 H   0  0  0  0  0  0  0  0  0  0  0  0
   -1.3632    1.0166    3.7556 H   0  0  0  0  0  0  0  0  0  0  0  0
   -0.0630    0.1578    4.5738 H   0  0  0  0  0  0  0  0  0  0  0  0
   -1.3995   -0.7608    3.8541 H   0  0  0  0  0  0  0  0  0  0  0  0
    3.0679   -1.7055    3.4367 H   0  0  0  0  0  0  0  0  0  0  0  0
    1.5371   -1.6941    4.3879 H   0  0  0  0  0  0  0  0  0  0  0  0
    2.9992   -0.8502    5.0245 H   0  0  0  0  0  0  0  0  0  0  0  0
    4.0223    0.4542    2.0370 H   0  0  0  0  0  0  0  0  0  0  0  0
    3.9839    0.5372    0.2716 H   0  0  0  0  0  0  0  0  0  0  0  0
    3.9770   -1.0385    1.0809 H   0  0  0  0  0  0  0  0  0  0  0  0
  1  6  2  0  0  0  0
  2  1  2  0  0  0  0
  2  3  1  0  0  0  0
  3 25  1  6  0  0  0
  3  4  1  0  0  0  0
  4  5  2  0  0  0  0
  4 23  1  0  0  0  0
  5 22  1  0  0  0  0
  6  5  1  0  0  0  0
  7  6  1  0  0  0  0
  7 27  1  0  0  0  0
  8 10  1  0  0  0  0
  8  7  1  0  0  0  0
  8  9  2  1  0  0  0
 10 11  1  0  0  0  0
 11 12  1  0  0  0  0
 13 14  1  1  0  0  0
 13 11  1  0  0  0  0
 13 19  1  0  0  0  0
 15 14  2  0  0  0  0
 15 10  2  0  0  0  0
 16 14  1  0  0  0  0
 16 17  2  0  0  0  0
 17 18  1  0  0  0  0
 18 20  1  0  0  0  0
 18 19  2  0  0  0  0
 19 31  1  0  0  0  0
 20 21  1  0  0  0  0
 21 32  1  0  0  0  0
 21 34  1  0  0  0  0
 22 35  1  0  0  0  0
 22 37  1  0  0  0  0
 22 36  1  0  0  0  0
 23 24  1  0  0  0  0
 24 39  1  0  0  0  0
 24 40  1  0  0  0  0
 25 41  1  0  0  0  0
 26  2  1  0  0  0  0
 28  7  1  0  0  0  0
 29 16  1  0  0  0  0
 30 17  1  0  0  0  0
 33 21  1  0  0  0  0
 38 24  1  0  0  0  0
 42 25  1  0  0  0  0
 43 25  1  0  0  0  0
M  RAD  2   3   2  13   2
M  END
$$$$
