43

N         -0.05790       -0.01880        0.02840
C          1.27200       -0.00060       -0.01230
C          2.08930        0.01290        1.12360
C          1.43480        0.02100        2.36680
C          0.03230        0.03900        2.44560
C         -0.66570       -0.00250        1.21930
C         -2.16640        0.00210        1.17390
S         -2.80790        1.75550        1.11520
O         -2.72760        2.34730        2.51570
C         -4.54690        1.28610        0.99790
N         -5.36070        1.68810        2.02540
H         -5.00790        2.18300        2.83980
C         -6.62910        1.24490        1.71130
C         -6.48060        0.58420        0.46110
N         -5.15600        0.63640        0.04660
C         -7.60780        0.00590       -0.14790
C         -8.82890        0.10350        0.49880
C         -8.96040        0.76780        1.74760
C         -7.85750        1.35280        2.37810
O        -10.21790        0.78330        2.25880
C        -10.44320        1.42300        3.49160
C         -0.67300        0.12270        3.77420
O          2.19670        0.06430        3.50510
C          2.41440       -1.18470        4.14100
C          3.58900        0.03850        1.03680
H          1.73310       -0.00080       -1.00760
H         -2.65250       -0.46380        2.04050
H         -2.52790       -0.44100        0.23590
H         -7.51290       -0.50530       -1.10730
H         -9.73370       -0.32790        0.06750
H         -7.93550        1.86710        3.33430
H        -11.51380        1.31760        3.71130
H        -10.18990        2.49800        3.44820
H         -9.86200        0.95650        4.30810
H         -1.48470        0.86180        3.72900
H          0.03040        0.42640        4.56010
H         -1.10900       -0.85020        4.06240
H          2.90810       -1.90260        3.46210
H          1.46950       -1.63230        4.49600
H          3.06810       -0.99780        5.00380
H          4.00200        0.87320        1.62400
H          3.92070        0.14190       -0.00630
H          4.03540       -0.88430        1.44310
