rmsd237.gzmat
 OpenBabel08211713413D

 43 45  0  0  1  0  0  0  0  0999 V2000
    0.0000    0.0000    0.0000 N   0  0  0  0  0  0  0  0  0  0  0  0
    1.3411    0.0000    0.0000 C   0  0  0  0  0  0  0  0  0  0  0  0
    2.1029    0.0000    1.1785 C   0  0  2  0  0  0  0  0  0  0  0  0
    1.3976    0.0096    2.3860 C   0  0  0  0  0  0  0  0  0  0  0  0
   -0.0027    0.0260    2.4180 C   0  0  0  0  0  0  0  0  0  0  0  0
   -0.6663    0.0142    1.1761 C   0  0  0  0  0  0  0  0  0  0  0  0
   -2.1508    0.0024    1.0610 C   0  0  0  0  0  0  0  0  0  0  0  0
   -2.7570    1.7330    0.9458 S   0  0  2  0  0  0  0  0  0  0  0  0
   -2.6468    2.3142    2.3054 O   0  0  0  0  0  0  0  0  0  0  0  0
   -4.5119    1.3107    0.8968 C   0  0  0  0  0  0  0  0  0  0  0  0
   -5.4089    1.7455    1.8834 N   0  0  0  0  0  0  0  0  0  0  0  0
   -5.1789    2.2749    2.7017 H   0  0  0  0  0  0  0  0  0  0  0  0
   -6.6624    1.2696    1.5150 C   0  0  1  0  0  0  0  0  0  0  0  0
   -6.4646    0.5518    0.2854 C   0  0  0  0  0  0  0  0  0  0  0  0
   -5.1118    0.6056   -0.0595 N   0  0  0  0  0  0  0  0  0  0  0  0
   -7.5502   -0.0649   -0.3565 C   0  0  0  0  0  0  0  0  0  0  0  0
   -8.7911    0.0387    0.2279 C   0  0  0  0  0  0  0  0  0  0  0  0
   -8.9586    0.7510    1.4518 C   0  0  0  0  0  0  0  0  0  0  0  0
   -7.9200    1.3792    2.1191 C   0  0  0  0  0  0  0  0  0  0  0  0
  -10.2500    0.7225    1.8669 O   0  0  0  0  0  0  0  0  0  0  0  0
  -10.5539    1.3778    3.0914 C   0  0  0  0  0  0  0  0  0  0  0  0
   -0.7353    0.0846    3.7055 C   0  0  0  0  0  0  0  0  0  0  0  0
    2.0939    0.1199    3.5660 O   0  0  0  0  0  0  0  0  0  0  0  0
    2.4461   -1.1479    4.1137 C   0  0  0  0  0  0  0  0  0  0  0  0
    3.5857   -0.0004    1.1340 C   0  0  0  0  0  0  0  0  0  0  0  0
    1.8181   -0.0015   -0.9855 H   0  0  0  0  0  0  0  0  0  0  0  0
   -2.6189   -0.5478    1.8986 H   0  0  0  0  0  0  0  0  0  0  0  0
   -2.4742   -0.5342    0.1359 H   0  0  0  0  0  0  0  0  0  0  0  0
   -7.3915   -0.6072   -1.2884 H   0  0  0  0  0  0  0  0  0  0  0  0
   -9.6692   -0.4216   -0.2221 H   0  0  0  0  0  0  0  0  0  0  0  0
   -8.0500    1.9186    3.0461 H   0  0  0  0  0  0  0  0  0  0  0  0
  -11.6307    1.1874    3.1931 H   0  0  0  0  0  0  0  0  0  0  0  0
  -10.3590    2.4520    3.0161 H   0  0  0  0  0  0  0  0  0  0  0  0
  -10.0055    0.9253    3.9238 H   0  0  0  0  0  0  0  0  0  0  0  0
   -1.4004   -0.7775    3.8483 H   0  0  0  0  0  0  0  0  0  0  0  0
   -1.3615    0.9998    3.7643 H   0  0  0  0  0  0  0  0  0  0  0  0
   -0.0608    0.1313    4.5742 H   0  0  0  0  0  0  0  0  0  0  0  0
    2.9746   -0.8682    5.0343 H   0  0  0  0  0  0  0  0  0  0  0  0
    3.1082   -1.6935    3.4351 H   0  0  0  0  0  0  0  0  0  0  0  0
    1.5512   -1.7352    4.3417 H   0  0  0  0  0  0  0  0  0  0  0  0
    4.0233    0.4081    2.0607 H   0  0  0  0  0  0  0  0  0  0  0  0
    3.9760    0.6084    0.3055 H   0  0  0  0  0  0  0  0  0  0  0  0
    3.9839   -1.0189    1.0085 H   0  0  0  0  0  0  0  0  0  0  0  0
  1  6  2  0  0  0  0
  2  1  2  0  0  0  0
  2  3  1  0  0  0  0
  3 25  1  6  0  0  0
  3  4  1  0  0  0  0
  4  5  2  0  0  0  0
  4 23  1  0  0  0  0
  5 22  1  0  0  0  0
  6  5  1  0  0  0  0
  7  6  1  0  0  0  0
  7 27  1  0  0  0  0
  8  7  1  0  0  0  0
  8  9  2  1  0  0  0
 10  8  1  0  0  0  0
 10 11  1  0  0  0  0
 11 12  1  0  0  0  0
 13 14  1  1  0  0  0
 13 11  1  0  0  0  0
 13 19  1  0  0  0  0
 15 14  2  0  0  0  0
 15 10  2  0  0  0  0
 16 17  2  0  0  0  0
 16 14  1  0  0  0  0
 17 18  1  0  0  0  0
 18 20  1  0  0  0  0
 18 19  2  0  0  0  0
 19 31  1  0  0  0  0
 20 21  1  0  0  0  0
 21 32  1  0  0  0  0
 21 34  1  0  0  0  0
 22 36  1  0  0  0  0
 22 35  1  0  0  0  0
 22 37  1  0  0  0  0
 23 24  1  0  0  0  0
 24 40  1  0  0  0  0
 24 38  1  0  0  0  0
 25 41  1  0  0  0  0
 26  2  1  0  0  0  0
 28  7  1  0  0  0  0
 29 16  1  0  0  0  0
 30 17  1  0  0  0  0
 33 21  1  0  0  0  0
 39 24  1  0  0  0  0
 42 25  1  0  0  0  0
 43 25  1  0  0  0  0
M  RAD  2   3   2  13   2
M  END
$$$$
