43
rmsd237.gzmat
N          0.00000        0.00000        0.00000
C          1.34110        0.00000        0.00000
C          2.10290        0.00000        1.17850
C          1.39760        0.00960        2.38600
C         -0.00270        0.02600        2.41800
C         -0.66630        0.01420        1.17610
C         -2.15080        0.00240        1.06100
S         -2.75700        1.73300        0.94580
O         -2.64680        2.31420        2.30540
C         -4.51190        1.31070        0.89680
N         -5.40890        1.74550        1.88340
H         -5.17890        2.27490        2.70170
C         -6.66240        1.26960        1.51500
C         -6.46460        0.55180        0.28540
N         -5.11180        0.60560       -0.05950
C         -7.55020       -0.06490       -0.35650
C         -8.79110        0.03870        0.22790
C         -8.95860        0.75100        1.45180
C         -7.92000        1.37920        2.11910
O        -10.25000        0.72250        1.86690
C        -10.55390        1.37780        3.09140
C         -0.73530        0.08460        3.70550
O          2.09390        0.11990        3.56600
C          2.44610       -1.14790        4.11370
C          3.58570       -0.00040        1.13400
H          1.81810       -0.00150       -0.98550
H         -2.61890       -0.54780        1.89860
H         -2.47420       -0.53420        0.13590
H         -7.39150       -0.60720       -1.28840
H         -9.66920       -0.42160       -0.22210
H         -8.05000        1.91860        3.04610
H        -11.63070        1.18740        3.19310
H        -10.35900        2.45200        3.01610
H        -10.00550        0.92530        3.92380
H         -1.40040       -0.77750        3.84830
H         -1.36150        0.99980        3.76430
H         -0.06080        0.13130        4.57420
H          2.97460       -0.86820        5.03430
H          3.10820       -1.69350        3.43510
H          1.55120       -1.73520        4.34170
H          4.02330        0.40810        2.06070
H          3.97600        0.60840        0.30550
H          3.98390       -1.01890        1.00850
