43
rmsd139.gzmat
F          0.00000        0.00000        0.00000
C          1.32470        0.00000        0.00000
C          2.01120        0.00000        1.22830
N          1.38250        0.00470        2.52460
C          0.61700        1.24200        2.78800
C          0.30740        1.26890        4.29610
N         -0.51280        0.03960        4.66580
H         -1.42040        0.06110        4.15280
H         -0.72180        0.04080        5.68490
C          0.25230       -1.22280        4.28900
C          0.56770       -1.20150        2.78130
C          3.40100       -0.00040        1.22540
C          4.10310       -0.00230        0.00230
C          3.39100        0.00520       -1.21300
C          4.09550        0.01410       -2.52900
O          3.47280       -0.07800       -3.55690
C          5.54350        0.11890       -2.42280
C          6.18340        0.08520       -1.21790
N          5.50280        0.00170       -0.02440
C          6.25930       -0.05340        1.21310
C          6.20750       -1.31560        2.06120
C          7.46210       -0.97690        1.30370
C          6.31660        0.24680       -3.65820
O          6.01230        0.70070       -4.72360
O          7.58620       -0.22870       -3.44370
C          1.99600        0.00300       -1.21310
H         -0.31000        1.35200        2.18410
H          1.26040        2.12060        2.52160
H         -0.25430        2.18880        4.57410
H          1.25980        1.26050        4.88100
H          1.20260       -1.26190        4.87620
H         -0.35260       -2.11750        4.55920
H          1.17720       -2.10340        2.51410
H         -0.36230       -1.27290        2.17650
H          3.93320        0.00310        2.17730
H          7.28760        0.13140       -1.14630
H          6.29430        0.93030        1.70950
H          5.60070       -2.16160        1.74050
H          6.17920       -1.23230        3.14490
H          8.35220       -0.63860        1.83500
H          7.75750       -1.59340        0.45290
H          8.15970       -0.18490       -4.24740
H          1.45480        0.00340       -2.17450
