rmsd165.gzmat
 OpenBabel08211713363D

 43 46  0  0  0  0  0  0  0  0999 V2000
    0.0000    0.0000    0.0000 F   0  0  0  0  0  0  0  0  0  0  0  0
    1.3247    0.0000    0.0000 C   0  0  0  0  0  0  0  0  0  0  0  0
    2.0120    0.0000    1.2277 C   0  0  0  0  0  0  0  0  0  0  0  0
    1.3822    0.0258    2.5232 N   0  0  0  0  0  0  0  0  0  0  0  0
    0.5847    1.2498    2.7538 C   0  0  0  0  0  0  0  0  0  0  0  0
    0.2630    1.3079    4.2588 C   0  0  0  0  0  0  0  0  0  0  0  0
   -0.5174    0.0629    4.6619 N   0  0  0  0  0  0  0  0  0  0  0  0
   -1.4256    0.0403    4.1495 H   0  0  0  0  0  0  0  0  0  0  0  0
   -0.7272    0.0859    5.6803 H   0  0  0  0  0  0  0  0  0  0  0  0
    0.2903   -1.1825    4.3190 C   0  0  0  0  0  0  0  0  0  0  0  0
    0.5938   -1.1917    2.8093 C   0  0  0  0  0  0  0  0  0  0  0  0
    3.4019   -0.0180    1.2234 C   0  0  0  0  0  0  0  0  0  0  0  0
    4.1026   -0.0266   -0.0006 C   0  0  0  0  0  0  0  0  0  0  0  0
    3.3888   -0.0072   -1.2147 C   0  0  0  0  0  0  0  0  0  0  0  0
    4.0929    0.0015   -2.5304 C   0  0  0  0  0  0  0  0  0  0  0  0
    3.4716   -0.1067   -3.5576 O   0  0  0  0  0  0  0  0  0  0  0  0
    5.5399    0.1246   -2.4259 C   0  0  0  0  0  0  0  0  0  0  0  0
    6.1819    0.0726   -1.2231 C   0  0  0  0  0  0  0  0  0  0  0  0
    5.5021   -0.0339   -0.0304 N   0  0  0  0  0  0  0  0  0  0  0  0
    6.2633   -0.1565    1.1993 C   0  0  0  0  0  0  0  0  0  0  0  0
    6.1663   -1.4432    2.0057 C   0  0  0  0  0  0  0  0  0  0  0  0
    7.4263   -1.1336    1.2447 C   0  0  0  0  0  0  0  0  0  0  0  0
    6.3044    0.2877   -3.6625 C   0  0  0  0  0  0  0  0  0  0  0  0
    5.9852    0.7593   -4.7160 O   0  0  0  0  0  0  0  0  0  0  0  0
    7.5816   -0.1742   -3.4669 O   0  0  0  0  0  0  0  0  0  0  0  0
    1.9945    0.0011   -1.2139 C   0  0  0  0  0  0  0  0  0  0  0  0
   -0.3410    1.3230    2.1432 H   0  0  0  0  0  0  0  0  0  0  0  0
    1.2089    2.1364    2.4701 H   0  0  0  0  0  0  0  0  0  0  0  0
   -0.3322    2.2156    4.5068 H   0  0  0  0  0  0  0  0  0  0  0  0
    1.2111    1.3507    4.8494 H   0  0  0  0  0  0  0  0  0  0  0  0
    1.2461   -1.1684    4.8987 H   0  0  0  0  0  0  0  0  0  0  0  0
   -0.2773   -2.0905    4.6217 H   0  0  0  0  0  0  0  0  0  0  0  0
    1.2163   -2.0881    2.5556 H   0  0  0  0  0  0  0  0  0  0  0  0
   -0.3379   -1.2924    2.2111 H   0  0  0  0  0  0  0  0  0  0  0  0
    3.9364   -0.0196    2.1740 H   0  0  0  0  0  0  0  0  0  0  0  0
    7.2861    0.1225   -1.1516 H   0  0  0  0  0  0  0  0  0  0  0  0
    6.3447    0.8088    1.7250 H   0  0  0  0  0  0  0  0  0  0  0  0
    5.5198   -2.2507    1.6635 H   0  0  0  0  0  0  0  0  0  0  0  0
    6.1554   -1.3966    3.0918 H   0  0  0  0  0  0  0  0  0  0  0  0
    8.3365   -0.8528    1.7752 H   0  0  0  0  0  0  0  0  0  0  0  0
    7.6840   -1.7320    0.3690 H   0  0  0  0  0  0  0  0  0  0  0  0
    8.1491   -0.1043   -4.2734 H   0  0  0  0  0  0  0  0  0  0  0  0
    1.4512    0.0073   -2.1741 H   0  0  0  0  0  0  0  0  0  0  0  0
  1  2  1  0  0  0  0
  2  3  2  0  0  0  0
  3  4  1  0  0  0  0
  4  5  1  0  0  0  0
  4 11  1  0  0  0  0
  5  6  1  0  0  0  0
  6 29  1  0  0  0  0
  6  7  1  0  0  0  0
  6 30  1  0  0  0  0
  7  9  1  0  0  0  0
  8  7  1  0  0  0  0
 10 32  1  0  0  0  0
 10  7  1  0  0  0  0
 10 31  1  0  0  0  0
 11 10  1  0  0  0  0
 12  3  1  0  0  0  0
 12 35  1  0  0  0  0
 13 12  2  0  0  0  0
 14 26  2  0  0  0  0
 14 13  1  0  0  0  0
 15 17  1  0  0  0  0
 15 14  1  0  0  0  0
 16 15  2  0  0  0  0
 17 18  2  0  0  0  0
 18 36  1  0  0  0  0
 18 19  1  0  0  0  0
 19 13  1  0  0  0  0
 19 20  1  0  0  0  0
 20 22  1  0  0  0  0
 20 37  1  0  0  0  0
 20 21  1  0  0  0  0
 21 39  1  0  0  0  0
 22 40  1  0  0  0  0
 22 21  1  0  0  0  0
 23 25  1  0  0  0  0
 23 17  1  0  0  0  0
 24 23  2  0  0  0  0
 26  2  1  0  0  0  0
 27  5  1  0  0  0  0
 28  5  1  0  0  0  0
 33 11  1  0  0  0  0
 34 11  1  0  0  0  0
 38 21  1  0  0  0  0
 41 22  1  0  0  0  0
 42 25  1  0  0  0  0
 43 26  1  0  0  0  0
M  END
$$$$
