rmsd109.gzmat
 OpenBabel08211713363D

 43 46  0  0  0  0  0  0  0  0999 V2000
    0.0000    0.0000    0.0000 F   0  0  0  0  0  0  0  0  0  0  0  0
    1.3246    0.0000    0.0000 C   0  0  0  0  0  0  0  0  0  0  0  0
    2.0109    0.0000    1.2285 C   0  0  0  0  0  0  0  0  0  0  0  0
    1.3780    0.0221    2.5229 N   0  0  0  0  0  0  0  0  0  0  0  0
    0.5684    1.2379    2.7544 C   0  0  0  0  0  0  0  0  0  0  0  0
    0.2503    1.2902    4.2605 C   0  0  0  0  0  0  0  0  0  0  0  0
   -0.5232    0.0402    4.6604 N   0  0  0  0  0  0  0  0  0  0  0  0
   -1.4315    0.0149    4.1490 H   0  0  0  0  0  0  0  0  0  0  0  0
   -0.7309    0.0591    5.6794 H   0  0  0  0  0  0  0  0  0  0  0  0
    0.2889   -1.2012    4.3136 C   0  0  0  0  0  0  0  0  0  0  0  0
    0.6002   -1.2036    2.8053 C   0  0  0  0  0  0  0  0  0  0  0  0
    3.4009   -0.0199    1.2252 C   0  0  0  0  0  0  0  0  0  0  0  0
    4.1030   -0.0353    0.0017 C   0  0  0  0  0  0  0  0  0  0  0  0
    3.3897   -0.0139   -1.2130 C   0  0  0  0  0  0  0  0  0  0  0  0
    4.0927   -0.0077   -2.5293 C   0  0  0  0  0  0  0  0  0  0  0  0
    3.4681   -0.0940   -3.5566 O   0  0  0  0  0  0  0  0  0  0  0  0
    5.5418    0.0848   -2.4249 C   0  0  0  0  0  0  0  0  0  0  0  0
    6.1828    0.0299   -1.2217 C   0  0  0  0  0  0  0  0  0  0  0  0
    5.5021   -0.0553   -0.0277 N   0  0  0  0  0  0  0  0  0  0  0  0
    6.2634   -0.1557    1.2040 C   0  0  0  0  0  0  0  0  0  0  0  0
    6.1758   -1.4307    2.0293 C   0  0  0  0  0  0  0  0  0  0  0  0
    7.4352   -1.1212    1.2668 C   0  0  0  0  0  0  0  0  0  0  0  0
    6.3127    0.2202   -3.6612 C   0  0  0  0  0  0  0  0  0  0  0  0
    6.0182    0.7165   -4.7103 O   0  0  0  0  0  0  0  0  0  0  0  0
    7.5649   -0.3061   -3.4676 O   0  0  0  0  0  0  0  0  0  0  0  0
    1.9952   -0.0011   -1.2133 C   0  0  0  0  0  0  0  0  0  0  0  0
   -0.3608    1.3014    2.1467 H   0  0  0  0  0  0  0  0  0  0  0  0
    1.1823    2.1320    2.4700 H   0  0  0  0  0  0  0  0  0  0  0  0
   -0.3491    2.1940    4.5130 H   0  0  0  0  0  0  0  0  0  0  0  0
    1.1994    1.3355    4.8492 H   0  0  0  0  0  0  0  0  0  0  0  0
    1.2415   -1.1893    4.8983 H   0  0  0  0  0  0  0  0  0  0  0  0
   -0.2790   -2.1120    4.6088 H   0  0  0  0  0  0  0  0  0  0  0  0
    1.2340   -2.0928    2.5541 H   0  0  0  0  0  0  0  0  0  0  0  0
   -0.3276   -1.3130    2.2024 H   0  0  0  0  0  0  0  0  0  0  0  0
    3.9346   -0.0186    2.1761 H   0  0  0  0  0  0  0  0  0  0  0  0
    7.2877    0.0595   -1.1509 H   0  0  0  0  0  0  0  0  0  0  0  0
    6.3356    0.8175    1.7165 H   0  0  0  0  0  0  0  0  0  0  0  0
    5.5388   -2.2501    1.6977 H   0  0  0  0  0  0  0  0  0  0  0  0
    6.1605   -1.3669    3.1147 H   0  0  0  0  0  0  0  0  0  0  0  0
    8.3415   -0.8241    1.7952 H   0  0  0  0  0  0  0  0  0  0  0  0
    7.7012   -1.7316    0.4018 H   0  0  0  0  0  0  0  0  0  0  0  0
    8.1350   -0.2655   -4.2742 H   0  0  0  0  0  0  0  0  0  0  0  0
    1.4529    0.0056   -2.1742 H   0  0  0  0  0  0  0  0  0  0  0  0
  1  2  1  0  0  0  0
  2  3  2  0  0  0  0
  3  4  1  0  0  0  0
  4  5  1  0  0  0  0
  4 11  1  0  0  0  0
  5  6  1  0  0  0  0
  6 29  1  0  0  0  0
  6  7  1  0  0  0  0
  6 30  1  0  0  0  0
  7  9  1  0  0  0  0
  8  7  1  0  0  0  0
 10 32  1  0  0  0  0
 10  7  1  0  0  0  0
 10 31  1  0  0  0  0
 11 10  1  0  0  0  0
 12  3  1  0  0  0  0
 12 35  1  0  0  0  0
 13 12  2  0  0  0  0
 14 13  1  0  0  0  0
 15 17  1  0  0  0  0
 15 14  1  0  0  0  0
 16 15  2  0  0  0  0
 17 18  2  0  0  0  0
 18 36  1  0  0  0  0
 18 19  1  0  0  0  0
 19 13  1  0  0  0  0
 19 20  1  0  0  0  0
 20 22  1  0  0  0  0
 20 37  1  0  0  0  0
 20 21  1  0  0  0  0
 21 39  1  0  0  0  0
 22 40  1  0  0  0  0
 22 21  1  0  0  0  0
 23 25  1  0  0  0  0
 23 17  1  0  0  0  0
 24 23  2  0  0  0  0
 26 14  2  0  0  0  0
 26  2  1  0  0  0  0
 27  5  1  0  0  0  0
 28  5  1  0  0  0  0
 33 11  1  0  0  0  0
 34 11  1  0  0  0  0
 38 21  1  0  0  0  0
 41 22  1  0  0  0  0
 42 25  1  0  0  0  0
 43 26  1  0  0  0  0
M  END
$$$$
