43
rmsd120.gzmat
F          0.00000        0.00000        0.00000
C          1.32460        0.00000        0.00000
C          2.01050        0.00000        1.22840
N          1.37970       -0.01510        2.52310
C          0.56920        1.19140        2.79190
C          0.26980        1.20080        4.30250
N         -0.50670       -0.05660        4.67140
H         -1.41970       -0.06240        4.16810
H         -0.70480       -0.06740        5.69220
C          0.29600       -1.29130        4.28110
C          0.60480       -1.24910        2.77280
C          3.40020        0.00700        1.22590
C          4.10310        0.01330        0.00320
C          3.39060       -0.00240       -1.21190
C          4.09610       -0.01950       -2.52650
O          3.47660        0.08140       -3.55560
C          5.54270       -0.14250       -2.41850
C          6.18410       -0.08800       -1.21560
N          5.50260        0.01760       -0.02380
C          6.26080        0.11180        1.20990
C          7.42210        1.08820        1.28620
C          6.15850        1.37610        2.04960
C          6.31090       -0.31330       -3.65170
O          6.00540       -0.82010       -4.69270
O          7.57510        0.18500       -3.46560
C          1.99610       -0.00380       -1.21290
H         -0.36660        1.26560        2.19650
H          1.17450        2.09490        2.52280
H         -0.31900        2.09980        4.59080
H          1.22680        1.22000        4.87950
H          1.24960       -1.30390        4.86340
H         -0.27890       -2.20640        4.54820
H          1.24010       -2.12960        2.49480
H         -0.32340       -1.34330        2.16880
H          3.93240        0.00150        2.17770
H          7.28820       -0.13480       -1.14330
H          6.34180       -0.86620        1.71190
H          7.68270        1.71020        0.42820
H          8.32940        0.79370        1.81400
H          6.14000        1.29850        3.13370
H          5.51460        2.19340        1.72660
H          8.14430        0.11390       -4.27050
H          1.45420       -0.00800       -2.17390
