rmsd158.gzmat
 OpenBabel08211713363D

 43 46  0  0  0  0  0  0  0  0999 V2000
    0.0000    0.0000    0.0000 F   0  0  0  0  0  0  0  0  0  0  0  0
    1.3246    0.0000    0.0000 C   0  0  0  0  0  0  0  0  0  0  0  0
    2.0107    0.0000    1.2282 C   0  0  0  0  0  0  0  0  0  0  0  0
    1.3827   -0.0187    2.5239 N   0  0  0  0  0  0  0  0  0  0  0  0
    0.5933    1.1978    2.8089 C   0  0  0  0  0  0  0  0  0  0  0  0
    0.3101    1.1993    4.3230 C   0  0  0  0  0  0  0  0  0  0  0  0
   -0.4798   -0.0505    4.6911 N   0  0  0  0  0  0  0  0  0  0  0  0
   -1.3994   -0.0366    4.1995 H   0  0  0  0  0  0  0  0  0  0  0  0
   -0.6649   -0.0679    5.7147 H   0  0  0  0  0  0  0  0  0  0  0  0
    0.2974   -1.2948    4.2791 C   0  0  0  0  0  0  0  0  0  0  0  0
    0.5893   -1.2422    2.7679 C   0  0  0  0  0  0  0  0  0  0  0  0
    3.4006    0.0112    1.2255 C   0  0  0  0  0  0  0  0  0  0  0  0
    4.1022    0.0167    0.0024 C   0  0  0  0  0  0  0  0  0  0  0  0
    3.3903    0.0004   -1.2128 C   0  0  0  0  0  0  0  0  0  0  0  0
    4.0965   -0.0140   -2.5277 C   0  0  0  0  0  0  0  0  0  0  0  0
    3.4764    0.0932   -3.5554 O   0  0  0  0  0  0  0  0  0  0  0  0
    5.5432   -0.1426   -2.4199 C   0  0  0  0  0  0  0  0  0  0  0  0
    6.1830   -0.0926   -1.2152 C   0  0  0  0  0  0  0  0  0  0  0  0
    5.5015    0.0200   -0.0245 N   0  0  0  0  0  0  0  0  0  0  0  0
    6.2559    0.1209    1.2112 C   0  0  0  0  0  0  0  0  0  0  0  0
    7.4360    1.0752    1.2767 C   0  0  0  0  0  0  0  0  0  0  0  0
    6.1741    1.4028    2.0270 C   0  0  0  0  0  0  0  0  0  0  0  0
    6.3087   -0.3147   -3.6543 C   0  0  0  0  0  0  0  0  0  0  0  0
    5.9744   -0.7440   -4.7209 O   0  0  0  0  0  0  0  0  0  0  0  0
    7.6067    0.0770   -3.4412 O   0  0  0  0  0  0  0  0  0  0  0  0
    1.9962   -0.0021   -1.2131 C   0  0  0  0  0  0  0  0  0  0  0  0
   -0.3470    1.2885    2.2224 H   0  0  0  0  0  0  0  0  0  0  0  0
    1.2073    2.0952    2.5393 H   0  0  0  0  0  0  0  0  0  0  0  0
   -0.2643    2.1038    4.6243 H   0  0  0  0  0  0  0  0  0  0  0  0
    1.2739    1.2018    4.8897 H   0  0  0  0  0  0  0  0  0  0  0  0
    1.2569   -1.3317    4.8514 H   0  0  0  0  0  0  0  0  0  0  0  0
   -0.2899   -2.2034    4.5418 H   0  0  0  0  0  0  0  0  0  0  0  0
    1.2062   -2.1308    2.4743 H   0  0  0  0  0  0  0  0  0  0  0  0
   -0.3481   -1.3136    2.1744 H   0  0  0  0  0  0  0  0  0  0  0  0
    3.9326    0.0096    2.1774 H   0  0  0  0  0  0  0  0  0  0  0  0
    7.2869   -0.1484   -1.1401 H   0  0  0  0  0  0  0  0  0  0  0  0
    6.3137   -0.8491    1.7316 H   0  0  0  0  0  0  0  0  0  0  0  0
    7.7158    1.6763    0.4098 H   0  0  0  0  0  0  0  0  0  0  0  0
    8.3339    0.7714    1.8154 H   0  0  0  0  0  0  0  0  0  0  0  0
    6.1509    1.3473    3.1125 H   0  0  0  0  0  0  0  0  0  0  0  0
    5.5462    2.2248    1.6849 H   0  0  0  0  0  0  0  0  0  0  0  0
    8.1760   -0.0071   -4.2450 H   0  0  0  0  0  0  0  0  0  0  0  0
    1.4543   -0.0046   -2.1740 H   0  0  0  0  0  0  0  0  0  0  0  0
  1  2  1  0  0  0  0
  2  3  2  0  0  0  0
  3  4  1  0  0  0  0
  4 11  1  0  0  0  0
  4  5  1  0  0  0  0
  5  6  1  0  0  0  0
  6 29  1  0  0  0  0
  6  7  1  0  0  0  0
  6 30  1  0  0  0  0
  7  9  1  0  0  0  0
  8  7  1  0  0  0  0
 10 32  1  0  0  0  0
 10  7  1  0  0  0  0
 10 31  1  0  0  0  0
 11 10  1  0  0  0  0
 12  3  1  0  0  0  0
 12 35  1  0  0  0  0
 13 12  2  0  0  0  0
 14 13  1  0  0  0  0
 15 17  1  0  0  0  0
 15 14  1  0  0  0  0
 16 15  2  0  0  0  0
 17 18  2  0  0  0  0
 18 36  1  0  0  0  0
 18 19  1  0  0  0  0
 19 13  1  0  0  0  0
 19 20  1  0  0  0  0
 20 21  1  0  0  0  0
 20 37  1  0  0  0  0
 20 22  1  0  0  0  0
 21 39  1  0  0  0  0
 21 22  1  0  0  0  0
 22 40  1  0  0  0  0
 23 25  1  0  0  0  0
 23 17  1  0  0  0  0
 24 23  2  0  0  0  0
 26 14  2  0  0  0  0
 26  2  1  0  0  0  0
 27  5  1  0  0  0  0
 28  5  1  0  0  0  0
 33 11  1  0  0  0  0
 34 11  1  0  0  0  0
 38 21  1  0  0  0  0
 41 22  1  0  0  0  0
 42 25  1  0  0  0  0
 43 26  1  0  0  0  0
M  END
$$$$
