43
rmsd129.gzmat
F          0.00000        0.00000        0.00000
C          1.32470        0.00000        0.00000
C          2.01130        0.00000        1.22810
N          1.38380        0.00820        2.52460
C          0.59450        1.23250        2.77610
C          0.28140        1.26760        4.28330
N         -0.51200        0.02430        4.66430
H         -1.41940        0.02020        4.15000
H         -0.72230        0.03210        5.68280
C          0.28310       -1.22360        4.30220
C          0.59360       -1.21170        2.79360
C          3.40110       -0.00360        1.22610
C          4.10380       -0.01000        0.00370
C          3.39170       -0.00240       -1.21160
C          4.09810        0.00080       -2.52620
O          3.47950       -0.11890       -3.55390
C          5.54390        0.13510       -2.41890
C          6.18420        0.09740       -1.21440
N          5.50330       -0.00550       -0.02220
C          6.26320       -0.10170        1.21080
C          6.17620       -1.37490        2.03920
C          7.43430       -1.06770        1.27430
C          6.31140        0.29910       -3.65320
O          5.99050        0.75850       -4.71140
O          7.59470       -0.14070       -3.44710
C          1.99650        0.00080       -1.21300
H         -0.33380        1.31910        2.17070
H          1.22230        2.12020        2.50300
H         -0.30080        2.17760        4.55130
H          1.23190        1.28790        4.87050
H          1.23590       -1.23140        4.88680
H         -0.29550       -2.13090        4.58650
H          1.21880       -2.10430        2.53160
H         -0.33640       -1.30530        2.19200
H          3.93320        0.00340        2.17810
H          7.28780        0.15660       -1.14110
H          6.33370        0.87280        1.72090
H          5.53650       -2.19350        1.71130
H          6.16320       -1.30930        3.12440
H          8.34170       -0.77010        1.80040
H          7.69750       -1.67940        0.40960
H          8.16720       -0.06330       -4.24910
H          1.45480        0.00370       -2.17430
