rmsd130.gzmat
 OpenBabel08211713363D

 43 46  0  0  0  0  0  0  0  0999 V2000
    0.0000    0.0000    0.0000 F   0  0  0  0  0  0  0  0  0  0  0  0
    1.3247    0.0000    0.0000 C   0  0  0  0  0  0  0  0  0  0  0  0
    2.0118    0.0000    1.2278 C   0  0  0  0  0  0  0  0  0  0  0  0
    1.3846    0.0078    2.5247 N   0  0  0  0  0  0  0  0  0  0  0  0
    0.6160    1.2440    2.7827 C   0  0  0  0  0  0  0  0  0  0  0  0
    0.3052    1.2769    4.2904 C   0  0  0  0  0  0  0  0  0  0  0  0
   -0.5117    0.0471    4.6644 N   0  0  0  0  0  0  0  0  0  0  0  0
   -1.4183    0.0628    4.1496 H   0  0  0  0  0  0  0  0  0  0  0  0
   -0.7226    0.0532    5.6828 H   0  0  0  0  0  0  0  0  0  0  0  0
    0.2601   -1.2132    4.2956 C   0  0  0  0  0  0  0  0  0  0  0  0
    0.5722   -1.1986    2.7872 C   0  0  0  0  0  0  0  0  0  0  0  0
    3.4016    0.0000    1.2247 C   0  0  0  0  0  0  0  0  0  0  0  0
    4.1034   -0.0023    0.0017 C   0  0  0  0  0  0  0  0  0  0  0  0
    3.3904    0.0058   -1.2131 C   0  0  0  0  0  0  0  0  0  0  0  0
    4.0952    0.0165   -2.5285 C   0  0  0  0  0  0  0  0  0  0  0  0
    3.4774   -0.1085   -3.5558 O   0  0  0  0  0  0  0  0  0  0  0  0
    5.5398    0.1621   -2.4222 C   0  0  0  0  0  0  0  0  0  0  0  0
    6.1816    0.1206   -1.2189 C   0  0  0  0  0  0  0  0  0  0  0  0
    5.5026    0.0070   -0.0264 N   0  0  0  0  0  0  0  0  0  0  0  0
    6.2672   -0.1049    1.2020 C   0  0  0  0  0  0  0  0  0  0  0  0
    6.1674   -1.3792    2.0271 C   0  0  0  0  0  0  0  0  0  0  0  0
    7.4235   -1.0893    1.2522 C   0  0  0  0  0  0  0  0  0  0  0  0
    6.3059    0.3362   -3.6563 C   0  0  0  0  0  0  0  0  0  0  0  0
    5.9914    0.8264   -4.7026 O   0  0  0  0  0  0  0  0  0  0  0  0
    7.5792   -0.1373   -3.4643 O   0  0  0  0  0  0  0  0  0  0  0  0
    1.9961    0.0032   -1.2132 C   0  0  0  0  0  0  0  0  0  0  0  0
   -0.3104    1.3480    2.1778 H   0  0  0  0  0  0  0  0  0  0  0  0
    1.2569    2.1226    2.5122 H   0  0  0  0  0  0  0  0  0  0  0  0
   -0.2590    2.1963    4.5637 H   0  0  0  0  0  0  0  0  0  0  0  0
    1.2564    1.2743    4.8767 H   0  0  0  0  0  0  0  0  0  0  0  0
    1.2111   -1.2430    4.8816 H   0  0  0  0  0  0  0  0  0  0  0  0
   -0.3376   -2.1100    4.5729 H   0  0  0  0  0  0  0  0  0  0  0  0
    1.1806   -2.1009    2.5204 H   0  0  0  0  0  0  0  0  0  0  0  0
   -0.3594   -1.2718    2.1854 H   0  0  0  0  0  0  0  0  0  0  0  0
    3.9336    0.0076    2.1766 H   0  0  0  0  0  0  0  0  0  0  0  0
    7.2846    0.1855   -1.1462 H   0  0  0  0  0  0  0  0  0  0  0  0
    6.3575    0.8662    1.7150 H   0  0  0  0  0  0  0  0  0  0  0  0
    5.5141   -2.1883    1.7028 H   0  0  0  0  0  0  0  0  0  0  0  0
    6.1635   -1.3143    3.1124 H   0  0  0  0  0  0  0  0  0  0  0  0
    8.3401   -0.8087    1.7711 H   0  0  0  0  0  0  0  0  0  0  0  0
    7.6680   -1.7011    0.3816 H   0  0  0  0  0  0  0  0  0  0  0  0
    8.1488   -0.0640   -4.2688 H   0  0  0  0  0  0  0  0  0  0  0  0
    1.4547    0.0029   -2.1744 H   0  0  0  0  0  0  0  0  0  0  0  0
  1  2  1  0  0  0  0
  2  3  2  0  0  0  0
  3  4  1  0  0  0  0
  4  5  1  0  0  0  0
  4 11  1  0  0  0  0
  5  6  1  0  0  0  0
  6 29  1  0  0  0  0
  6  7  1  0  0  0  0
  6 30  1  0  0  0  0
  7  9  1  0  0  0  0
  8  7  1  0  0  0  0
 10 32  1  0  0  0  0
 10  7  1  0  0  0  0
 10 31  1  0  0  0  0
 11 10  1  0  0  0  0
 12  3  1  0  0  0  0
 12 35  1  0  0  0  0
 13 12  2  0  0  0  0
 14 13  1  0  0  0  0
 15 17  1  0  0  0  0
 15 14  1  0  0  0  0
 16 15  2  0  0  0  0
 17 18  2  0  0  0  0
 18 36  1  0  0  0  0
 18 19  1  0  0  0  0
 19 13  1  0  0  0  0
 19 20  1  0  0  0  0
 20 22  1  0  0  0  0
 20 37  1  0  0  0  0
 20 21  1  0  0  0  0
 21 39  1  0  0  0  0
 22 40  1  0  0  0  0
 22 21  1  0  0  0  0
 23 25  1  0  0  0  0
 23 17  1  0  0  0  0
 24 23  2  0  0  0  0
 26 14  2  0  0  0  0
 26  2  1  0  0  0  0
 27  5  1  0  0  0  0
 28  5  1  0  0  0  0
 33 11  1  0  0  0  0
 34 11  1  0  0  0  0
 38 21  1  0  0  0  0
 41 22  1  0  0  0  0
 42 25  1  0  0  0  0
 43 26  1  0  0  0  0
M  END
$$$$
