rmsd166.gzmat
 OpenBabel08211713363D

 43 46  0  0  0  0  0  0  0  0999 V2000
    0.0000    0.0000    0.0000 F   0  0  0  0  0  0  0  0  0  0  0  0
    1.3248    0.0000    0.0000 C   0  0  0  0  0  0  0  0  0  0  0  0
    2.0132    0.0000    1.2272 C   0  0  0  0  0  0  0  0  0  0  0  0
    1.3843    0.0182    2.5237 N   0  0  0  0  0  0  0  0  0  0  0  0
    0.5854    1.2403    2.7584 C   0  0  0  0  0  0  0  0  0  0  0  0
    0.2457    1.2865    4.2597 C   0  0  0  0  0  0  0  0  0  0  0  0
   -0.5402    0.0389    4.6418 N   0  0  0  0  0  0  0  0  0  0  0  0
   -1.4395    0.0183    4.1141 H   0  0  0  0  0  0  0  0  0  0  0  0
   -0.7664    0.0553    5.6568 H   0  0  0  0  0  0  0  0  0  0  0  0
    0.2753   -1.2025    4.3045 C   0  0  0  0  0  0  0  0  0  0  0  0
    0.5996   -1.2043    2.7995 C   0  0  0  0  0  0  0  0  0  0  0  0
    3.4031   -0.0134    1.2224 C   0  0  0  0  0  0  0  0  0  0  0  0
    4.1037   -0.0232   -0.0018 C   0  0  0  0  0  0  0  0  0  0  0  0
    3.3885   -0.0082   -1.2153 C   0  0  0  0  0  0  0  0  0  0  0  0
    4.0901   -0.0046   -2.5322 C   0  0  0  0  0  0  0  0  0  0  0  0
    3.4658   -0.1082   -3.5580 O   0  0  0  0  0  0  0  0  0  0  0  0
    5.5380    0.1074   -2.4297 C   0  0  0  0  0  0  0  0  0  0  0  0
    6.1816    0.0629   -1.2273 C   0  0  0  0  0  0  0  0  0  0  0  0
    5.5034   -0.0308   -0.0327 N   0  0  0  0  0  0  0  0  0  0  0  0
    6.2644   -0.1299    1.1992 C   0  0  0  0  0  0  0  0  0  0  0  0
    6.1950   -1.4139    2.0124 C   0  0  0  0  0  0  0  0  0  0  0  0
    7.4513   -1.0766    1.2570 C   0  0  0  0  0  0  0  0  0  0  0  0
    6.3041    0.2510   -3.6677 C   0  0  0  0  0  0  0  0  0  0  0  0
    5.9965    0.7338   -4.7195 O   0  0  0  0  0  0  0  0  0  0  0  0
    7.5673   -0.2473   -3.4735 O   0  0  0  0  0  0  0  0  0  0  0  0
    1.9942    0.0002   -1.2141 C   0  0  0  0  0  0  0  0  0  0  0  0
   -0.3326    1.3224    2.1380 H   0  0  0  0  0  0  0  0  0  0  0  0
    1.2151    2.1282    2.4893 H   0  0  0  0  0  0  0  0  0  0  0  0
   -0.3525    2.1922    4.5074 H   0  0  0  0  0  0  0  0  0  0  0  0
    1.1853    1.3233    4.8632 H   0  0  0  0  0  0  0  0  0  0  0  0
    1.2215   -1.1893    4.8991 H   0  0  0  0  0  0  0  0  0  0  0  0
   -0.2931   -2.1139    4.5949 H   0  0  0  0  0  0  0  0  0  0  0  0
    1.2335   -2.0952    2.5527 H   0  0  0  0  0  0  0  0  0  0  0  0
   -0.3238   -1.3101    2.1898 H   0  0  0  0  0  0  0  0  0  0  0  0
    3.9370   -0.0112    2.1733 H   0  0  0  0  0  0  0  0  0  0  0  0
    7.2861    0.1085   -1.1575 H   0  0  0  0  0  0  0  0  0  0  0  0
    6.3202    0.8396    1.7207 H   0  0  0  0  0  0  0  0  0  0  0  0
    5.5729   -2.2408    1.6721 H   0  0  0  0  0  0  0  0  0  0  0  0
    6.1752   -1.3605    3.0980 H   0  0  0  0  0  0  0  0  0  0  0  0
    8.3502   -0.7691    1.7922 H   0  0  0  0  0  0  0  0  0  0  0  0
    7.7312   -1.6745    0.3876 H   0  0  0  0  0  0  0  0  0  0  0  0
    8.1367   -0.1942   -4.2795 H   0  0  0  0  0  0  0  0  0  0  0  0
    1.4495    0.0055   -2.1737 H   0  0  0  0  0  0  0  0  0  0  0  0
  1  2  1  0  0  0  0
  2  3  2  0  0  0  0
  3  4  1  0  0  0  0
  4  5  1  0  0  0  0
  4 11  1  0  0  0  0
  5  6  1  0  0  0  0
  6 29  1  0  0  0  0
  6  7  1  0  0  0  0
  6 30  1  0  0  0  0
  7  9  1  0  0  0  0
  8  7  1  0  0  0  0
 10 32  1  0  0  0  0
 10  7  1  0  0  0  0
 10 31  1  0  0  0  0
 11 10  1  0  0  0  0
 12  3  1  0  0  0  0
 12 35  1  0  0  0  0
 13 12  2  0  0  0  0
 14 26  2  0  0  0  0
 14 13  1  0  0  0  0
 15 17  1  0  0  0  0
 15 14  1  0  0  0  0
 16 15  2  0  0  0  0
 17 18  2  0  0  0  0
 18 36  1  0  0  0  0
 18 19  1  0  0  0  0
 19 13  1  0  0  0  0
 19 20  1  0  0  0  0
 20 22  1  0  0  0  0
 20 37  1  0  0  0  0
 20 21  1  0  0  0  0
 21 39  1  0  0  0  0
 22 40  1  0  0  0  0
 22 21  1  0  0  0  0
 23 25  1  0  0  0  0
 23 17  1  0  0  0  0
 24 23  2  0  0  0  0
 26  2  1  0  0  0  0
 27  5  1  0  0  0  0
 28  5  1  0  0  0  0
 33 11  1  0  0  0  0
 34 11  1  0  0  0  0
 38 21  1  0  0  0  0
 41 22  1  0  0  0  0
 42 25  1  0  0  0  0
 43 26  1  0  0  0  0
M  END
$$$$
