40
rmsd139.gzmat
Br         0.00000        0.00000        0.00000
C          1.90100        0.00000        0.00000
C          2.56930        0.00000        1.21820
C          3.96350       -0.00380        1.21500
C          4.65590       -0.00690        0.00370
C          6.13970       -0.01750       -0.01840
O          6.77410        0.78330       -0.65770
C          6.85850       -1.08940        0.78240
O          5.93090       -1.91700        1.45400
C          5.34990       -2.91900        0.70850
O          5.75580       -3.17310       -0.39730
C          4.25820       -3.50080        1.47400
C          3.18590       -4.08430        0.91060
C          2.06180       -4.59130        1.76340
C          0.74640       -3.90110        1.34200
H          0.85170       -2.80250        1.51590
C          0.48630       -4.14840       -0.15340
C          1.65780       -3.62800       -0.99220
C          2.98190       -4.27210       -0.55690
C         -0.41810       -4.42790        2.18290
C          3.96700        0.00690       -1.20970
C          2.57270        0.00360       -1.21670
H          2.03030        0.00000        2.16510
H          4.51000       -0.01280        2.16050
H          7.45510       -0.64910        1.60630
H          7.53010       -1.68360        0.12760
H          4.34730       -3.39030        2.55680
H          2.24600       -4.42120        2.84150
H          1.96860       -5.69090        1.64730
H          0.33040       -5.22650       -0.34050
H         -0.45120       -3.64950       -0.46250
H          1.47910       -3.82710       -2.06530
H          1.73340       -2.52740       -0.89870
H          2.97890       -5.35720       -0.79470
H          3.81710       -3.85520       -1.16190
H         -0.56120       -5.50540        2.04900
H         -1.35850       -3.93620        1.90650
H         -0.25810       -4.24480        3.25120
H          4.52140        0.02170       -2.15150
H          2.03570        0.01210       -2.16540
