rmsd105.gzmat
 OpenBabel08211713373D

 40 41  0  0  1  0  0  0  0  0999 V2000
    0.0000    0.0000    0.0000 Br  0  0  0  0  0  0  0  0  0  0  0  0
    1.9009    0.0000    0.0000 C   0  0  0  0  0  0  0  0  0  0  0  0
    2.5717    0.0000    1.2172 C   0  0  0  0  0  0  0  0  0  0  0  0
    3.9659   -0.0128    1.2121 C   0  0  0  0  0  0  0  0  0  0  0  0
    4.6564   -0.0122   -0.0003 C   0  0  0  0  0  0  0  0  0  0  0  0
    6.1403   -0.0337    0.0232 C   0  0  0  0  0  0  0  0  0  0  0  0
    6.7559   -0.8794    0.6224 O   0  0  0  0  0  0  0  0  0  0  0  0
    6.8878    1.0571   -0.7232 C   0  0  0  0  0  0  0  0  0  0  0  0
    5.9869    1.8539   -1.4627 O   0  0  0  0  0  0  0  0  0  0  0  0
    5.3941    2.9033   -0.7968 C   0  0  0  0  0  0  0  0  0  0  0  0
    5.7754    3.2314    0.2979 O   0  0  0  0  0  0  0  0  0  0  0  0
    4.3198    3.4295   -1.6255 C   0  0  0  0  0  0  0  0  0  0  0  0
    3.2269    4.0322   -1.1267 C   0  0  0  0  0  0  0  0  0  0  0  0
    2.1096    4.4517   -2.0338 C   0  0  0  0  0  0  0  0  0  0  0  0
    0.8139    3.7306   -1.6016 C   0  0  1  0  0  0  0  0  0  0  0  0
    0.9714    2.6295   -1.7051 H   0  0  0  0  0  0  0  0  0  0  0  0
    0.5038    4.0544   -0.1305 C   0  0  0  0  0  0  0  0  0  0  0  0
    1.6746    3.6438    0.7683 C   0  0  0  0  0  0  0  0  0  0  0  0
    2.9822    4.3133    0.3196 C   0  0  0  0  0  0  0  0  0  0  0  0
   -0.3497    4.1536   -2.5000 C   0  0  0  0  0  0  0  0  0  0  0  0
    3.9652   -0.0108   -1.2123 C   0  0  0  0  0  0  0  0  0  0  0  0
    2.5708   -0.0057   -1.2171 C   0  0  0  0  0  0  0  0  0  0  0  0
    2.0339   -0.0002    2.1654 H   0  0  0  0  0  0  0  0  0  0  0  0
    4.5176   -0.0253    2.1550 H   0  0  0  0  0  0  0  0  0  0  0  0
    7.5565    0.6326   -1.4991 H   0  0  0  0  0  0  0  0  0  0  0  0
    7.4943    1.6666   -0.0202 H   0  0  0  0  0  0  0  0  0  0  0  0
    4.4381    3.2527   -2.6967 H   0  0  0  0  0  0  0  0  0  0  0  0
    2.3259    4.2298   -3.0964 H   0  0  0  0  0  0  0  0  0  0  0  0
    1.9700    5.5508   -1.9812 H   0  0  0  0  0  0  0  0  0  0  0  0
    0.2925    5.1329   -0.0134 H   0  0  0  0  0  0  0  0  0  0  0  0
   -0.4168    3.5290    0.1850 H   0  0  0  0  0  0  0  0  0  0  0  0
    1.4598    3.9082    1.8204 H   0  0  0  0  0  0  0  0  0  0  0  0
    1.7992    2.5437    0.7543 H   0  0  0  0  0  0  0  0  0  0  0  0
    2.9274    5.4108    0.4812 H   0  0  0  0  0  0  0  0  0  0  0  0
    3.8191    3.9741    0.9686 H   0  0  0  0  0  0  0  0  0  0  0  0
   -0.5420    5.2296   -2.4363 H   0  0  0  0  0  0  0  0  0  0  0  0
   -1.2749    3.6384   -2.2164 H   0  0  0  0  0  0  0  0  0  0  0  0
   -0.1542    3.9138   -3.5507 H   0  0  0  0  0  0  0  0  0  0  0  0
    4.5123   -0.0075   -2.1576 H   0  0  0  0  0  0  0  0  0  0  0  0
    2.0335   -0.0065   -2.1650 H   0  0  0  0  0  0  0  0  0  0  0  0
  1  2  1  0  0  0  0
  2  3  2  0  0  0  0
  3 23  1  0  0  0  0
  4  3  1  0  0  0  0
  4 24  1  0  0  0  0
  5  6  1  0  0  0  0
  5  4  2  0  0  0  0
  6  7  2  0  0  0  0
  8 26  1  0  0  0  0
  8  6  1  0  0  0  0
  9 10  1  0  0  0  0
  9  8  1  0  0  0  0
 10 11  2  0  0  0  0
 12 13  2  0  0  0  0
 12 10  1  0  0  0  0
 13 19  1  0  0  0  0
 14 29  1  0  0  0  0
 14 15  1  0  0  0  0
 14 13  1  0  0  0  0
 15 16  1  6  0  0  0
 15 17  1  0  0  0  0
 17 30  1  0  0  0  0
 17 31  1  0  0  0  0
 17 18  1  0  0  0  0
 18 32  1  0  0  0  0
 19 34  1  0  0  0  0
 19 18  1  0  0  0  0
 19 35  1  0  0  0  0
 20 36  1  0  0  0  0
 20 37  1  0  0  0  0
 20 15  1  0  0  0  0
 21  5  1  0  0  0  0
 22 21  2  0  0  0  0
 22  2  1  0  0  0  0
 25  8  1  0  0  0  0
 27 12  1  0  0  0  0
 28 14  1  0  0  0  0
 33 18  1  0  0  0  0
 38 20  1  0  0  0  0
 39 21  1  0  0  0  0
 40 22  1  0  0  0  0
M  END
$$$$
