rmsd182.gzmat
 OpenBabel08211713373D

 40 41  0  0  1  0  0  0  0  0999 V2000
    0.0000    0.0000    0.0000 Br  0  0  0  0  0  0  0  0  0  0  0  0
    1.9007    0.0000    0.0000 C   0  0  0  0  0  0  0  0  0  0  0  0
    2.5692    0.0000    1.2180 C   0  0  0  0  0  0  0  0  0  0  0  0
    3.9635   -0.0024    1.2153 C   0  0  0  0  0  0  0  0  0  0  0  0
    4.6561   -0.0029    0.0044 C   0  0  0  0  0  0  0  0  0  0  0  0
    6.1398   -0.0034   -0.0202 C   0  0  0  0  0  0  0  0  0  0  0  0
    6.7662    0.8029   -0.6609 O   0  0  0  0  0  0  0  0  0  0  0  0
    6.8720   -1.0675    0.7781 C   0  0  0  0  0  0  0  0  0  0  0  0
    5.9560   -1.8867    1.4748 O   0  0  0  0  0  0  0  0  0  0  0  0
    5.3899   -2.9211    0.7638 C   0  0  0  0  0  0  0  0  0  0  0  0
    5.7957   -3.2039   -0.3349 O   0  0  0  0  0  0  0  0  0  0  0  0
    4.3101   -3.4956    1.5521 C   0  0  0  0  0  0  0  0  0  0  0  0
    3.2343   -4.0899    1.0080 C   0  0  0  0  0  0  0  0  0  0  0  0
    2.1126   -4.5782    1.8742 C   0  0  0  0  0  0  0  0  0  0  0  0
    0.8127   -3.8477    1.4719 C   0  0  1  0  0  0  0  0  0  0  0  0
    0.9523   -2.7540    1.6508 H   0  0  0  0  0  0  0  0  0  0  0  0
    0.5254   -4.0774   -0.0214 C   0  0  0  0  0  0  0  0  0  0  0  0
    1.7048   -3.6066   -0.8787 C   0  0  0  0  0  0  0  0  0  0  0  0
    3.0107   -4.2942   -0.4546 C   0  0  0  0  0  0  0  0  0  0  0  0
   -0.3564   -4.3464    2.3235 C   0  0  0  0  0  0  0  0  0  0  0  0
    3.9669    0.0086   -1.2089 C   0  0  0  0  0  0  0  0  0  0  0  0
    2.5728    0.0032   -1.2165 C   0  0  0  0  0  0  0  0  0  0  0  0
    2.0303    0.0006    2.1651 H   0  0  0  0  0  0  0  0  0  0  0  0
    4.5087   -0.0118    2.1615 H   0  0  0  0  0  0  0  0  0  0  0  0
    7.4833   -0.6190    1.5865 H   0  0  0  0  0  0  0  0  0  0  0  0
    7.5323   -1.6674    0.1168 H   0  0  0  0  0  0  0  0  0  0  0  0
    4.4101   -3.3681    2.6319 H   0  0  0  0  0  0  0  0  0  0  0  0
    2.3146   -4.4215    2.9506 H   0  0  0  0  0  0  0  0  0  0  0  0
    1.9874   -5.6734    1.7519 H   0  0  0  0  0  0  0  0  0  0  0  0
    0.3211   -5.1467   -0.2100 H   0  0  0  0  0  0  0  0  0  0  0  0
   -0.3938   -3.5370   -0.3146 H   0  0  0  0  0  0  0  0  0  0  0  0
    1.5050   -3.8077   -1.9473 H   0  0  0  0  0  0  0  0  0  0  0  0
    1.8221   -2.5089   -0.7972 H   0  0  0  0  0  0  0  0  0  0  0  0
    2.9644   -5.3808   -0.6777 H   0  0  0  0  0  0  0  0  0  0  0  0
    3.8526   -3.9158   -1.0745 H   0  0  0  0  0  0  0  0  0  0  0  0
   -0.5513   -5.4119    2.1623 H   0  0  0  0  0  0  0  0  0  0  0  0
   -1.2792   -3.8052    2.0838 H   0  0  0  0  0  0  0  0  0  0  0  0
   -0.1647   -4.2035    3.3923 H   0  0  0  0  0  0  0  0  0  0  0  0
    4.5211    0.0239   -2.1504 H   0  0  0  0  0  0  0  0  0  0  0  0
    2.0361    0.0096   -2.1654 H   0  0  0  0  0  0  0  0  0  0  0  0
  2  1  1  0  0  0  0
  2  3  2  0  0  0  0
  3 23  1  0  0  0  0
  4  3  1  0  0  0  0
  4 24  1  0  0  0  0
  5  4  2  0  0  0  0
  6  5  1  0  0  0  0
  6  8  1  0  0  0  0
  7  6  2  0  0  0  0
  8  9  1  0  0  0  0
  8 25  1  0  0  0  0
 10  9  1  0  0  0  0
 10 12  1  0  0  0  0
 11 10  2  0  0  0  0
 12 27  1  0  0  0  0
 13 12  2  0  0  0  0
 13 14  1  0  0  0  0
 14 28  1  0  0  0  0
 15 16  1  1  0  0  0
 15 14  1  0  0  0  0
 15 20  1  0  0  0  0
 17 15  1  0  0  0  0
 18 33  1  0  0  0  0
 18 19  1  0  0  0  0
 18 17  1  0  0  0  0
 19 13  1  0  0  0  0
 20 38  1  0  0  0  0
 21  5  1  0  0  0  0
 22 21  2  0  0  0  0
 22  2  1  0  0  0  0
 26  8  1  0  0  0  0
 29 14  1  0  0  0  0
 30 17  1  0  0  0  0
 31 17  1  0  0  0  0
 32 18  1  0  0  0  0
 34 19  1  0  0  0  0
 35 19  1  0  0  0  0
 36 20  1  0  0  0  0
 37 20  1  0  0  0  0
 39 21  1  0  0  0  0
 40 22  1  0  0  0  0
M  END
$$$$
