rmsd225.gzmat
 OpenBabel08211713373D

 40 41  0  0  1  0  0  0  0  0999 V2000
    0.0000    0.0000    0.0000 Br  0  0  0  0  0  0  0  0  0  0  0  0
    1.9007    0.0000    0.0000 C   0  0  0  0  0  0  0  0  0  0  0  0
    2.5690    0.0000    1.2182 C   0  0  0  0  0  0  0  0  0  0  0  0
    3.9633    0.0053    1.2148 C   0  0  0  0  0  0  0  0  0  0  0  0
    4.6552    0.0046    0.0033 C   0  0  0  0  0  0  0  0  0  0  0  0
    6.1391    0.0062   -0.0216 C   0  0  0  0  0  0  0  0  0  0  0  0
    6.7652    0.8246   -0.6465 O   0  0  0  0  0  0  0  0  0  0  0  0
    6.8683   -1.0762    0.7542 C   0  0  0  0  0  0  0  0  0  0  0  0
    5.9484   -1.8829    1.4600 O   0  0  0  0  0  0  0  0  0  0  0  0
    5.3603   -2.9108    0.7570 C   0  0  0  0  0  0  0  0  0  0  0  0
    5.7603   -3.2124   -0.3386 O   0  0  0  0  0  0  0  0  0  0  0  0
    4.2669   -3.4511    1.5499 C   0  0  0  0  0  0  0  0  0  0  0  0
    3.1886   -4.0500    1.0156 C   0  0  0  0  0  0  0  0  0  0  0  0
    2.0546   -4.4915    1.8911 C   0  0  0  0  0  0  0  0  0  0  0  0
    0.7627   -3.7744    1.4418 C   0  0  1  0  0  0  0  0  0  0  0  0
    0.9088   -2.6738    1.5662 H   0  0  0  0  0  0  0  0  0  0  0  0
    0.4883   -4.0764   -0.0411 C   0  0  0  0  0  0  0  0  0  0  0  0
    1.6752   -3.6412   -0.9069 C   0  0  0  0  0  0  0  0  0  0  0  0
    2.9772   -4.3088   -0.4400 C   0  0  0  0  0  0  0  0  0  0  0  0
   -0.4160   -4.2212    2.3086 C   0  0  0  0  0  0  0  0  0  0  0  0
    3.9663    0.0120   -1.2101 C   0  0  0  0  0  0  0  0  0  0  0  0
    2.5721    0.0057   -1.2167 C   0  0  0  0  0  0  0  0  0  0  0  0
    2.0299   -0.0058    2.1650 H   0  0  0  0  0  0  0  0  0  0  0  0
    4.5100    0.0021    2.1606 H   0  0  0  0  0  0  0  0  0  0  0  0
    7.5027   -0.6459    1.5548 H   0  0  0  0  0  0  0  0  0  0  0  0
    7.5055   -1.6821    0.0758 H   0  0  0  0  0  0  0  0  0  0  0  0
    4.3574   -3.2904    2.6264 H   0  0  0  0  0  0  0  0  0  0  0  0
    2.2471   -4.2850    2.9612 H   0  0  0  0  0  0  0  0  0  0  0  0
    1.9248   -5.5909    1.8193 H   0  0  0  0  0  0  0  0  0  0  0  0
    0.2900   -5.1546   -0.1804 H   0  0  0  0  0  0  0  0  0  0  0  0
   -0.4302   -3.5545   -0.3689 H   0  0  0  0  0  0  0  0  0  0  0  0
    1.4866   -3.8898   -1.9680 H   0  0  0  0  0  0  0  0  0  0  0  0
    1.7896   -2.5403   -0.8728 H   0  0  0  0  0  0  0  0  0  0  0  0
    2.9336   -5.4040   -0.6208 H   0  0  0  0  0  0  0  0  0  0  0  0
    3.8253   -3.9543   -1.0657 H   0  0  0  0  0  0  0  0  0  0  0  0
   -0.5972   -5.2980    2.2275 H   0  0  0  0  0  0  0  0  0  0  0  0
   -1.3406   -3.7117    2.0122 H   0  0  0  0  0  0  0  0  0  0  0  0
   -0.2442   -3.9939    3.3664 H   0  0  0  0  0  0  0  0  0  0  0  0
    4.5201    0.0239   -2.1520 H   0  0  0  0  0  0  0  0  0  0  0  0
    2.0356    0.0147   -2.1656 H   0  0  0  0  0  0  0  0  0  0  0  0
  2  1  1  0  0  0  0
  2  3  2  0  0  0  0
  3 23  1  0  0  0  0
  4  3  1  0  0  0  0
  4 24  1  0  0  0  0
  5  4  2  0  0  0  0
  6  5  1  0  0  0  0
  6  8  1  0  0  0  0
  7  6  2  0  0  0  0
  8  9  1  0  0  0  0
  8 25  1  0  0  0  0
 10  9  1  0  0  0  0
 10 12  1  0  0  0  0
 11 10  2  0  0  0  0
 12 27  1  0  0  0  0
 13 12  2  0  0  0  0
 13 14  1  0  0  0  0
 14 28  1  0  0  0  0
 15 16  1  1  0  0  0
 15 14  1  0  0  0  0
 15 20  1  0  0  0  0
 17 15  1  0  0  0  0
 18 33  1  0  0  0  0
 18 19  1  0  0  0  0
 18 17  1  0  0  0  0
 19 13  1  0  0  0  0
 20 38  1  0  0  0  0
 21  5  1  0  0  0  0
 22 21  2  0  0  0  0
 22  2  1  0  0  0  0
 26  8  1  0  0  0  0
 29 14  1  0  0  0  0
 30 17  1  0  0  0  0
 31 17  1  0  0  0  0
 32 18  1  0  0  0  0
 34 19  1  0  0  0  0
 35 19  1  0  0  0  0
 36 20  1  0  0  0  0
 37 20  1  0  0  0  0
 39 21  1  0  0  0  0
 40 22  1  0  0  0  0
M  END
$$$$
