rmsd20.gzmat
 OpenBabel08211713373D

 40 41  0  0  1  0  0  0  0  0999 V2000
    0.0000    0.0000    0.0000 Br  0  0  0  0  0  0  0  0  0  0  0  0
    1.9009    0.0000    0.0000 C   0  0  0  0  0  0  0  0  0  0  0  0
    2.5683    0.0000    1.2186 C   0  0  0  0  0  0  0  0  0  0  0  0
    3.9624   -0.0064    1.2159 C   0  0  0  0  0  0  0  0  0  0  0  0
    4.6554   -0.0114    0.0049 C   0  0  0  0  0  0  0  0  0  0  0  0
    6.1393   -0.0325   -0.0107 C   0  0  0  0  0  0  0  0  0  0  0  0
    6.7873    0.7927   -0.6035 O   0  0  0  0  0  0  0  0  0  0  0  0
    6.8371   -1.1517    0.7424 C   0  0  0  0  0  0  0  0  0  0  0  0
    5.8930   -1.9761    1.3951 O   0  0  0  0  0  0  0  0  0  0  0  0
    5.2832   -2.9425    0.6264 C   0  0  0  0  0  0  0  0  0  0  0  0
    5.6691   -3.1669   -0.4932 O   0  0  0  0  0  0  0  0  0  0  0  0
    4.1946   -3.5347    1.3884 C   0  0  0  0  0  0  0  0  0  0  0  0
    3.1241   -4.1210    0.8241 C   0  0  0  0  0  0  0  0  0  0  0  0
    2.0185   -4.6623    1.6801 C   0  0  0  0  0  0  0  0  0  0  0  0
    0.6777   -4.0141    1.2736 C   0  0  1  0  0  0  0  0  0  0  0  0
    0.7443   -2.9154    1.4639 H   0  0  0  0  0  0  0  0  0  0  0  0
    0.4159   -4.2470   -0.2233 C   0  0  0  0  0  0  0  0  0  0  0  0
    1.5653   -3.6775   -1.0603 C   0  0  0  0  0  0  0  0  0  0  0  0
    2.9099   -4.2912   -0.6442 C   0  0  0  0  0  0  0  0  0  0  0  0
   -0.4619   -4.5970    2.1120 C   0  0  0  0  0  0  0  0  0  0  0  0
    3.9678    0.0032   -1.2087 C   0  0  0  0  0  0  0  0  0  0  0  0
    2.5733    0.0030   -1.2160 C   0  0  0  0  0  0  0  0  0  0  0  0
    2.0292    0.0024    2.1653 H   0  0  0  0  0  0  0  0  0  0  0  0
    4.5095   -0.0173    2.1609 H   0  0  0  0  0  0  0  0  0  0  0  0
    7.4537   -0.7582    1.5751 H   0  0  0  0  0  0  0  0  0  0  0  0
    7.4851   -1.7392    0.0586 H   0  0  0  0  0  0  0  0  0  0  0  0
    4.2862   -3.4352    2.4727 H   0  0  0  0  0  0  0  0  0  0  0  0
    2.2037   -4.4909    2.7581 H   0  0  0  0  0  0  0  0  0  0  0  0
    1.9606   -5.7640    1.5598 H   0  0  0  0  0  0  0  0  0  0  0  0
    0.2937   -5.3265   -0.4271 H   0  0  0  0  0  0  0  0  0  0  0  0
   -0.5391   -3.7730   -0.5184 H   0  0  0  0  0  0  0  0  0  0  0  0
    1.3839   -3.8657   -2.1352 H   0  0  0  0  0  0  0  0  0  0  0  0
    1.6095   -2.5768   -0.9503 H   0  0  0  0  0  0  0  0  0  0  0  0
    2.9335   -5.3728   -0.8980 H   0  0  0  0  0  0  0  0  0  0  0  0
    3.7275   -3.8428   -1.2506 H   0  0  0  0  0  0  0  0  0  0  0  0
   -0.5711   -5.6753    1.9549 H   0  0  0  0  0  0  0  0  0  0  0  0
   -1.4205   -4.1304    1.8555 H   0  0  0  0  0  0  0  0  0  0  0  0
   -0.2969   -4.4336    3.1826 H   0  0  0  0  0  0  0  0  0  0  0  0
    4.5214    0.0127   -2.1505 H   0  0  0  0  0  0  0  0  0  0  0  0
    2.0369    0.0124   -2.1647 H   0  0  0  0  0  0  0  0  0  0  0  0
  2  1  1  0  0  0  0
  2  3  2  0  0  0  0
  3 23  1  0  0  0  0
  4  3  1  0  0  0  0
  4 24  1  0  0  0  0
  5  4  2  0  0  0  0
  6  5  1  0  0  0  0
  6  8  1  0  0  0  0
  7  6  2  0  0  0  0
  8  9  1  0  0  0  0
  8 25  1  0  0  0  0
 10 12  1  0  0  0  0
 10  9  1  0  0  0  0
 11 10  2  0  0  0  0
 12 27  1  0  0  0  0
 13 12  2  0  0  0  0
 13 14  1  0  0  0  0
 14 28  1  0  0  0  0
 15 16  1  1  0  0  0
 15 14  1  0  0  0  0
 15 20  1  0  0  0  0
 17 15  1  0  0  0  0
 18 33  1  0  0  0  0
 18 19  1  0  0  0  0
 18 17  1  0  0  0  0
 19 13  1  0  0  0  0
 20 38  1  0  0  0  0
 21  5  1  0  0  0  0
 22 21  2  0  0  0  0
 22  2  1  0  0  0  0
 26  8  1  0  0  0  0
 29 14  1  0  0  0  0
 30 17  1  0  0  0  0
 31 17  1  0  0  0  0
 32 18  1  0  0  0  0
 34 19  1  0  0  0  0
 35 19  1  0  0  0  0
 36 20  1  0  0  0  0
 37 20  1  0  0  0  0
 39 21  1  0  0  0  0
 40 22  1  0  0  0  0
M  END
$$$$
