rmsd175.gzmat
 OpenBabel08211713373D

 40 41  0  0  1  0  0  0  0  0999 V2000
    0.0000    0.0000    0.0000 Br  0  0  0  0  0  0  0  0  0  0  0  0
    1.9008    0.0000    0.0000 C   0  0  0  0  0  0  0  0  0  0  0  0
    2.5729    0.0000    1.2165 C   0  0  0  0  0  0  0  0  0  0  0  0
    3.9670   -0.0062    1.2089 C   0  0  0  0  0  0  0  0  0  0  0  0
    4.6568    0.0011   -0.0042 C   0  0  0  0  0  0  0  0  0  0  0  0
    6.1402   -0.0001    0.0225 C   0  0  0  0  0  0  0  0  0  0  0  0
    6.7637   -0.7863    0.6911 O   0  0  0  0  0  0  0  0  0  0  0  0
    6.8779    1.0339   -0.8095 C   0  0  0  0  0  0  0  0  0  0  0  0
    5.9656    1.8400   -1.5256 O   0  0  0  0  0  0  0  0  0  0  0  0
    5.4199    2.9076   -0.8488 C   0  0  0  0  0  0  0  0  0  0  0  0
    5.8445    3.2321    0.2309 O   0  0  0  0  0  0  0  0  0  0  0  0
    4.3328    3.4584   -1.6444 C   0  0  0  0  0  0  0  0  0  0  0  0
    3.2590    4.0623   -1.1075 C   0  0  0  0  0  0  0  0  0  0  0  0
    2.1325    4.5286   -1.9791 C   0  0  0  0  0  0  0  0  0  0  0  0
    0.8252    3.8347   -1.5380 C   0  0  1  0  0  0  0  0  0  0  0  0
    0.9428    2.7329   -1.6806 H   0  0  0  0  0  0  0  0  0  0  0  0
    0.5586    4.1198   -0.0503 C   0  0  0  0  0  0  0  0  0  0  0  0
    1.7384    3.6530    0.8083 C   0  0  0  0  0  0  0  0  0  0  0  0
    3.0501    4.3076    0.3509 C   0  0  0  0  0  0  0  0  0  0  0  0
   -0.3434    4.3265   -2.3946 C   0  0  0  0  0  0  0  0  0  0  0  0
    3.9638   -0.0054   -1.2154 C   0  0  0  0  0  0  0  0  0  0  0  0
    2.5695   -0.0051   -1.2179 C   0  0  0  0  0  0  0  0  0  0  0  0
    2.0363   -0.0049    2.1654 H   0  0  0  0  0  0  0  0  0  0  0  0
    4.5217   -0.0189    2.1504 H   0  0  0  0  0  0  0  0  0  0  0  0
    7.4811    0.5560   -1.6070 H   0  0  0  0  0  0  0  0  0  0  0  0
    7.5469    1.6465   -0.1690 H   0  0  0  0  0  0  0  0  0  0  0  0
    4.4257    3.3036   -2.7212 H   0  0  0  0  0  0  0  0  0  0  0  0
    2.3220    4.3268   -3.0508 H   0  0  0  0  0  0  0  0  0  0  0  0
    2.0243    5.6300   -1.8983 H   0  0  0  0  0  0  0  0  0  0  0  0
    0.3787    5.1991    0.1052 H   0  0  0  0  0  0  0  0  0  0  0  0
   -0.3679    3.6079    0.2702 H   0  0  0  0  0  0  0  0  0  0  0  0
    1.5541    3.8892    1.8730 H   0  0  0  0  0  0  0  0  0  0  0  0
    1.8359    2.5513    0.7569 H   0  0  0  0  0  0  0  0  0  0  0  0
    3.0224    5.4012    0.5440 H   0  0  0  0  0  0  0  0  0  0  0  0
    3.8925    3.9348    0.9735 H   0  0  0  0  0  0  0  0  0  0  0  0
   -0.5099    5.4026   -2.2754 H   0  0  0  0  0  0  0  0  0  0  0  0
   -1.2764    3.8191   -2.1212 H   0  0  0  0  0  0  0  0  0  0  0  0
   -0.1685    4.1361   -3.4589 H   0  0  0  0  0  0  0  0  0  0  0  0
    4.5083   -0.0018   -2.1622 H   0  0  0  0  0  0  0  0  0  0  0  0
    2.0309   -0.0071   -2.1649 H   0  0  0  0  0  0  0  0  0  0  0  0
  1  2  1  0  0  0  0
  2  3  2  0  0  0  0
  3 23  1  0  0  0  0
  4  3  1  0  0  0  0
  4 24  1  0  0  0  0
  5  6  1  0  0  0  0
  5  4  2  0  0  0  0
  6  7  2  0  0  0  0
  8 26  1  0  0  0  0
  8  6  1  0  0  0  0
  9 10  1  0  0  0  0
  9  8  1  0  0  0  0
 10 11  2  0  0  0  0
 12 13  2  0  0  0  0
 12 10  1  0  0  0  0
 13 19  1  0  0  0  0
 14 29  1  0  0  0  0
 14 15  1  0  0  0  0
 14 13  1  0  0  0  0
 15 16  1  6  0  0  0
 15 17  1  0  0  0  0
 17 30  1  0  0  0  0
 17 31  1  0  0  0  0
 17 18  1  0  0  0  0
 18 32  1  0  0  0  0
 19 34  1  0  0  0  0
 19 18  1  0  0  0  0
 19 35  1  0  0  0  0
 20 36  1  0  0  0  0
 20 37  1  0  0  0  0
 20 15  1  0  0  0  0
 21  5  1  0  0  0  0
 22 21  2  0  0  0  0
 22  2  1  0  0  0  0
 25  8  1  0  0  0  0
 27 12  1  0  0  0  0
 28 14  1  0  0  0  0
 33 18  1  0  0  0  0
 38 20  1  0  0  0  0
 39 21  1  0  0  0  0
 40 22  1  0  0  0  0
M  END
$$$$
