40
rmsd182.gzmat
Br         0.00000        0.00000        0.00000
C          1.90070        0.00000        0.00000
C          2.56920        0.00000        1.21800
C          3.96350       -0.00240        1.21530
C          4.65610       -0.00290        0.00440
C          6.13980       -0.00340       -0.02020
O          6.76620        0.80290       -0.66090
C          6.87200       -1.06750        0.77810
O          5.95600       -1.88670        1.47480
C          5.38990       -2.92110        0.76380
O          5.79570       -3.20390       -0.33490
C          4.31010       -3.49560        1.55210
C          3.23430       -4.08990        1.00800
C          2.11260       -4.57820        1.87420
C          0.81270       -3.84770        1.47190
H          0.95230       -2.75400        1.65080
C          0.52540       -4.07740       -0.02140
C          1.70480       -3.60660       -0.87870
C          3.01070       -4.29420       -0.45460
C         -0.35640       -4.34640        2.32350
C          3.96690        0.00860       -1.20890
C          2.57280        0.00320       -1.21650
H          2.03030        0.00060        2.16510
H          4.50870       -0.01180        2.16150
H          7.48330       -0.61900        1.58650
H          7.53230       -1.66740        0.11680
H          4.41010       -3.36810        2.63190
H          2.31460       -4.42150        2.95060
H          1.98740       -5.67340        1.75190
H          0.32110       -5.14670       -0.21000
H         -0.39380       -3.53700       -0.31460
H          1.50500       -3.80770       -1.94730
H          1.82210       -2.50890       -0.79720
H          2.96440       -5.38080       -0.67770
H          3.85260       -3.91580       -1.07450
H         -0.55130       -5.41190        2.16230
H         -1.27920       -3.80520        2.08380
H         -0.16470       -4.20350        3.39230
H          4.52110        0.02390       -2.15040
H          2.03610        0.00960       -2.16540
