40
rmsd175.gzmat
Br         0.00000        0.00000        0.00000
C          1.90080        0.00000        0.00000
C          2.57290        0.00000        1.21650
C          3.96700       -0.00620        1.20890
C          4.65680        0.00110       -0.00420
C          6.14020       -0.00010        0.02250
O          6.76370       -0.78630        0.69110
C          6.87790        1.03390       -0.80950
O          5.96560        1.84000       -1.52560
C          5.41990        2.90760       -0.84880
O          5.84450        3.23210        0.23090
C          4.33280        3.45840       -1.64440
C          3.25900        4.06230       -1.10750
C          2.13250        4.52860       -1.97910
C          0.82520        3.83470       -1.53800
H          0.94280        2.73290       -1.68060
C          0.55860        4.11980       -0.05030
C          1.73840        3.65300        0.80830
C          3.05010        4.30760        0.35090
C         -0.34340        4.32650       -2.39460
C          3.96380       -0.00540       -1.21540
C          2.56950       -0.00510       -1.21790
H          2.03630       -0.00490        2.16540
H          4.52170       -0.01890        2.15040
H          7.48110        0.55600       -1.60700
H          7.54690        1.64650       -0.16900
H          4.42570        3.30360       -2.72120
H          2.32200        4.32680       -3.05080
H          2.02430        5.63000       -1.89830
H          0.37870        5.19910        0.10520
H         -0.36790        3.60790        0.27020
H          1.55410        3.88920        1.87300
H          1.83590        2.55130        0.75690
H          3.02240        5.40120        0.54400
H          3.89250        3.93480        0.97350
H         -0.50990        5.40260       -2.27540
H         -1.27640        3.81910       -2.12120
H         -0.16850        4.13610       -3.45890
H          4.50830       -0.00180       -2.16220
H          2.03090       -0.00710       -2.16490
