rmsd106.gzmat
 OpenBabel08211713373D

 40 41  0  0  1  0  0  0  0  0999 V2000
    0.0000    0.0000    0.0000 Br  0  0  0  0  0  0  0  0  0  0  0  0
    1.9006    0.0000    0.0000 C   0  0  0  0  0  0  0  0  0  0  0  0
    2.5714    0.0000    1.2171 C   0  0  0  0  0  0  0  0  0  0  0  0
    3.9655   -0.0111    1.2110 C   0  0  0  0  0  0  0  0  0  0  0  0
    4.6566   -0.0103   -0.0014 C   0  0  0  0  0  0  0  0  0  0  0  0
    6.1403   -0.0232    0.0206 C   0  0  0  0  0  0  0  0  0  0  0  0
    6.7607   -0.8230    0.6751 O   0  0  0  0  0  0  0  0  0  0  0  0
    6.8804    1.0137   -0.8060 C   0  0  0  0  0  0  0  0  0  0  0  0
    5.9687    1.8367   -1.5035 O   0  0  0  0  0  0  0  0  0  0  0  0
    5.4352    2.8976   -0.8063 C   0  0  0  0  0  0  0  0  0  0  0  0
    5.8699    3.2035    0.2747 O   0  0  0  0  0  0  0  0  0  0  0  0
    4.3444    3.4663   -1.5839 C   0  0  0  0  0  0  0  0  0  0  0  0
    3.2767    4.0648   -1.0288 C   0  0  0  0  0  0  0  0  0  0  0  0
    2.1395    4.5383   -1.8829 C   0  0  0  0  0  0  0  0  0  0  0  0
    0.8482    3.8139   -1.4433 C   0  0  1  0  0  0  0  0  0  0  0  0
    0.9881    2.7166   -1.6007 H   0  0  0  0  0  0  0  0  0  0  0  0
    0.5861    4.0752    0.0494 C   0  0  0  0  0  0  0  0  0  0  0  0
    1.7781    3.6158    0.8953 C   0  0  0  0  0  0  0  0  0  0  0  0
    3.0800    4.2876    0.4348 C   0  0  0  0  0  0  0  0  0  0  0  0
   -0.3362    4.2899   -2.2864 C   0  0  0  0  0  0  0  0  0  0  0  0
    3.9647   -0.0125   -1.2130 C   0  0  0  0  0  0  0  0  0  0  0  0
    2.5704   -0.0064   -1.2173 C   0  0  0  0  0  0  0  0  0  0  0  0
    2.0334    0.0002    2.1653 H   0  0  0  0  0  0  0  0  0  0  0  0
    4.5181   -0.0249    2.1534 H   0  0  0  0  0  0  0  0  0  0  0  0
    7.4716    0.5394   -1.6149 H   0  0  0  0  0  0  0  0  0  0  0  0
    7.5616    1.6127   -0.1657 H   0  0  0  0  0  0  0  0  0  0  0  0
    4.4283    3.3288   -2.6635 H   0  0  0  0  0  0  0  0  0  0  0  0
    2.3226    4.3618   -2.9601 H   0  0  0  0  0  0  0  0  0  0  0  0
    2.0152    5.6359   -1.7794 H   0  0  0  0  0  0  0  0  0  0  0  0
    0.3899    5.1495    0.2198 H   0  0  0  0  0  0  0  0  0  0  0  0
   -0.3308    3.5451    0.3684 H   0  0  0  0  0  0  0  0  0  0  0  0
    1.5975    3.8405    1.9629 H   0  0  0  0  0  0  0  0  0  0  0  0
    1.8886    2.5157    0.8337 H   0  0  0  0  0  0  0  0  0  0  0  0
    3.0458    5.3778    0.6439 H   0  0  0  0  0  0  0  0  0  0  0  0
    3.9313    3.9111    1.0432 H   0  0  0  0  0  0  0  0  0  0  0  0
   -0.5430    5.3549   -2.1343 H   0  0  0  0  0  0  0  0  0  0  0  0
   -1.2494    3.7386   -2.0324 H   0  0  0  0  0  0  0  0  0  0  0  0
   -0.1537    4.1387   -3.3559 H   0  0  0  0  0  0  0  0  0  0  0  0
    4.5115   -0.0130   -2.1585 H   0  0  0  0  0  0  0  0  0  0  0  0
    2.0320   -0.0058   -2.1647 H   0  0  0  0  0  0  0  0  0  0  0  0
  1  2  1  0  0  0  0
  2  3  2  0  0  0  0
  3 23  1  0  0  0  0
  4  3  1  0  0  0  0
  4 24  1  0  0  0  0
  5  6  1  0  0  0  0
  5  4  2  0  0  0  0
  6  7  2  0  0  0  0
  8 26  1  0  0  0  0
  8  6  1  0  0  0  0
  9 10  1  0  0  0  0
  9  8  1  0  0  0  0
 10 11  2  0  0  0  0
 12 13  2  0  0  0  0
 12 10  1  0  0  0  0
 13 19  1  0  0  0  0
 14 29  1  0  0  0  0
 14 15  1  0  0  0  0
 14 13  1  0  0  0  0
 15 16  1  6  0  0  0
 15 17  1  0  0  0  0
 17 30  1  0  0  0  0
 17 31  1  0  0  0  0
 17 18  1  0  0  0  0
 18 32  1  0  0  0  0
 19 34  1  0  0  0  0
 19 18  1  0  0  0  0
 19 35  1  0  0  0  0
 20 36  1  0  0  0  0
 20 37  1  0  0  0  0
 20 15  1  0  0  0  0
 21  5  1  0  0  0  0
 22 21  2  0  0  0  0
 22  2  1  0  0  0  0
 25  8  1  0  0  0  0
 27 12  1  0  0  0  0
 28 14  1  0  0  0  0
 33 18  1  0  0  0  0
 38 20  1  0  0  0  0
 39 21  1  0  0  0  0
 40 22  1  0  0  0  0
M  END
$$$$
