40
rmsd20.gzmat
Br         0.00000        0.00000        0.00000
C          1.90090        0.00000        0.00000
C          2.56830        0.00000        1.21860
C          3.96240       -0.00640        1.21590
C          4.65540       -0.01140        0.00490
C          6.13930       -0.03250       -0.01070
O          6.78730        0.79270       -0.60350
C          6.83710       -1.15170        0.74240
O          5.89300       -1.97610        1.39510
C          5.28320       -2.94250        0.62640
O          5.66910       -3.16690       -0.49320
C          4.19460       -3.53470        1.38840
C          3.12410       -4.12100        0.82410
C          2.01850       -4.66230        1.68010
C          0.67770       -4.01410        1.27360
H          0.74430       -2.91540        1.46390
C          0.41590       -4.24700       -0.22330
C          1.56530       -3.67750       -1.06030
C          2.90990       -4.29120       -0.64420
C         -0.46190       -4.59700        2.11200
C          3.96780        0.00320       -1.20870
C          2.57330        0.00300       -1.21600
H          2.02920        0.00240        2.16530
H          4.50950       -0.01730        2.16090
H          7.45370       -0.75820        1.57510
H          7.48510       -1.73920        0.05860
H          4.28620       -3.43520        2.47270
H          2.20370       -4.49090        2.75810
H          1.96060       -5.76400        1.55980
H          0.29370       -5.32650       -0.42710
H         -0.53910       -3.77300       -0.51840
H          1.38390       -3.86570       -2.13520
H          1.60950       -2.57680       -0.95030
H          2.93350       -5.37280       -0.89800
H          3.72750       -3.84280       -1.25060
H         -0.57110       -5.67530        1.95490
H         -1.42050       -4.13040        1.85550
H         -0.29690       -4.43360        3.18260
H          4.52140        0.01270       -2.15050
H          2.03690        0.01240       -2.16470
