rmsd152.gzmat
 OpenBabel08211713413D

 46 48  0  0  0  0  0  0  0  0999 V2000
    0.0000    0.0000    0.0000 C   0  0  0  0  0  0  0  0  0  0  0  0
    1.3851    0.0000    0.0000 C   0  0  0  0  0  0  0  0  0  0  0  0
    2.0609    0.0000    1.2339 C   0  0  0  0  0  0  0  0  0  0  0  0
    1.3742    0.0130    2.4487 C   0  0  0  0  0  0  0  0  0  0  0  0
   -0.0190    0.0249    2.4253 C   0  0  0  0  0  0  0  0  0  0  0  0
   -0.7015    0.0005    1.2114 C   0  0  0  0  0  0  0  0  0  0  0  0
   -2.1823    0.0246    1.2154 C   0  0  0  0  0  0  0  0  0  0  0  0
   -2.7952    0.8974    1.8001 O   0  0  0  0  0  0  0  0  0  0  0  0
   -2.8876   -1.0279    0.5119 C   0  0  0  0  0  0  0  0  0  0  0  0
   -4.2126   -0.9996    0.1740 C   0  0  0  0  0  0  0  0  0  0  0  0
   -4.5275   -2.3056   -0.5239 C   0  0  0  0  0  0  0  0  0  0  0  0
   -5.5748   -2.7424   -0.9097 O   0  0  0  0  0  0  0  0  0  0  0  0
   -3.3760   -3.0355   -0.6059 O   0  0  0  0  0  0  0  0  0  0  0  0
   -2.2897   -2.3136    0.0343 C   0  0  0  0  0  0  0  0  0  0  0  0
   -5.1540   -0.0751    0.5084 N   0  0  0  0  0  0  0  0  0  0  0  0
   -6.2757    0.0815   -0.3477 C   0  0  0  0  0  0  0  0  0  0  0  0
   -6.2059    1.1342   -1.3354 C   0  0  0  0  0  0  0  0  0  0  0  0
   -5.3010    1.9240   -1.4774 O   0  0  0  0  0  0  0  0  0  0  0  0
   -7.3213    1.2190   -2.2153 N   0  0  0  0  0  0  0  0  0  0  0  0
   -8.4198    0.3752   -2.1716 C   0  0  0  0  0  0  0  0  0  0  0  0
   -9.3569    0.4474   -2.9376 O   0  0  0  0  0  0  0  0  0  0  0  0
   -8.4253   -0.6234   -1.1531 N   0  0  0  0  0  0  0  0  0  0  0  0
   -7.3888   -0.7542   -0.2430 C   0  0  0  0  0  0  0  0  0  0  0  0
   -7.5316   -1.6572    0.7926 N   0  0  0  0  0  0  0  0  0  0  0  0
   -9.5814   -1.5279   -1.1147 C   0  0  0  0  0  0  0  0  0  0  0  0
   -7.3013    2.2666   -3.2485 C   0  0  0  0  0  0  0  0  0  0  0  0
    3.4097   -0.0153    1.0903 O   0  0  0  0  0  0  0  0  0  0  0  0
    4.1966    0.0389    2.2728 C   0  0  0  0  0  0  0  0  0  0  0  0
   -0.5466    0.0183   -0.9458 H   0  0  0  0  0  0  0  0  0  0  0  0
    1.9559    0.0098   -0.9255 H   0  0  0  0  0  0  0  0  0  0  0  0
    1.8995    0.0233    3.3965 H   0  0  0  0  0  0  0  0  0  0  0  0
   -0.5791    0.0573    3.3623 H   0  0  0  0  0  0  0  0  0  0  0  0
   -1.5150   -2.1944   -0.7436 H   0  0  0  0  0  0  0  0  0  0  0  0
   -1.9302   -2.9771    0.8396 H   0  0  0  0  0  0  0  0  0  0  0  0
   -4.8001    0.7930    0.9459 H   0  0  0  0  0  0  0  0  0  0  0  0
   -6.7305   -1.7601    1.4002 H   0  0  0  0  0  0  0  0  0  0  0  0
   -8.0574   -2.5005    0.6530 H   0  0  0  0  0  0  0  0  0  0  0  0
  -10.3302   -1.2383   -1.8844 H   0  0  0  0  0  0  0  0  0  0  0  0
   -9.2761   -2.5660   -1.3379 H   0  0  0  0  0  0  0  0  0  0  0  0
  -10.0876   -1.4777   -0.1345 H   0  0  0  0  0  0  0  0  0  0  0  0
   -8.0342    2.0562   -4.0481 H   0  0  0  0  0  0  0  0  0  0  0  0
   -6.2916    2.3280   -3.6998 H   0  0  0  0  0  0  0  0  0  0  0  0
   -7.5364    3.2483   -2.7993 H   0  0  0  0  0  0  0  0  0  0  0  0
    4.0104    0.9658    2.8247 H   0  0  0  0  0  0  0  0  0  0  0  0
    5.2193    0.0305    1.8699 H   0  0  0  0  0  0  0  0  0  0  0  0
    4.0246   -0.8431    2.8972 H   0  0  0  0  0  0  0  0  0  0  0  0
  1  2  2  0  0  0  0
  1  6  1  0  0  0  0
  2  3  1  0  0  0  0
  3  4  2  0  0  0  0
  4 31  1  0  0  0  0
  5  4  1  0  0  0  0
  5 32  1  0  0  0  0
  6  7  1  0  0  0  0
  6  5  2  0  0  0  0
  7  8  2  0  0  0  0
  9  7  1  0  0  0  0
 10 15  1  0  0  0  0
 10  9  2  0  0  0  0
 11 10  1  0  0  0  0
 12 11  2  0  0  0  0
 13 11  1  0  0  0  0
 13 14  1  0  0  0  0
 14  9  1  0  0  0  0
 14 34  1  0  0  0  0
 15 35  1  0  0  0  0
 16 23  2  0  0  0  0
 16 15  1  0  0  0  0
 17 16  1  0  0  0  0
 18 17  2  0  0  0  0
 19 20  1  0  0  0  0
 19 17  1  0  0  0  0
 20 22  1  0  0  0  0
 21 20  2  0  0  0  0
 22 25  1  0  0  0  0
 22 23  1  0  0  0  0
 23 24  1  0  0  0  0
 24 36  1  0  0  0  0
 25 40  1  0  0  0  0
 26 43  1  0  0  0  0
 26 19  1  0  0  0  0
 27  3  1  0  0  0  0
 27 28  1  0  0  0  0
 28 44  1  0  0  0  0
 28 46  1  0  0  0  0
 29  1  1  0  0  0  0
 30  2  1  0  0  0  0
 33 14  1  0  0  0  0
 37 24  1  0  0  0  0
 38 25  1  0  0  0  0
 39 25  1  0  0  0  0
 41 26  1  0  0  0  0
 42 26  1  0  0  0  0
 45 28  1  0  0  0  0
M  END
$$$$
