rmsd120.gzmat
 OpenBabel08211713413D

 46 48  0  0  0  0  0  0  0  0999 V2000
    0.0000    0.0000    0.0000 C   0  0  0  0  0  0  0  0  0  0  0  0
    1.3847    0.0000    0.0000 C   0  0  0  0  0  0  0  0  0  0  0  0
    2.0586    0.0000    1.2345 C   0  0  0  0  0  0  0  0  0  0  0  0
    1.3696   -0.0280    2.4482 C   0  0  0  0  0  0  0  0  0  0  0  0
   -0.0237   -0.0567    2.4249 C   0  0  0  0  0  0  0  0  0  0  0  0
   -0.7020   -0.0400    1.2097 C   0  0  0  0  0  0  0  0  0  0  0  0
   -2.1860   -0.0070    1.1607 C   0  0  0  0  0  0  0  0  0  0  0  0
   -2.7391    0.9329    0.6186 O   0  0  0  0  0  0  0  0  0  0  0  0
   -2.9031   -1.1454    1.6817 C   0  0  0  0  0  0  0  0  0  0  0  0
   -4.2175   -1.2981    2.0219 C   0  0  0  0  0  0  0  0  0  0  0  0
   -4.4392   -2.7828    2.3060 C   0  0  0  0  0  0  0  0  0  0  0  0
   -5.4549   -3.3480    2.5816 O   0  0  0  0  0  0  0  0  0  0  0  0
   -3.2447   -3.4289    2.1850 O   0  0  0  0  0  0  0  0  0  0  0  0
   -2.2141   -2.4761    1.8311 C   0  0  0  0  0  0  0  0  0  0  0  0
   -5.2984   -0.4801    2.0676 N   0  0  0  0  0  0  0  0  0  0  0  0
   -5.1253    0.9056    2.3169 C   0  0  0  0  0  0  0  0  0  0  0  0
   -5.1490    1.3187    3.7001 C   0  0  0  0  0  0  0  0  0  0  0  0
   -5.3293    0.5953    4.6549 O   0  0  0  0  0  0  0  0  0  0  0  0
   -4.9554    2.7081    3.9232 N   0  0  0  0  0  0  0  0  0  0  0  0
   -4.7065    3.6327    2.9183 C   0  0  0  0  0  0  0  0  0  0  0  0
   -4.5035    4.8090    3.1334 O   0  0  0  0  0  0  0  0  0  0  0  0
   -4.7120    3.1507    1.5784 N   0  0  0  0  0  0  0  0  0  0  0  0
   -4.9495    1.8195    1.2745 C   0  0  0  0  0  0  0  0  0  0  0  0
   -5.1406    1.4697   -0.0512 N   0  0  0  0  0  0  0  0  0  0  0  0
   -4.3624    4.1158    0.5279 C   0  0  0  0  0  0  0  0  0  0  0  0
   -5.0527    3.2339    5.2938 C   0  0  0  0  0  0  0  0  0  0  0  0
    3.4070    0.0286    1.0896 O   0  0  0  0  0  0  0  0  0  0  0  0
    4.1916    0.0942    2.2729 C   0  0  0  0  0  0  0  0  0  0  0  0
   -0.5493    0.0387   -0.9425 H   0  0  0  0  0  0  0  0  0  0  0  0
    1.9547    0.0139   -0.9250 H   0  0  0  0  0  0  0  0  0  0  0  0
    1.8956   -0.0286    3.3967 H   0  0  0  0  0  0  0  0  0  0  0  0
   -0.5813   -0.0837    3.3641 H   0  0  0  0  0  0  0  0  0  0  0  0
   -1.7656   -2.8595    0.8998 H   0  0  0  0  0  0  0  0  0  0  0  0
   -1.4839   -2.5055    2.6593 H   0  0  0  0  0  0  0  0  0  0  0  0
   -6.1655   -0.8701    2.4563 H   0  0  0  0  0  0  0  0  0  0  0  0
   -5.1733    0.4714   -0.2259 H   0  0  0  0  0  0  0  0  0  0  0  0
   -4.6173    1.9646   -0.7548 H   0  0  0  0  0  0  0  0  0  0  0  0
   -4.2329    5.1320    0.9606 H   0  0  0  0  0  0  0  0  0  0  0  0
   -3.4040    3.8428    0.0479 H   0  0  0  0  0  0  0  0  0  0  0  0
   -5.1655    4.1857   -0.2261 H   0  0  0  0  0  0  0  0  0  0  0  0
   -4.2941    4.0192    5.4660 H   0  0  0  0  0  0  0  0  0  0  0  0
   -4.8936    2.4200    6.0276 H   0  0  0  0  0  0  0  0  0  0  0  0
   -6.0544    3.6666    5.4682 H   0  0  0  0  0  0  0  0  0  0  0  0
    3.9559    0.9919    2.8522 H   0  0  0  0  0  0  0  0  0  0  0  0
    5.2125    0.1590    1.8713 H   0  0  0  0  0  0  0  0  0  0  0  0
    4.0705   -0.8153    2.8687 H   0  0  0  0  0  0  0  0  0  0  0  0
  1  2  2  0  0  0  0
  1  6  1  0  0  0  0
  2  3  1  0  0  0  0
  3  4  2  0  0  0  0
  4 31  1  0  0  0  0
  5  4  1  0  0  0  0
  5 32  1  0  0  0  0
  6  5  2  0  0  0  0
  7  6  1  0  0  0  0
  7  9  1  0  0  0  0
  8  7  2  0  0  0  0
  9 14  1  0  0  0  0
  9 10  2  0  0  0  0
 10 15  1  0  0  0  0
 10 11  1  0  0  0  0
 11 12  2  0  0  0  0
 13 11  1  0  0  0  0
 14 13  1  0  0  0  0
 14 34  1  0  0  0  0
 15 16  1  0  0  0  0
 15 35  1  0  0  0  0
 16 17  1  0  0  0  0
 17 19  1  0  0  0  0
 17 18  2  0  0  0  0
 19 26  1  0  0  0  0
 20 21  2  0  0  0  0
 20 19  1  0  0  0  0
 22 20  1  0  0  0  0
 23 22  1  0  0  0  0
 23 16  2  0  0  0  0
 24 23  1  0  0  0  0
 25 38  1  0  0  0  0
 25 22  1  0  0  0  0
 26 41  1  0  0  0  0
 26 43  1  0  0  0  0
 26 42  1  0  0  0  0
 27  3  1  0  0  0  0
 27 28  1  0  0  0  0
 28 44  1  0  0  0  0
 28 46  1  0  0  0  0
 29  1  1  0  0  0  0
 30  2  1  0  0  0  0
 33 14  1  0  0  0  0
 36 24  1  0  0  0  0
 37 24  1  0  0  0  0
 39 25  1  0  0  0  0
 40 25  1  0  0  0  0
 45 28  1  0  0  0  0
M  END
$$$$
