rmsd181.gzmat
 OpenBabel08211713413D

 46 48  0  0  0  0  0  0  0  0999 V2000
    0.0000    0.0000    0.0000 C   0  0  0  0  0  0  0  0  0  0  0  0
    1.3933    0.0000    0.0000 C   0  0  0  0  0  0  0  0  0  0  0  0
    2.0615    0.0000    1.2255 C   0  0  0  0  0  0  0  0  0  0  0  0
    1.3664    0.0111    2.4481 C   0  0  0  0  0  0  0  0  0  0  0  0
   -0.0185   -0.0047    2.4256 C   0  0  0  0  0  0  0  0  0  0  0  0
   -0.6997   -0.0050    1.2037 C   0  0  0  0  0  0  0  0  0  0  0  0
   -2.1831   -0.0674    1.2122 C   0  0  0  0  0  0  0  0  0  0  0  0
   -2.7367   -0.9924    1.7778 O   0  0  0  0  0  0  0  0  0  0  0  0
   -2.9074    1.0239    0.6066 C   0  0  0  0  0  0  0  0  0  0  0  0
   -4.2068    1.1166    0.1935 C   0  0  0  0  0  0  0  0  0  0  0  0
   -4.4617    2.5814   -0.1586 C   0  0  0  0  0  0  0  0  0  0  0  0
   -5.4832    3.1035   -0.4929 O   0  0  0  0  0  0  0  0  0  0  0  0
   -3.2942    3.2701   -0.0133 O   0  0  0  0  0  0  0  0  0  0  0  0
   -2.2530    2.3691    0.4332 C   0  0  0  0  0  0  0  0  0  0  0  0
   -5.2586    0.2642    0.1235 N   0  0  0  0  0  0  0  0  0  0  0  0
   -5.0403   -1.1285   -0.0322 C   0  0  0  0  0  0  0  0  0  0  0  0
   -4.9799   -1.6264   -1.3860 C   0  0  0  0  0  0  0  0  0  0  0  0
   -5.1252   -0.9681   -2.3924 O   0  0  0  0  0  0  0  0  0  0  0  0
   -4.7408   -3.0213   -1.5112 N   0  0  0  0  0  0  0  0  0  0  0  0
   -4.5327   -3.8777   -0.4387 C   0  0  0  0  0  0  0  0  0  0  0  0
   -4.2956   -5.0597   -0.5685 O   0  0  0  0  0  0  0  0  0  0  0  0
   -4.6245   -3.3144    0.8658 N   0  0  0  0  0  0  0  0  0  0  0  0
   -4.8983   -1.9715    1.0732 C   0  0  0  0  0  0  0  0  0  0  0  0
   -5.1565   -1.5420    2.3638 N   0  0  0  0  0  0  0  0  0  0  0  0
   -4.2877   -4.1948    1.9923 C   0  0  0  0  0  0  0  0  0  0  0  0
   -4.7084   -3.6246   -2.8522 C   0  0  0  0  0  0  0  0  0  0  0  0
    3.4077    0.0025    1.3918 O   0  0  0  0  0  0  0  0  0  0  0  0
    4.2115   -0.1706    0.2323 C   0  0  0  0  0  0  0  0  0  0  0  0
   -0.5429   -0.0069   -0.9480 H   0  0  0  0  0  0  0  0  0  0  0  0
    1.9356   -0.0015   -0.9389 H   0  0  0  0  0  0  0  0  0  0  0  0
    1.9209    0.0183    3.3826 H   0  0  0  0  0  0  0  0  0  0  0  0
   -0.5812   -0.0218    3.3604 H   0  0  0  0  0  0  0  0  0  0  0  0
   -1.8636    2.8077    1.3672 H   0  0  0  0  0  0  0  0  0  0  0  0
   -1.4818    2.3888   -0.3573 H   0  0  0  0  0  0  0  0  0  0  0  0
   -6.1134    0.6076   -0.3308 H   0  0  0  0  0  0  0  0  0  0  0  0
   -5.2111   -0.5351    2.4733 H   0  0  0  0  0  0  0  0  0  0  0  0
   -4.6606   -1.9824    3.1220 H   0  0  0  0  0  0  0  0  0  0  0  0
   -4.0659   -5.2230    1.6324 H   0  0  0  0  0  0  0  0  0  0  0  0
   -3.3833   -3.8308    2.5152 H   0  0  0  0  0  0  0  0  0  0  0  0
   -5.1352   -4.2709    2.6959 H   0  0  0  0  0  0  0  0  0  0  0  0
   -3.8807   -4.3526   -2.9333 H   0  0  0  0  0  0  0  0  0  0  0  0
   -4.5666   -2.8393   -3.6206 H   0  0  0  0  0  0  0  0  0  0  0  0
   -5.6585   -4.1477   -3.0596 H   0  0  0  0  0  0  0  0  0  0  0  0
    4.0172   -1.1430   -0.2323 H   0  0  0  0  0  0  0  0  0  0  0  0
    5.2278   -0.1393    0.6509 H   0  0  0  0  0  0  0  0  0  0  0  0
    4.0651    0.6497   -0.4764 H   0  0  0  0  0  0  0  0  0  0  0  0
  1  2  2  0  0  0  0
  1  6  1  0  0  0  0
  2  3  1  0  0  0  0
  3 27  1  0  0  0  0
  3  4  2  0  0  0  0
  4 31  1  0  0  0  0
  5  4  1  0  0  0  0
  5 32  1  0  0  0  0
  6  7  1  0  0  0  0
  6  5  2  0  0  0  0
  7  8  2  0  0  0  0
  9  7  1  0  0  0  0
 10  9  2  0  0  0  0
 11 13  1  0  0  0  0
 11 10  1  0  0  0  0
 12 11  2  0  0  0  0
 13 14  1  0  0  0  0
 14  9  1  0  0  0  0
 14 33  1  0  0  0  0
 15 10  1  0  0  0  0
 16 15  1  0  0  0  0
 16 23  2  0  0  0  0
 17 16  1  0  0  0  0
 18 17  2  0  0  0  0
 19 17  1  0  0  0  0
 19 20  1  0  0  0  0
 20 22  1  0  0  0  0
 21 20  2  0  0  0  0
 22 23  1  0  0  0  0
 22 25  1  0  0  0  0
 23 24  1  0  0  0  0
 24 36  1  0  0  0  0
 24 37  1  0  0  0  0
 25 39  1  0  0  0  0
 25 40  1  0  0  0  0
 26 19  1  0  0  0  0
 28 45  1  0  0  0  0
 28 27  1  0  0  0  0
 29  1  1  0  0  0  0
 30  2  1  0  0  0  0
 34 14  1  0  0  0  0
 35 15  1  0  0  0  0
 38 25  1  0  0  0  0
 41 26  1  0  0  0  0
 42 26  1  0  0  0  0
 43 26  1  0  0  0  0
 44 28  1  0  0  0  0
 46 28  1  0  0  0  0
M  END
$$$$
