46
rmsd88.gzmat
C          0.00000        0.00000        0.00000
C          1.38530        0.00000        0.00000
C          2.06190        0.00000        1.23330
C          1.37550        0.01320        2.44810
C         -0.01750        0.02480        2.42450
C         -0.70060       -0.00210        1.21060
C         -2.18160        0.01270        1.22630
O         -2.79060        0.87760        1.82850
C         -2.89230       -1.04190        0.53570
C         -4.24250       -1.05950        0.30720
C         -4.56140       -2.35840       -0.40310
O         -5.61910       -2.82880       -0.71330
O         -3.39270       -3.03570       -0.60170
C         -2.28600       -2.28620       -0.03130
N         -5.18160       -0.18450        0.75030
C         -6.41620       -0.09500        0.05730
C         -6.54810        0.97040       -0.91130
O         -5.71980        1.81700       -1.15600
N         -7.77700        0.99110       -1.62780
C         -8.79890        0.06960       -1.45720
O         -9.82870        0.08590       -2.09630
N         -8.60530       -0.93420       -0.46300
C         -7.44850       -1.00390        0.29560
N         -7.39040       -1.92300        1.32530
C         -9.68700       -1.91040       -0.28260
C         -7.99830        2.04630       -2.62880
O          3.41100       -0.00900        1.08960
C          4.19630        0.00520        2.27430
H         -0.54600        0.01950       -0.94580
H          1.95530        0.00760       -0.92540
H          1.90040        0.02500        3.39610
H         -0.57800        0.05900        3.36140
H         -1.58620       -2.11280       -0.86760
H         -1.83380       -2.95650        0.71950
H         -4.82860        0.69580        1.16440
H         -6.51350       -1.97210        1.82490
H         -7.87590       -2.79710        1.24610
H        -10.55040       -1.66150       -0.93800
H         -9.35240       -2.92530       -0.56340
H        -10.05700       -1.90040        0.75800
H         -8.51320        1.64140       -3.51910
H         -7.02830        2.47700       -2.94740
H         -8.61700        2.85570       -2.20270
H          4.00210        0.90650        2.86450
H          5.21950        0.02300        1.87290
H          4.03090       -0.90400        2.86090
