rmsd133.gzmat
 OpenBabel08211713413D

 46 48  0  0  0  0  0  0  0  0999 V2000
    0.0000    0.0000    0.0000 C   0  0  0  0  0  0  0  0  0  0  0  0
    1.3853    0.0000    0.0000 C   0  0  0  0  0  0  0  0  0  0  0  0
    2.0608    0.0000    1.2339 C   0  0  0  0  0  0  0  0  0  0  0  0
    1.3741    0.0317    2.4490 C   0  0  0  0  0  0  0  0  0  0  0  0
   -0.0189    0.0328    2.4263 C   0  0  0  0  0  0  0  0  0  0  0  0
   -0.6990   -0.0079    1.2113 C   0  0  0  0  0  0  0  0  0  0  0  0
   -2.1819   -0.0768    1.1806 C   0  0  0  0  0  0  0  0  0  0  0  0
   -2.8260    0.7780    0.6035 O   0  0  0  0  0  0  0  0  0  0  0  0
   -2.7800   -1.2437    1.7877 C   0  0  0  0  0  0  0  0  0  0  0  0
   -4.0348   -1.4672    2.2776 C   0  0  0  0  0  0  0  0  0  0  0  0
   -4.1057   -2.9407    2.6762 C   0  0  0  0  0  0  0  0  0  0  0  0
   -5.0326   -3.5538    3.1151 O   0  0  0  0  0  0  0  0  0  0  0  0
   -2.8908   -3.5119    2.4394 O   0  0  0  0  0  0  0  0  0  0  0  0
   -1.9894   -2.5223    1.8907 C   0  0  0  0  0  0  0  0  0  0  0  0
   -5.1718   -0.7399    2.3838 N   0  0  0  0  0  0  0  0  0  0  0  0
   -5.1297    0.6767    2.4090 C   0  0  0  0  0  0  0  0  0  0  0  0
   -5.1054    1.2975    3.7115 C   0  0  0  0  0  0  0  0  0  0  0  0
   -5.1307    0.7174    4.7748 O   0  0  0  0  0  0  0  0  0  0  0  0
   -5.0654    2.7173    3.7081 N   0  0  0  0  0  0  0  0  0  0  0  0
   -5.0252    3.4954    2.5595 C   0  0  0  0  0  0  0  0  0  0  0  0
   -4.9769    4.7068    2.5800 O   0  0  0  0  0  0  0  0  0  0  0  0
   -5.0660    2.8104    1.3112 N   0  0  0  0  0  0  0  0  0  0  0  0
   -5.1329    1.4282    1.2304 C   0  0  0  0  0  0  0  0  0  0  0  0
   -5.3399    0.8458   -0.0079 N   0  0  0  0  0  0  0  0  0  0  0  0
   -4.9009    3.6317    0.1042 C   0  0  0  0  0  0  0  0  0  0  0  0
   -5.1013    3.4354    4.9911 C   0  0  0  0  0  0  0  0  0  0  0  0
    3.4084   -0.0411    1.0866 O   0  0  0  0  0  0  0  0  0  0  0  0
    4.1984   -0.1310    2.2649 C   0  0  0  0  0  0  0  0  0  0  0  0
   -0.5486   -0.0067   -0.9434 H   0  0  0  0  0  0  0  0  0  0  0  0
    1.9546   -0.0052   -0.9257 H   0  0  0  0  0  0  0  0  0  0  0  0
    1.9018    0.0539    3.3961 H   0  0  0  0  0  0  0  0  0  0  0  0
   -0.5770    0.0631    3.3654 H   0  0  0  0  0  0  0  0  0  0  0  0
   -1.6658   -2.9234    0.9153 H   0  0  0  0  0  0  0  0  0  0  0  0
   -1.1381   -2.4743    2.5924 H   0  0  0  0  0  0  0  0  0  0  0  0
   -5.9471   -1.1472    2.9195 H   0  0  0  0  0  0  0  0  0  0  0  0
   -5.2116   -0.1593   -0.0354 H   0  0  0  0  0  0  0  0  0  0  0  0
   -4.9702    1.3040   -0.8231 H   0  0  0  0  0  0  0  0  0  0  0  0
   -4.9152    4.7130    0.3635 H   0  0  0  0  0  0  0  0  0  0  0  0
   -3.9277    3.4240   -0.3787 H   0  0  0  0  0  0  0  0  0  0  0  0
   -5.7275    3.4603   -0.6063 H   0  0  0  0  0  0  0  0  0  0  0  0
   -4.3748    4.2680    4.9944 H   0  0  0  0  0  0  0  0  0  0  0  0
   -4.8520    2.7437    5.8200 H   0  0  0  0  0  0  0  0  0  0  0  0
   -6.1098    3.8482    5.1708 H   0  0  0  0  0  0  0  0  0  0  0  0
    4.1495    0.8052    2.8297 H   0  0  0  0  0  0  0  0  0  0  0  0
    5.2070   -0.2831    1.8538 H   0  0  0  0  0  0  0  0  0  0  0  0
    3.9064   -0.9882    2.8799 H   0  0  0  0  0  0  0  0  0  0  0  0
  1  2  2  0  0  0  0
  1  6  1  0  0  0  0
  2  3  1  0  0  0  0
  3  4  2  0  0  0  0
  4 31  1  0  0  0  0
  5  4  1  0  0  0  0
  5 32  1  0  0  0  0
  6  5  2  0  0  0  0
  7  6  1  0  0  0  0
  7  9  1  0  0  0  0
  8  7  2  0  0  0  0
  9 14  1  0  0  0  0
  9 10  2  0  0  0  0
 10 15  1  0  0  0  0
 10 11  1  0  0  0  0
 11 12  2  0  0  0  0
 13 11  1  0  0  0  0
 14 13  1  0  0  0  0
 14 34  1  0  0  0  0
 15 16  1  0  0  0  0
 15 35  1  0  0  0  0
 16 17  1  0  0  0  0
 17 18  2  0  0  0  0
 19 17  1  0  0  0  0
 19 26  1  0  0  0  0
 20 21  2  0  0  0  0
 20 19  1  0  0  0  0
 22 20  1  0  0  0  0
 23 22  1  0  0  0  0
 23 16  2  0  0  0  0
 24 23  1  0  0  0  0
 25 38  1  0  0  0  0
 25 22  1  0  0  0  0
 26 41  1  0  0  0  0
 26 43  1  0  0  0  0
 26 42  1  0  0  0  0
 27  3  1  0  0  0  0
 27 28  1  0  0  0  0
 28 44  1  0  0  0  0
 28 46  1  0  0  0  0
 29  1  1  0  0  0  0
 30  2  1  0  0  0  0
 33 14  1  0  0  0  0
 36 24  1  0  0  0  0
 37 24  1  0  0  0  0
 39 25  1  0  0  0  0
 40 25  1  0  0  0  0
 45 28  1  0  0  0  0
M  END
$$$$
