46
rmsd120.gzmat
C          0.00000        0.00000        0.00000
C          1.38470        0.00000        0.00000
C          2.05860        0.00000        1.23450
C          1.36960       -0.02800        2.44820
C         -0.02370       -0.05670        2.42490
C         -0.70200       -0.04000        1.20970
C         -2.18600       -0.00700        1.16070
O         -2.73910        0.93290        0.61860
C         -2.90310       -1.14540        1.68170
C         -4.21750       -1.29810        2.02190
C         -4.43920       -2.78280        2.30600
O         -5.45490       -3.34800        2.58160
O         -3.24470       -3.42890        2.18500
C         -2.21410       -2.47610        1.83110
N         -5.29840       -0.48010        2.06760
C         -5.12530        0.90560        2.31690
C         -5.14900        1.31870        3.70010
O         -5.32930        0.59530        4.65490
N         -4.95540        2.70810        3.92320
C         -4.70650        3.63270        2.91830
O         -4.50350        4.80900        3.13340
N         -4.71200        3.15070        1.57840
C         -4.94950        1.81950        1.27450
N         -5.14060        1.46970       -0.05120
C         -4.36240        4.11580        0.52790
C         -5.05270        3.23390        5.29380
O          3.40700        0.02860        1.08960
C          4.19160        0.09420        2.27290
H         -0.54930        0.03870       -0.94250
H          1.95470        0.01390       -0.92500
H          1.89560       -0.02860        3.39670
H         -0.58130       -0.08370        3.36410
H         -1.76560       -2.85950        0.89980
H         -1.48390       -2.50550        2.65930
H         -6.16550       -0.87010        2.45630
H         -5.17330        0.47140       -0.22590
H         -4.61730        1.96460       -0.75480
H         -4.23290        5.13200        0.96060
H         -3.40400        3.84280        0.04790
H         -5.16550        4.18570       -0.22610
H         -4.29410        4.01920        5.46600
H         -4.89360        2.42000        6.02760
H         -6.05440        3.66660        5.46820
H          3.95590        0.99190        2.85220
H          5.21250        0.15900        1.87130
H          4.07050       -0.81530        2.86870
