
     RDKit          3D

 46 48  0  0  0  0  0  0  0  0999 V2000
    0.2945   -0.4651    0.1168 C   0  0  0  0  0  0  0  0  0  0  0  0
    1.6528   -0.2748    0.3809 C   0  0  0  0  0  0  0  0  0  0  0  0
    2.0610    0.1608    1.6506 C   0  0  0  0  0  0  0  0  0  0  0  0
    1.0894    0.4140    2.6387 C   0  0  0  0  0  0  0  0  0  0  0  0
   -0.2529    0.2311    2.3575 C   0  0  0  0  0  0  0  0  0  0  0  0
   -0.6831   -0.2234    1.0920 C   0  0  0  0  0  0  0  0  0  0  0  0
   -2.1528   -0.3838    0.8907 C   0  0  0  0  0  0  0  0  0  0  0  0
   -2.9263    0.1101    1.7267 O   0  0  0  0  0  0  0  0  0  0  0  0
   -2.7173   -1.1364   -0.2277 C   0  0  0  0  0  0  0  0  0  0  0  0
   -4.0734   -1.2537   -0.4065 C   0  0  0  0  0  0  0  0  0  0  0  0
   -4.3300   -2.1775   -1.5594 C   0  0  0  0  0  0  0  0  0  0  0  0
   -5.3729   -2.5989   -1.9772 O   0  0  0  0  0  0  0  0  0  0  0  0
   -3.1239   -2.5351   -2.0608 O   0  0  0  0  0  0  0  0  0  0  0  0
   -2.0565   -1.9187   -1.3362 C   0  0  0  0  0  0  0  0  0  0  0  0
   -5.0688   -0.7372    0.3501 N   0  0  0  0  0  0  0  0  0  0  0  0
   -6.3703   -0.5248   -0.1659 C   0  0  0  0  0  0  0  0  0  0  0  0
   -6.5196    0.1853   -1.4140 C   0  0  0  0  0  0  0  0  0  0  0  0
   -5.5896    0.6419   -2.0603 O   0  0  0  0  0  0  0  0  0  0  0  0
   -7.8551    0.3051   -1.8688 N   0  0  0  0  0  0  0  0  0  0  0  0
   -8.9648   -0.2128   -1.2329 C   0  0  0  0  0  0  0  0  0  0  0  0
  -10.0917   -0.0718   -1.6684 O   0  0  0  0  0  0  0  0  0  0  0  0
   -8.7243   -0.9190   -0.0380 N   0  0  0  0  0  0  0  0  0  0  0  0
   -7.4515   -1.1021    0.4577 C   0  0  0  0  0  0  0  0  0  0  0  0
   -7.3123   -1.8191    1.6123 N   0  0  0  0  0  0  0  0  0  0  0  0
   -9.8816   -1.4576    0.6647 C   0  0  0  0  0  0  0  0  0  0  0  0
   -8.1040    1.0038   -3.1273 C   0  0  0  0  0  0  0  0  0  0  0  0
    3.3454    0.3667    2.0109 O   0  0  0  0  0  0  0  0  0  0  0  0
    4.3717    0.1379    1.0696 C   0  0  0  0  0  0  0  0  0  0  0  0
    0.0176   -0.7772   -0.8875 H   0  0  0  0  0  0  0  0  0  0  0  0
    2.3786   -0.4625   -0.4094 H   0  0  0  0  0  0  0  0  0  0  0  0
    1.4269    0.7573    3.6183 H   0  0  0  0  0  0  0  0  0  0  0  0
   -1.0151    0.4361    3.1102 H   0  0  0  0  0  0  0  0  0  0  0  0
   -1.5054   -1.2832   -2.0493 H   0  0  0  0  0  0  0  0  0  0  0  0
   -1.3746   -2.7090   -0.9807 H   0  0  0  0  0  0  0  0  0  0  0  0
   -4.6935   -0.1247    1.0847 H   0  0  0  0  0  0  0  0  0  0  0  0
   -6.3504   -2.0632    1.8264 H   0  0  0  0  0  0  0  0  0  0  0  0
   -7.9978   -2.5315    1.8280 H   0  0  0  0  0  0  0  0  0  0  0  0
  -10.7749   -1.0857    0.1531 H   0  0  0  0  0  0  0  0  0  0  0  0
   -9.8941   -2.5603    0.6296 H   0  0  0  0  0  0  0  0  0  0  0  0
   -9.8842   -1.1230    1.7129 H   0  0  0  0  0  0  0  0  0  0  0  0
   -8.5854    0.3265   -3.8469 H   0  0  0  0  0  0  0  0  0  0  0  0
   -7.1347    1.3400   -3.5080 H   0  0  0  0  0  0  0  0  0  0  0  0
   -8.7743    1.8588   -2.9606 H   0  0  0  0  0  0  0  0  0  0  0  0
    4.3872   -0.9132    0.7311 H   0  0  0  0  0  0  0  0  0  0  0  0
    5.3178    0.3645    1.5778 H   0  0  0  0  0  0  0  0  0  0  0  0
    4.2701    0.7952    0.1881 H   0  0  0  0  0  0  0  0  0  0  0  0
  1  2  2  0
  1  6  1  0
  1 29  1  0
  2  3  1  0
  2 30  1  0
  3  4  2  0
  3 27  1  0
  4  5  1  0
  4 31  1  0
  5  6  2  0
  5 32  1  0
  6  7  1  0
  7  8  2  0
  7  9  1  0
  9 10  2  0
  9 14  1  0
 10 11  1  0
 10 15  1  0
 11 12  2  0
 11 13  1  0
 13 14  1  0
 14 33  1  0
 14 34  1  0
 15 16  1  0
 15 35  1  0
 16 17  1  0
 16 23  2  0
 17 18  2  0
 17 19  1  0
 19 20  1  0
 19 26  1  0
 20 21  2  0
 20 22  1  0
 22 23  1  0
 22 25  1  0
 23 24  1  0
 24 36  1  0
 24 37  1  0
 25 38  1  0
 25 39  1  0
 25 40  1  0
 26 41  1  0
 26 42  1  0
 26 43  1  0
 27 28  1  0
 28 44  1  0
 28 45  1  0
 28 46  1  0
M  END

