46

C         -1.20110        0.23950        0.52130
C         -0.21920       -0.71280        0.23300
C          0.37680       -1.43750        1.27810
C          0.00560       -1.16280        2.61200
C         -0.96260       -0.21280        2.88170
C         -1.61000        0.48330        1.83960
C         -2.66510        1.46120        2.21280
O         -2.72660        1.90410        3.36040
C         -3.63590        1.96970        1.22600
C         -4.26320        1.49990        0.10050
C         -5.15690        2.59540       -0.41970
O         -5.82820        2.54920       -1.41500
O         -5.07770        3.64490        0.41490
C         -4.19830        3.34710        1.50310
N         -4.37060        0.34120       -0.59270
C         -3.73660       -0.89400       -0.40530
C         -3.12150       -1.46500       -1.57840
O         -3.17430       -0.95210       -2.68680
N         -2.42340       -2.66990       -1.35940
C         -2.23490       -3.25960       -0.12360
O         -1.51200       -4.22910        0.02660
N         -2.94670       -2.69630        0.94590
C         -3.70110       -1.54740        0.80780
N         -4.38410       -1.10650        1.90070
C         -2.85110       -3.36530        2.23920
C         -1.74940       -3.29070       -2.49580
O          1.31040       -2.39120        1.11670
C          1.63810       -2.83930       -0.18540
H         -1.63860        0.80840       -0.29930
H          0.07040       -0.88210       -0.80320
H          0.50030       -1.72270        3.40750
H         -1.25560        0.01580        3.90830
H         -4.76440        3.38560        2.44720
H         -3.41630        4.12220        1.54720
H         -4.84010        0.46010       -1.49210
H         -4.83560       -0.20380        1.82200
H         -4.02260       -1.31350        2.82300
H         -2.24520       -4.26480        2.09530
H         -2.34630       -2.71960        2.97410
H         -3.85250       -3.64310        2.60090
H         -0.67010       -3.07260       -2.47700
H         -2.18410       -2.86960       -3.40780
H         -1.88260       -4.37830       -2.45240
H          0.76220       -3.29930       -0.66950
H          2.41820       -3.60080       -0.06030
H          2.03420       -2.02120       -0.81140
