rmsd141.gzmat
 OpenBabel08211713413D

 46 48  0  0  0  0  0  0  0  0999 V2000
    0.0000    0.0000    0.0000 C   0  0  0  0  0  0  0  0  0  0  0  0
    1.3943    0.0000    0.0000 C   0  0  0  0  0  0  0  0  0  0  0  0
    2.0639    0.0000    1.2250 C   0  0  0  0  0  0  0  0  0  0  0  0
    1.3694   -0.0056    2.4487 C   0  0  0  0  0  0  0  0  0  0  0  0
   -0.0149   -0.0151    2.4259 C   0  0  0  0  0  0  0  0  0  0  0  0
   -0.6994    0.0042    1.2040 C   0  0  0  0  0  0  0  0  0  0  0  0
   -2.1819   -0.0187    1.2366 C   0  0  0  0  0  0  0  0  0  0  0  0
   -2.7466   -0.8724    1.8966 O   0  0  0  0  0  0  0  0  0  0  0  0
   -2.8984    1.0287    0.5478 C   0  0  0  0  0  0  0  0  0  0  0  0
   -4.1962    1.0852    0.1232 C   0  0  0  0  0  0  0  0  0  0  0  0
   -4.4428    2.5075   -0.3759 C   0  0  0  0  0  0  0  0  0  0  0  0
   -5.4556    2.9923   -0.7851 O   0  0  0  0  0  0  0  0  0  0  0  0
   -3.2785    3.2098   -0.2725 O   0  0  0  0  0  0  0  0  0  0  0  0
   -2.2424    2.3550    0.2677 C   0  0  0  0  0  0  0  0  0  0  0  0
   -5.2537    0.2356    0.1370 N   0  0  0  0  0  0  0  0  0  0  0  0
   -5.0430   -1.1672    0.1590 C   0  0  0  0  0  0  0  0  0  0  0  0
   -4.9384   -1.8327   -1.1181 C   0  0  0  0  0  0  0  0  0  0  0  0
   -5.0791   -1.3154   -2.2043 O   0  0  0  0  0  0  0  0  0  0  0  0
   -4.6431   -3.2215   -1.0574 N   0  0  0  0  0  0  0  0  0  0  0  0
   -4.4704   -3.9342    0.1213 C   0  0  0  0  0  0  0  0  0  0  0  0
   -4.1922   -5.1134    0.1531 O   0  0  0  0  0  0  0  0  0  0  0  0
   -4.6547   -3.2199    1.3396 N   0  0  0  0  0  0  0  0  0  0  0  0
   -4.9212   -1.8605    1.3644 C   0  0  0  0  0  0  0  0  0  0  0  0
   -5.1947   -1.2700    2.5902 N   0  0  0  0  0  0  0  0  0  0  0  0
   -4.3711   -3.9478    2.5839 C   0  0  0  0  0  0  0  0  0  0  0  0
   -4.5107   -3.9715   -2.3161 C   0  0  0  0  0  0  0  0  0  0  0  0
    3.4091   -0.0044    1.3957 O   0  0  0  0  0  0  0  0  0  0  0  0
    4.2217    0.0190    0.2303 C   0  0  0  0  0  0  0  0  0  0  0  0
   -0.5430   -0.0136   -0.9488 H   0  0  0  0  0  0  0  0  0  0  0  0
    1.9357   -0.0079   -0.9392 H   0  0  0  0  0  0  0  0  0  0  0  0
    1.9258   -0.0081    3.3825 H   0  0  0  0  0  0  0  0  0  0  0  0
   -0.5799   -0.0363    3.3596 H   0  0  0  0  0  0  0  0  0  0  0  0
   -1.8675    2.8767    1.1654 H   0  0  0  0  0  0  0  0  0  0  0  0
   -1.4597    2.3101   -0.5108 H   0  0  0  0  0  0  0  0  0  0  0  0
   -6.0989    0.5269   -0.3688 H   0  0  0  0  0  0  0  0  0  0  0  0
   -5.3077   -0.2631    2.5558 H   0  0  0  0  0  0  0  0  0  0  0  0
   -4.6459   -1.5627    3.3846 H   0  0  0  0  0  0  0  0  0  0  0  0
   -4.2761   -5.0373    2.3846 H   0  0  0  0  0  0  0  0  0  0  0  0
   -3.4162   -3.6063    3.0283 H   0  0  0  0  0  0  0  0  0  0  0  0
   -5.1967   -3.8210    3.3069 H   0  0  0  0  0  0  0  0  0  0  0  0
   -3.7201   -4.7401   -2.2367 H   0  0  0  0  0  0  0  0  0  0  0  0
   -4.2501   -3.2785   -3.1411 H   0  0  0  0  0  0  0  0  0  0  0  0
   -5.4630   -4.4719   -2.5657 H   0  0  0  0  0  0  0  0  0  0  0  0
    4.0152   -0.8408   -0.4138 H   0  0  0  0  0  0  0  0  0  0  0  0
    5.2337   -0.0532    0.6542 H   0  0  0  0  0  0  0  0  0  0  0  0
    4.0963    0.9638   -0.3068 H   0  0  0  0  0  0  0  0  0  0  0  0
  1  2  2  0  0  0  0
  1  6  1  0  0  0  0
  2  3  1  0  0  0  0
  3 27  1  0  0  0  0
  3  4  2  0  0  0  0
  4 31  1  0  0  0  0
  5  4  1  0  0  0  0
  5 32  1  0  0  0  0
  6  7  1  0  0  0  0
  6  5  2  0  0  0  0
  7  8  2  0  0  0  0
  9  7  1  0  0  0  0
 10 15  1  0  0  0  0
 10  9  2  0  0  0  0
 11 13  1  0  0  0  0
 11 10  1  0  0  0  0
 12 11  2  0  0  0  0
 13 14  1  0  0  0  0
 14  9  1  0  0  0  0
 14 33  1  0  0  0  0
 15 16  1  0  0  0  0
 16 23  2  0  0  0  0
 17 19  1  0  0  0  0
 17 16  1  0  0  0  0
 18 17  2  0  0  0  0
 19 20  1  0  0  0  0
 20 21  2  0  0  0  0
 20 22  1  0  0  0  0
 22 23  1  0  0  0  0
 22 25  1  0  0  0  0
 23 24  1  0  0  0  0
 24 37  1  0  0  0  0
 25 39  1  0  0  0  0
 25 40  1  0  0  0  0
 26 41  1  0  0  0  0
 26 19  1  0  0  0  0
 28 45  1  0  0  0  0
 28 27  1  0  0  0  0
 29  1  1  0  0  0  0
 30  2  1  0  0  0  0
 34 14  1  0  0  0  0
 35 15  1  0  0  0  0
 36 24  1  0  0  0  0
 38 25  1  0  0  0  0
 42 26  1  0  0  0  0
 43 26  1  0  0  0  0
 44 28  1  0  0  0  0
 46 28  1  0  0  0  0
M  END
$$$$
