46

C          0.29450       -0.46510        0.11680
C          1.65280       -0.27480        0.38090
C          2.06100        0.16080        1.65060
C          1.08940        0.41400        2.63870
C         -0.25290        0.23110        2.35750
C         -0.68310       -0.22340        1.09200
C         -2.15280       -0.38380        0.89070
O         -2.92630        0.11010        1.72670
C         -2.71730       -1.13640       -0.22770
C         -4.07340       -1.25370       -0.40650
C         -4.33000       -2.17750       -1.55940
O         -5.37290       -2.59890       -1.97720
O         -3.12390       -2.53510       -2.06080
C         -2.05650       -1.91870       -1.33620
N         -5.06880       -0.73720        0.35010
C         -6.37030       -0.52480       -0.16590
C         -6.51960        0.18530       -1.41400
O         -5.58960        0.64190       -2.06030
N         -7.85510        0.30510       -1.86880
C         -8.96480       -0.21280       -1.23290
O        -10.09170       -0.07180       -1.66840
N         -8.72430       -0.91900       -0.03800
C         -7.45150       -1.10210        0.45770
N         -7.31230       -1.81910        1.61230
C         -9.88160       -1.45760        0.66470
C         -8.10400        1.00380       -3.12730
O          3.34540        0.36670        2.01090
C          4.37170        0.13790        1.06960
H          0.01760       -0.77720       -0.88750
H          2.37860       -0.46250       -0.40940
H          1.42690        0.75730        3.61830
H         -1.01510        0.43610        3.11020
H         -1.50540       -1.28320       -2.04930
H         -1.37460       -2.70900       -0.98070
H         -4.69350       -0.12470        1.08470
H         -6.35040       -2.06320        1.82640
H         -7.99780       -2.53150        1.82800
H        -10.77490       -1.08570        0.15310
H         -9.89410       -2.56030        0.62960
H         -9.88420       -1.12300        1.71290
H         -8.58540        0.32650       -3.84690
H         -7.13470        1.34000       -3.50800
H         -8.77430        1.85880       -2.96060
H          4.38720       -0.91320        0.73110
H          5.31780        0.36450        1.57780
H          4.27010        0.79520        0.18810
