46
rmsd181.gzmat
C          0.00000        0.00000        0.00000
C          1.39330        0.00000        0.00000
C          2.06150        0.00000        1.22550
C          1.36640        0.01110        2.44810
C         -0.01850       -0.00470        2.42560
C         -0.69970       -0.00500        1.20370
C         -2.18310       -0.06740        1.21220
O         -2.73670       -0.99240        1.77780
C         -2.90740        1.02390        0.60660
C         -4.20680        1.11660        0.19350
C         -4.46170        2.58140       -0.15860
O         -5.48320        3.10350       -0.49290
O         -3.29420        3.27010       -0.01330
C         -2.25300        2.36910        0.43320
N         -5.25860        0.26420        0.12350
C         -5.04030       -1.12850       -0.03220
C         -4.97990       -1.62640       -1.38600
O         -5.12520       -0.96810       -2.39240
N         -4.74080       -3.02130       -1.51120
C         -4.53270       -3.87770       -0.43870
O         -4.29560       -5.05970       -0.56850
N         -4.62450       -3.31440        0.86580
C         -4.89830       -1.97150        1.07320
N         -5.15650       -1.54200        2.36380
C         -4.28770       -4.19480        1.99230
C         -4.70840       -3.62460       -2.85220
O          3.40770        0.00250        1.39180
C          4.21150       -0.17060        0.23230
H         -0.54290       -0.00690       -0.94800
H          1.93560       -0.00150       -0.93890
H          1.92090        0.01830        3.38260
H         -0.58120       -0.02180        3.36040
H         -1.86360        2.80770        1.36720
H         -1.48180        2.38880       -0.35730
H         -6.11340        0.60760       -0.33080
H         -5.21110       -0.53510        2.47330
H         -4.66060       -1.98240        3.12200
H         -4.06590       -5.22300        1.63240
H         -3.38330       -3.83080        2.51520
H         -5.13520       -4.27090        2.69590
H         -3.88070       -4.35260       -2.93330
H         -4.56660       -2.83930       -3.62060
H         -5.65850       -4.14770       -3.05960
H          4.01720       -1.14300       -0.23230
H          5.22780       -0.13930        0.65090
H          4.06510        0.64970       -0.47640
