52
rmsd106.gzmat
O          0.00000        0.00000        0.00000
C          1.40870        0.00000        0.00000
C          1.94410        0.00000        1.39120
S          1.27950        0.98190        2.71430
C          2.48700        0.34850        3.77840
C          3.30100       -0.53320        3.10900
N          2.97800       -0.71940        1.75880
C          4.43970       -1.26270        3.65970
C          5.56840       -1.48150        2.86930
C          6.65130       -2.18920        3.40540
C          6.61280       -2.66390        4.72360
C          5.47710       -2.44190        5.49580
C          4.39040       -1.74650        4.97140
N          7.76890       -2.40850        2.55460
C          8.53370       -3.56940        2.62750
N          9.84680       -3.37720        2.38280
C         10.66320       -4.47250        2.35790
N         10.27340       -5.72220        2.59310
C          8.93700       -5.94540        2.82690
C          7.99430       -4.88370        2.83330
C          6.61860       -5.18450        2.99710
C          6.20970       -6.46880        3.22940
O          4.93720       -6.88450        3.44270
C          3.93690       -5.88230        3.63080
C          3.42010       -5.38100        2.29310
C          7.17650       -7.54580        3.25550
C          8.50620       -7.28320        3.05130
O          6.61570       -8.75360        3.46640
C          7.47890       -9.88580        3.58700
C          8.13880       -9.90640        4.95470
H         -0.34870       -0.85600        0.33050
H          1.66260        0.93900       -0.54210
H          1.79170       -0.86340       -0.58650
H          2.56440        0.64140        4.81010
H          5.59270       -1.12890        1.83590
H          7.45980       -3.21180        5.13460
H          5.43940       -2.81420        6.51980
H          3.50130       -1.58640        5.57690
H          8.25890       -1.56760        2.23570
H         11.72610       -4.28250        2.14220
H          5.88860       -4.37830        2.91250
H          4.30450       -5.07010        4.28150
H          3.17390       -6.46870        4.18150
H          4.21950       -4.93940        1.68220
H          2.65160       -4.61090        2.42650
H          2.98700       -6.19660        1.70100
H          9.26760       -8.06220        3.04510
H          8.20110       -9.91650        2.75360
H          6.74310      -10.70650        3.46240
H          7.39080       -9.82880        5.75510
H          8.83220       -9.06460        5.08850
H          8.70460      -10.83090        5.11340
