52
rmsd132.gzmat
O          0.00000        0.00000        0.00000
C          1.40850        0.00000        0.00000
C          1.96340        0.00000        1.38450
S          3.48100        0.79220        1.86290
C          3.24510        0.24620        3.48990
C          2.07870       -0.47200        3.58890
N          1.37040       -0.60580        2.38510
C          1.53500       -1.10180        4.78880
C          1.72080       -0.49550        6.03250
C          1.19500       -1.11090        7.17580
C          0.51730       -2.33480        7.08190
C          0.32760       -2.91660        5.83320
C          0.82690       -2.30340        4.68690
N          1.35870       -0.43250        8.41320
C          0.41730       -0.53850        9.43650
N          0.95330       -0.54160       10.67400
C          0.10210       -0.56590       11.74310
N         -1.22420       -0.61750       11.66220
C         -1.79410       -0.59860       10.41120
C         -1.00340       -0.53720        9.23330
C         -1.65010       -0.44440        7.97470
C         -3.01400       -0.49650        7.88460
O         -3.74780       -0.46740        6.74630
C         -3.04640       -0.43860        5.50130
C         -2.57540        0.96920        5.17870
C         -3.81710       -0.59620        9.08570
C         -3.21360       -0.63430       10.31560
O         -5.14200       -0.61650        8.83650
C         -6.03690       -0.74950        9.94280
C         -6.08910       -2.19160       10.41650
H         -0.34730       -0.57920        0.72060
H          1.65880        0.91520       -0.57840
H          1.75420       -0.89520       -0.56550
H          3.94540        0.45510        4.27900
H          2.24050        0.45770        6.11520
H          0.12990       -2.81830        7.97830
H         -0.21520       -3.85870        5.75200
H          0.66670       -2.75400        3.70670
H          2.32530       -0.27290        8.71210
H          0.57130       -0.56030       12.73920
H         -1.04320       -0.31100        7.07880
H         -3.85060       -0.77720        4.81670
H         -2.23030       -1.18170        5.49040
H         -3.41070        1.68110        5.20140
H         -2.11740        1.01820        4.18330
H         -1.83150        1.33070        5.90000
H         -3.77660       -0.68800       11.24650
H         -6.98510       -0.42940        9.46440
H         -5.77720       -0.03770       10.74480
H         -5.13610       -2.51310       10.85830
H         -6.29770       -2.87520        9.58220
H         -6.87060       -2.33780       11.17050
