52
rmsd145.gzmat
O          0.00000        0.00000        0.00000
C          1.40990        0.00000        0.00000
C          1.93500        0.00000        1.39560
S          1.45710       -1.17990        2.63450
C          2.50900       -0.40480        3.76590
C          3.14810        0.66050        3.17620
N          2.80300        0.87910        1.83690
C          4.11890        1.55230        3.80380
C          4.20430        2.88470        3.39860
C          5.13230        3.73120        4.01960
C          5.98340        3.24230        5.02060
C          5.88590        1.91130        5.41200
C          4.95770        1.06450        4.81250
N          5.16010        5.08690        3.59350
C          5.65910        6.08990        4.42860
N          6.42720        7.00840        3.81200
C          6.92320        8.03800        4.56360
N          6.74650        8.18120        5.87410
C          5.94510        7.26950        6.51920
C          5.32240        6.20400        5.81840
C          4.40480        5.36530        6.50110
C          4.19790        5.51700        7.84450
O          3.38250        4.76980        8.62740
C          2.54510        3.80700        7.98740
C          1.35900        4.48440        7.32160
C          4.90640        6.54590        8.57830
C          5.74170        7.41120        7.92110
O          4.61790        6.55070        9.89580
C          5.40410        7.38040       10.75370
C          6.78990        6.78860       10.94420
H         -0.34570        0.83830        0.37710
H          1.78900        0.86970       -0.58020
H          1.66510       -0.93360       -0.54880
H          2.61420       -0.73620        4.78320
H          3.55260        3.25940        2.60670
H          6.71670        3.89730        5.48980
H          6.54690        1.52740        6.18950
H          4.89660        0.02270        5.11750
H          5.31050        5.23070        2.58960
H          7.53690        8.77980        4.02920
H          3.86080        4.61280        5.92880
H          2.24400        3.19890        8.86450
H          3.12820        3.17490        7.29620
H          0.79760        5.09640        8.04030
H          0.66780        3.75070        6.89240
H          1.67320        5.15910        6.51370
H          6.26380        8.22350        8.42510
H          4.79630        7.33530       11.68050
H          5.42220        8.41870       10.38120
H          7.34890        6.74720        9.99870
H          6.73430        5.75920       11.32320
H          7.38280        7.37520       11.65450
