52
rmsd138.gzmat
O          0.00000        0.00000        0.00000
C          1.40890        0.00000        0.00000
C          1.94840        0.00000        1.38940
S          1.29450        0.98980        2.71060
C          2.50140        0.35190        3.77190
C          3.31330       -0.53490        3.10500
N          2.97690       -0.72650        1.75610
C          4.44780       -1.27300        3.65290
C          4.90230       -2.42000        3.00580
C          5.99680       -3.13460        3.52680
C          6.63090       -2.69170        4.69180
C          6.16300       -1.54480        5.32820
C          5.08040       -0.83250        4.82130
N          6.39740       -4.25900        2.76710
C          7.20730       -5.30450        3.15760
N          7.76530       -5.30240        4.38220
C          8.56970       -6.35300        4.72670
N          8.85850       -7.39030        3.94820
C          8.30070       -7.42070        2.69020
C          7.44620       -6.38990        2.22990
C          6.88920       -6.47840        0.92790
C          7.17520       -7.55070        0.12580
O          6.73280       -7.75840       -1.13840
C          5.70890       -6.90160       -1.63960
C          4.36570       -7.23940       -1.01380
C          8.05950       -8.59730        0.59360
C          8.60440       -8.52770        1.84850
O          8.23520       -9.58490       -0.30780
C          9.17830      -10.61430       -0.00190
C         10.59820      -10.11090       -0.19100
H         -0.34890       -0.84160        0.36520
H          1.66300        0.93820       -0.54360
H          1.78790       -0.86380       -0.58740
H          2.56560        0.62990        4.80850
H          4.40290       -2.74920        2.09310
H          7.48530       -3.23070        5.10950
H          6.65680       -1.20150        6.23740
H          4.73530        0.06490        5.32700
H          5.95510       -4.34320        1.85160
H          9.00280       -6.31510        5.73900
H          6.23680       -5.68730        0.56800
H          5.74620       -7.16740       -2.71630
H          5.99170       -5.84250       -1.52310
H          4.16430       -8.31840       -1.07700
H          3.54450       -6.72060       -1.52000
H          4.32530       -6.97740        0.05050
H          9.26910       -9.29360        2.24740
H          8.89480      -11.36950       -0.76320
H          8.99260      -11.02580        1.00470
H         10.86680       -9.34910        0.55380
H         10.72520       -9.64520       -1.17810
H         11.32580      -10.92570       -0.10910
