rmsd106.gzmat
 OpenBabel08211713423D

 52 55  0  0  1  0  0  0  0  0999 V2000
    0.0000    0.0000    0.0000 O   0  0  0  0  0  0  0  0  0  0  0  0
    1.4087    0.0000    0.0000 C   0  0  0  0  0  0  0  0  0  0  0  0
    1.9441    0.0000    1.3912 C   0  0  0  0  0  0  0  0  0  0  0  0
    1.2795    0.9819    2.7143 S   0  0  0  0  0  0  0  0  0  0  0  0
    2.4870    0.3485    3.7784 C   0  0  0  0  0  0  0  0  0  0  0  0
    3.3010   -0.5332    3.1090 C   0  0  0  0  0  0  0  0  0  0  0  0
    2.9780   -0.7194    1.7588 N   0  0  0  0  0  0  0  0  0  0  0  0
    4.4397   -1.2627    3.6597 C   0  0  0  0  0  0  0  0  0  0  0  0
    5.5684   -1.4815    2.8693 C   0  0  0  0  0  0  0  0  0  0  0  0
    6.6513   -2.1892    3.4054 C   0  0  0  0  0  0  0  0  0  0  0  0
    6.6128   -2.6639    4.7236 C   0  0  0  0  0  0  0  0  0  0  0  0
    5.4771   -2.4419    5.4958 C   0  0  0  0  0  0  0  0  0  0  0  0
    4.3904   -1.7465    4.9714 C   0  0  0  0  0  0  0  0  0  0  0  0
    7.7689   -2.4085    2.5546 N   0  0  0  0  0  0  0  0  0  0  0  0
    8.5337   -3.5694    2.6275 C   0  0  0  0  0  0  0  0  0  0  0  0
    9.8468   -3.3772    2.3828 N   0  0  0  0  0  0  0  0  0  0  0  0
   10.6632   -4.4725    2.3579 C   0  0  0  0  0  0  0  0  0  0  0  0
   10.2734   -5.7222    2.5931 N   0  0  0  0  0  0  0  0  0  0  0  0
    8.9370   -5.9454    2.8269 C   0  0  0  0  0  0  0  0  0  0  0  0
    7.9943   -4.8837    2.8333 C   0  0  2  0  0  0  0  0  0  0  0  0
    6.6186   -5.1845    2.9971 C   0  0  0  0  0  0  0  0  0  0  0  0
    6.2097   -6.4688    3.2294 C   0  0  0  0  0  0  0  0  0  0  0  0
    4.9372   -6.8845    3.4427 O   0  0  0  0  0  0  0  0  0  0  0  0
    3.9369   -5.8823    3.6308 C   0  0  0  0  0  0  0  0  0  0  0  0
    3.4201   -5.3810    2.2931 C   0  0  0  0  0  0  0  0  0  0  0  0
    7.1765   -7.5458    3.2555 C   0  0  0  0  0  0  0  0  0  0  0  0
    8.5062   -7.2832    3.0513 C   0  0  0  0  0  0  0  0  0  0  0  0
    6.6157   -8.7536    3.4664 O   0  0  0  0  0  0  0  0  0  0  0  0
    7.4789   -9.8858    3.5870 C   0  0  0  0  0  0  0  0  0  0  0  0
    8.1388   -9.9064    4.9547 C   0  0  0  0  0  0  0  0  0  0  0  0
   -0.3487   -0.8560    0.3305 H   0  0  0  0  0  0  0  0  0  0  0  0
    1.6626    0.9390   -0.5421 H   0  0  0  0  0  0  0  0  0  0  0  0
    1.7917   -0.8634   -0.5865 H   0  0  0  0  0  0  0  0  0  0  0  0
    2.5644    0.6414    4.8101 H   0  0  0  0  0  0  0  0  0  0  0  0
    5.5927   -1.1289    1.8359 H   0  0  0  0  0  0  0  0  0  0  0  0
    7.4598   -3.2118    5.1346 H   0  0  0  0  0  0  0  0  0  0  0  0
    5.4394   -2.8142    6.5198 H   0  0  0  0  0  0  0  0  0  0  0  0
    3.5013   -1.5864    5.5769 H   0  0  0  0  0  0  0  0  0  0  0  0
    8.2589   -1.5676    2.2357 H   0  0  0  0  0  0  0  0  0  0  0  0
   11.7261   -4.2825    2.1422 H   0  0  0  0  0  0  0  0  0  0  0  0
    5.8886   -4.3783    2.9125 H   0  0  0  0  0  0  0  0  0  0  0  0
    4.3045   -5.0701    4.2815 H   0  0  0  0  0  0  0  0  0  0  0  0
    3.1739   -6.4687    4.1815 H   0  0  0  0  0  0  0  0  0  0  0  0
    4.2195   -4.9394    1.6822 H   0  0  0  0  0  0  0  0  0  0  0  0
    2.6516   -4.6109    2.4265 H   0  0  0  0  0  0  0  0  0  0  0  0
    2.9870   -6.1966    1.7010 H   0  0  0  0  0  0  0  0  0  0  0  0
    9.2676   -8.0622    3.0451 H   0  0  0  0  0  0  0  0  0  0  0  0
    8.2011   -9.9165    2.7536 H   0  0  0  0  0  0  0  0  0  0  0  0
    6.7431  -10.7065    3.4624 H   0  0  0  0  0  0  0  0  0  0  0  0
    7.3908   -9.8288    5.7551 H   0  0  0  0  0  0  0  0  0  0  0  0
    8.8322   -9.0646    5.0885 H   0  0  0  0  0  0  0  0  0  0  0  0
    8.7046  -10.8309    5.1134 H   0  0  0  0  0  0  0  0  0  0  0  0
  1 31  1  0  0  0  0
  2  1  1  0  0  0  0
  2  3  1  0  0  0  0
  3  7  2  0  0  0  0
  3  4  1  0  0  0  0
  4  5  1  0  0  0  0
  5 34  1  0  0  0  0
  6  8  1  0  0  0  0
  6  5  1  0  0  0  0
  7  6  2  0  0  0  0
  8 13  2  0  0  0  0
  9 10  2  0  0  0  0
  9  8  1  0  0  0  0
 10 11  1  0  0  0  0
 11 36  1  0  0  0  0
 11 12  2  0  0  0  0
 12 37  1  0  0  0  0
 13 12  1  0  0  0  0
 13 38  1  0  0  0  0
 14 15  1  0  0  0  0
 14 10  1  0  0  0  0
 16 15  2  0  0  0  0
 17 16  2  0  0  0  0
 17 18  2  0  0  0  0
 18 19  2  0  0  0  0
 19 27  1  0  0  0  0
 20 19  1  6  0  0  0
 20 15  1  0  0  0  0
 20 21  1  0  0  0  0
 21 22  2  0  0  0  0
 22 26  1  0  0  0  0
 22 23  1  0  0  0  0
 23 24  1  0  0  0  0
 24 43  1  0  0  0  0
 24 42  1  0  0  0  0
 25 45  1  0  0  0  0
 25 24  1  0  0  0  0
 26 28  1  0  0  0  0
 27 26  2  0  0  0  0
 28 29  1  0  0  0  0
 29 30  1  0  0  0  0
 30 51  1  0  0  0  0
 30 52  1  0  0  0  0
 30 50  1  0  0  0  0
 32  2  1  0  0  0  0
 33  2  1  0  0  0  0
 35  9  1  0  0  0  0
 39 14  1  0  0  0  0
 40 17  1  0  0  0  0
 41 21  1  0  0  0  0
 44 25  1  0  0  0  0
 46 25  1  0  0  0  0
 47 27  1  0  0  0  0
 48 29  1  0  0  0  0
 49 29  1  0  0  0  0
M  RAD  2   5   2  20   2
M  END
$$$$
