
     RDKit          3D

 52 55  0  0  0  0  0  0  0  0999 V2000
    0.6143    1.3705   -0.2952 O   0  0  0  0  0  0  0  0  0  0  0  0
    1.8096    0.6504   -0.2478 C   0  0  0  0  0  0  0  0  0  0  0  0
    2.1317    0.2266    1.1631 C   0  0  0  0  0  0  0  0  0  0  0  0
    3.3097   -0.9942    1.5818 S   0  0  0  0  0  0  0  0  0  0  0  0
    2.9891   -0.6800    3.2538 C   0  0  0  0  0  0  0  0  0  0  0  0
    2.0322    0.3006    3.3922 C   0  0  0  0  0  0  0  0  0  0  0  0
    1.5711    0.7955    2.1858 N   0  0  0  0  0  0  0  0  0  0  0  0
    1.4934    0.8324    4.6579 C   0  0  0  0  0  0  0  0  0  0  0  0
    0.5496    1.8696    4.6235 C   0  0  0  0  0  0  0  0  0  0  0  0
    0.0136    2.4021    5.8035 C   0  0  0  0  0  0  0  0  0  0  0  0
    0.4313    1.8886    7.0426 C   0  0  0  0  0  0  0  0  0  0  0  0
    1.3568    0.8451    7.0793 C   0  0  0  0  0  0  0  0  0  0  0  0
    1.8890    0.3157    5.9046 C   0  0  0  0  0  0  0  0  0  0  0  0
   -0.9143    3.4592    5.7068 N   0  0  0  0  0  0  0  0  0  0  0  0
   -1.8418    3.8288    6.6668 C   0  0  0  0  0  0  0  0  0  0  0  0
   -1.9839    5.1314    6.8695 N   0  0  0  0  0  0  0  0  0  0  0  0
   -2.8639    5.5229    7.8127 C   0  0  0  0  0  0  0  0  0  0  0  0
   -3.5875    4.7521    8.5944 N   0  0  0  0  0  0  0  0  0  0  0  0
   -3.5013    3.4124    8.3673 C   0  0  0  0  0  0  0  0  0  0  0  0
   -2.6556    2.8733    7.3560 C   0  0  0  0  0  0  0  0  0  0  0  0
   -2.6984    1.4809    7.0750 C   0  0  0  0  0  0  0  0  0  0  0  0
   -3.5042    0.6358    7.8093 C   0  0  0  0  0  0  0  0  0  0  0  0
   -3.6442   -0.6902    7.6056 O   0  0  0  0  0  0  0  0  0  0  0  0
   -2.9422   -1.3262    6.5442 C   0  0  0  0  0  0  0  0  0  0  0  0
   -1.4919   -1.6306    6.8898 C   0  0  0  0  0  0  0  0  0  0  0  0
   -4.3082    1.1691    8.8850 C   0  0  0  0  0  0  0  0  0  0  0  0
   -4.3016    2.5266    9.1379 C   0  0  0  0  0  0  0  0  0  0  0  0
   -5.0447    0.2523    9.5395 O   0  0  0  0  0  0  0  0  0  0  0  0
   -5.8596    0.6432   10.6389 C   0  0  0  0  0  0  0  0  0  0  0  0
   -5.0613    0.8215   11.9219 C   0  0  0  0  0  0  0  0  0  0  0  0
    0.4637    1.7019    0.6058 H   0  0  0  0  0  0  0  0  0  0  0  0
    2.6677    1.2464   -0.6288 H   0  0  0  0  0  0  0  0  0  0  0  0
    1.7362   -0.2391   -0.8990 H   0  0  0  0  0  0  0  0  0  0  0  0
    3.5155   -1.2286    4.0305 H   0  0  0  0  0  0  0  0  0  0  0  0
    0.2222    2.2569    3.6588 H   0  0  0  0  0  0  0  0  0  0  0  0
    0.0323    2.3054    7.9674 H   0  0  0  0  0  0  0  0  0  0  0  0
    1.6747    0.4454    8.0450 H   0  0  0  0  0  0  0  0  0  0  0  0
    2.6103   -0.5006    5.9619 H   0  0  0  0  0  0  0  0  0  0  0  0
   -0.6157    4.2529    5.1461 H   0  0  0  0  0  0  0  0  0  0  0  0
   -2.9632    6.6070    7.9485 H   0  0  0  0  0  0  0  0  0  0  0  0
   -2.0953    1.0872    6.2632 H   0  0  0  0  0  0  0  0  0  0  0  0
   -3.0176   -0.7203    5.6236 H   0  0  0  0  0  0  0  0  0  0  0  0
   -3.4962   -2.2599    6.3673 H   0  0  0  0  0  0  0  0  0  0  0  0
   -0.9018   -0.7176    7.0472 H   0  0  0  0  0  0  0  0  0  0  0  0
   -1.0222   -2.1944    6.0683 H   0  0  0  0  0  0  0  0  0  0  0  0
   -1.4388   -2.2400    7.8049 H   0  0  0  0  0  0  0  0  0  0  0  0
   -4.9168    2.9767    9.9140 H   0  0  0  0  0  0  0  0  0  0  0  0
   -6.5850   -0.1760   10.7505 H   0  0  0  0  0  0  0  0  0  0  0  0
   -6.4286    1.5546   10.3856 H   0  0  0  0  0  0  0  0  0  0  0  0
   -4.3325    1.6411   11.8398 H   0  0  0  0  0  0  0  0  0  0  0  0
   -4.5139   -0.1028   12.1611 H   0  0  0  0  0  0  0  0  0  0  0  0
   -5.7400    1.0500   12.7588 H   0  0  0  0  0  0  0  0  0  0  0  0
  1  2  1  0
  1 31  1  0
  2  3  1  0
  2 32  1  0
  2 33  1  0
  3  4  1  0
  3  7  2  0
  4  5  1  0
  5  6  2  0
  5 34  1  0
  6  7  1  0
  6  8  1  0
  8  9  2  0
  8 13  1  0
  9 10  1  0
  9 35  1  0
 10 11  2  0
 10 14  1  0
 11 12  1  0
 11 36  1  0
 12 13  2  0
 12 37  1  0
 13 38  1  0
 14 15  1  0
 14 39  1  0
 15 16  2  0
 15 20  1  0
 16 17  1  0
 17 18  2  0
 17 40  1  0
 18 19  1  0
 19 20  2  0
 19 27  1  0
 20 21  1  0
 21 22  2  0
 21 41  1  0
 22 23  1  0
 22 26  1  0
 23 24  1  0
 24 25  1  0
 24 42  1  0
 24 43  1  0
 25 44  1  0
 25 45  1  0
 25 46  1  0
 26 27  2  0
 26 28  1  0
 27 47  1  0
 28 29  1  0
 29 30  1  0
 29 48  1  0
 29 49  1  0
 30 50  1  0
 30 51  1  0
 30 52  1  0
M  END

