52
rmsd175.gzmat
O          0.00000        0.00000        0.00000
C          1.40800        0.00000        0.00000
C          1.95680        0.00000        1.38760
S          3.42000       -0.87720        1.89190
C          3.20430       -0.29240        3.50830
C          2.08440        0.49880        3.58370
N          1.39720        0.66100        2.37220
C          1.57110        1.17150        4.77400
C          1.03770        2.45530        4.66720
C          0.57560        3.10250        5.82130
C          0.63280        2.46480        7.06780
C          1.15610        1.17840        7.15360
C          1.62620        0.52810        6.01550
N          0.05050        4.41200        5.65890
C          0.08460        5.35110        6.69090
N         -1.03480        6.09540        6.79280
C         -1.05940        7.09890        7.72020
N         -0.06690        7.38820        8.55660
C          1.09270        6.65660        8.45680
C          1.23430        5.60770        7.50980
C          2.48040        4.93910        7.39970
C          3.51760        5.26380        8.23060
O          4.76070        4.72340        8.22460
C          4.99170        3.58830        7.39120
C          4.39730        2.33620        8.01380
C          3.36200        6.31470        9.21480
C          2.17510        6.99140        9.31800
O          4.46460        6.50930        9.96700
C          4.50240        7.65760       10.81800
C          4.70470        8.92100        9.99990
H         -0.34690        0.62230        0.68480
H          1.75790        0.89280       -0.56550
H          1.65680       -0.91700       -0.57590
H          3.87860       -0.53520        4.30920
H          0.98450        2.94870        3.69500
H          0.26530        2.96920        7.96070
H          1.18940        0.67300        8.11930
H          2.01960       -0.48310        6.08800
H         -0.74800        4.48790        5.01860
H         -1.98600        7.69150        7.77420
H          2.60210        4.18130        6.62510
H          6.10040        3.57040        7.39030
H          4.63450        3.77280        6.36340
H          4.73140        2.21480        9.05260
H          4.68670        1.43660        7.46020
H          3.29930        2.37450        8.03640
H          2.01500        7.79480       10.03620
H          5.38880        7.41180       11.43750
H          3.60750        7.69390       11.46200
H          3.82570        9.15900        9.38490
H          5.55200        8.81150        9.30890
H          4.90510        9.78710       10.64000
