rmsd133.gzmat
 OpenBabel08211713423D

 52 55  0  0  1  0  0  0  0  0999 V2000
    0.0000    0.0000    0.0000 O   0  0  0  0  0  0  0  0  0  0  0  0
    1.4089    0.0000    0.0000 C   0  0  0  0  0  0  0  0  0  0  0  0
    1.9359    0.0000    1.3947 C   0  0  0  0  0  0  0  0  0  0  0  0
    1.3642    1.0930    2.6729 S   0  0  0  0  0  0  0  0  0  0  0  0
    2.4883    0.3770    3.7742 C   0  0  0  0  0  0  0  0  0  0  0  0
    3.2079   -0.6161    3.1519 C   0  0  0  0  0  0  0  0  0  0  0  0
    2.8828   -0.8104    1.8027 N   0  0  0  0  0  0  0  0  0  0  0  0
    4.2404   -1.4577    3.7483 C   0  0  0  0  0  0  0  0  0  0  0  0
    5.2103   -2.0477    2.9365 C   0  0  0  0  0  0  0  0  0  0  0  0
    6.2059   -2.8413    3.5209 C   0  0  0  0  0  0  0  0  0  0  0  0
    6.2265   -3.0524    4.9063 C   0  0  0  0  0  0  0  0  0  0  0  0
    5.2488   -2.4629    5.7011 C   0  0  0  0  0  0  0  0  0  0  0  0
    4.2567   -1.6695    5.1318 C   0  0  0  0  0  0  0  0  0  0  0  0
    7.1755   -3.4077    2.6491 N   0  0  0  0  0  0  0  0  0  0  0  0
    8.4392   -3.7687    3.1258 C   0  0  0  0  0  0  0  0  0  0  0  0
    8.8963   -4.9530    2.6768 N   0  0  0  0  0  0  0  0  0  0  0  0
   10.1463   -5.3477    3.0677 C   0  0  0  0  0  0  0  0  0  0  0  0
   10.9356   -4.6717    3.8978 N   0  0  0  0  0  0  0  0  0  0  0  0
   10.5002   -3.4473    4.3461 C   0  0  0  0  0  0  0  0  0  0  0  0
    9.2454   -2.9158    3.9496 C   0  0  1  0  0  0  0  0  0  0  0  0
    8.8945   -1.5965    4.3347 C   0  0  0  0  0  0  0  0  0  0  0  0
    9.7185   -0.8741    5.1529 C   0  0  0  0  0  0  0  0  0  0  0  0
    9.5256    0.3966    5.5819 O   0  0  0  0  0  0  0  0  0  0  0  0
    8.3462    1.0751    5.1511 C   0  0  0  0  0  0  0  0  0  0  0  0
    7.1462    0.6451    5.9772 C   0  0  0  0  0  0  0  0  0  0  0  0
   10.9588   -1.4521    5.6300 C   0  0  0  0  0  0  0  0  0  0  0  0
   11.3417   -2.7023    5.2187 C   0  0  0  0  0  0  0  0  0  0  0  0
   11.6453   -0.6288    6.4480 O   0  0  0  0  0  0  0  0  0  0  0  0
   12.8531   -1.1155    7.0369 C   0  0  0  0  0  0  0  0  0  0  0  0
   12.5395   -2.0502    8.1924 C   0  0  0  0  0  0  0  0  0  0  0  0
   -0.3464   -0.8541    0.3397 H   0  0  0  0  0  0  0  0  0  0  0  0
    1.6647    0.9352   -0.5460 H   0  0  0  0  0  0  0  0  0  0  0  0
    1.7905   -0.8675   -0.5816 H   0  0  0  0  0  0  0  0  0  0  0  0
    2.5812    0.6981    4.7956 H   0  0  0  0  0  0  0  0  0  0  0  0
    5.1914   -1.8881    1.8554 H   0  0  0  0  0  0  0  0  0  0  0  0
    6.9977   -3.6749    5.3584 H   0  0  0  0  0  0  0  0  0  0  0  0
    5.2563   -2.6313    6.7781 H   0  0  0  0  0  0  0  0  0  0  0  0
    3.4889   -1.2272    5.7620 H   0  0  0  0  0  0  0  0  0  0  0  0
    6.7992   -4.0013    1.9020 H   0  0  0  0  0  0  0  0  0  0  0  0
   10.4970   -6.3142    2.6733 H   0  0  0  0  0  0  0  0  0  0  0  0
    7.9700   -1.1692    3.9442 H   0  0  0  0  0  0  0  0  0  0  0  0
    8.1911    0.9501    4.0658 H   0  0  0  0  0  0  0  0  0  0  0  0
    8.6401    2.1247    5.3569 H   0  0  0  0  0  0  0  0  0  0  0  0
    6.8799   -0.4068    5.8009 H   0  0  0  0  0  0  0  0  0  0  0  0
    6.2643    1.2512    5.7441 H   0  0  0  0  0  0  0  0  0  0  0  0
    7.3502    0.7430    7.0511 H   0  0  0  0  0  0  0  0  0  0  0  0
   12.2803   -3.1625    5.5249 H   0  0  0  0  0  0  0  0  0  0  0  0
   13.3036   -0.1603    7.3763 H   0  0  0  0  0  0  0  0  0  0  0  0
   13.5067   -1.5714    6.2736 H   0  0  0  0  0  0  0  0  0  0  0  0
   12.0384   -2.9673    7.8532 H   0  0  0  0  0  0  0  0  0  0  0  0
   11.8665   -1.5726    8.9176 H   0  0  0  0  0  0  0  0  0  0  0  0
   13.4493   -2.3473    8.7255 H   0  0  0  0  0  0  0  0  0  0  0  0
  1 31  1  0  0  0  0
  2  1  1  0  0  0  0
  2  3  1  0  0  0  0
  3  7  2  0  0  0  0
  3  4  1  0  0  0  0
  4  5  1  0  0  0  0
  5 34  1  0  0  0  0
  6  8  1  0  0  0  0
  6  5  1  0  0  0  0
  7  6  2  0  0  0  0
  8 13  2  0  0  0  0
  9 10  2  0  0  0  0
  9  8  1  0  0  0  0
 10 11  1  0  0  0  0
 11 36  1  0  0  0  0
 11 12  2  0  0  0  0
 12 37  1  0  0  0  0
 13 12  1  0  0  0  0
 13 38  1  0  0  0  0
 14 15  1  0  0  0  0
 14 10  1  0  0  0  0
 16 17  2  0  0  0  0
 16 15  2  0  0  0  0
 17 18  2  0  0  0  0
 18 19  2  0  0  0  0
 19 27  1  0  0  0  0
 20 15  1  6  0  0  0
 20 21  1  0  0  0  0
 20 19  1  0  0  0  0
 21 22  2  0  0  0  0
 22 23  1  0  0  0  0
 22 26  1  0  0  0  0
 24 43  1  0  0  0  0
 24 23  1  0  0  0  0
 24 25  1  0  0  0  0
 25 46  1  0  0  0  0
 26 28  1  0  0  0  0
 27 47  1  0  0  0  0
 27 26  2  0  0  0  0
 28 29  1  0  0  0  0
 29 48  1  0  0  0  0
 29 30  1  0  0  0  0
 30 52  1  0  0  0  0
 30 51  1  0  0  0  0
 32  2  1  0  0  0  0
 33  2  1  0  0  0  0
 35  9  1  0  0  0  0
 39 14  1  0  0  0  0
 40 17  1  0  0  0  0
 41 21  1  0  0  0  0
 42 24  1  0  0  0  0
 44 25  1  0  0  0  0
 45 25  1  0  0  0  0
 49 29  1  0  0  0  0
 50 30  1  0  0  0  0
M  RAD  2   5   2  20   2
M  END
$$$$
