52

O          1.16040       -1.55550       -0.33190
C          2.44760       -1.10510        0.01310
C          2.49960       -0.49580        1.38790
S          1.33130       -0.98510        2.60450
C          2.11980        0.07310        3.72060
C          3.18800        0.71070        3.12620
N          3.37240        0.36880        1.79970
C          4.09560        1.68650        3.75870
C          5.13340        2.24130        3.00190
C          6.02730        3.17440        3.55450
C          5.87690        3.56100        4.89720
C          4.83870        3.00400        5.64850
C          3.95290        2.07880        5.10190
N          7.02570        3.65870        2.69570
C          8.03980        4.55530        2.89210
N          8.20920        5.12770        4.07520
C          9.23080        5.99870        4.21230
N         10.10430        6.36200        3.30450
C          9.95920        5.79460        2.07070
C          8.91910        4.86410        1.78860
C          8.81860        4.33130        0.48010
C          9.71190        4.67940       -0.51130
O          9.61320        4.09560       -1.73550
C          9.24600        4.93750       -2.83330
C          9.26100        4.09480       -4.09040
C         10.77440        5.60110       -0.22110
C         10.87530        6.14630        1.04720
O         11.62180        5.83960       -1.24580
C         12.70700        6.74870       -1.08190
C         12.27660        8.20150       -1.21360
H          0.57200       -0.78880       -0.36700
H          2.86920       -0.37050       -0.69910
H          3.10380       -1.99140       -0.01520
H          1.75440        0.17880        4.73890
H          5.23320        1.92790        1.96050
H          6.56910        4.28150        5.32240
H          4.72450        3.30600        6.69250
H          3.15440        1.66380        5.71880
H          6.98310        3.26020        1.76780
H          9.33130        6.44760        5.20850
H          8.04280        3.61870        0.19250
H          9.95290        5.77820       -2.91440
H          8.23850        5.35420       -2.64430
H         10.26950        3.69170       -4.26840
H          8.96690        4.70130       -4.96100
H          8.56290        3.24830       -4.00100
H         11.65550        6.85380        1.32010
H         13.41410        6.48290       -1.88130
H         13.21210        6.56070       -0.11920
H         11.56230        8.48910       -0.42830
H         11.80140        8.37490       -2.19130
H         13.15450        8.86200       -1.13500
