
     RDKit          3D

 52 55  0  0  0  0  0  0  0  0999 V2000
    0.3693    0.5597   -0.3755 O   0  0  0  0  0  0  0  0  0  0  0  0
    1.7276    0.3105   -0.1090 C   0  0  0  0  0  0  0  0  0  0  0  0
    1.9787   -0.0444    1.3315 C   0  0  0  0  0  0  0  0  0  0  0  0
    0.8665    0.5116    2.5728 S   0  0  0  0  0  0  0  0  0  0  0  0
    1.8804   -0.2405    3.7526 C   0  0  0  0  0  0  0  0  0  0  0  0
    2.9665   -0.8458    3.1562 C   0  0  0  0  0  0  0  0  0  0  0  0
    2.9889   -0.7199    1.7805 N   0  0  0  0  0  0  0  0  0  0  0  0
    4.0452   -1.5883    3.8356 C   0  0  0  0  0  0  0  0  0  0  0  0
    5.0663   -2.1676    3.0673 C   0  0  0  0  0  0  0  0  0  0  0  0
    6.1108   -2.8800    3.6703 C   0  0  0  0  0  0  0  0  0  0  0  0
    6.1342   -3.0192    5.0680 C   0  0  0  0  0  0  0  0  0  0  0  0
    5.1293   -2.4291    5.8355 C   0  0  0  0  0  0  0  0  0  0  0  0
    4.0906   -1.7190    5.2348 C   0  0  0  0  0  0  0  0  0  0  0  0
    7.0973   -3.4606    2.8456 N   0  0  0  0  0  0  0  0  0  0  0  0
    8.3826   -3.8103    3.2209 C   0  0  0  0  0  0  0  0  0  0  0  0
    8.8320   -4.9678    2.7545 N   0  0  0  0  0  0  0  0  0  0  0  0
   10.0727   -5.3475    3.1195 C   0  0  0  0  0  0  0  0  0  0  0  0
   10.8952   -4.7118    3.9247 N   0  0  0  0  0  0  0  0  0  0  0  0
   10.4800   -3.4942    4.3710 C   0  0  0  0  0  0  0  0  0  0  0  0
    9.2151   -2.9500    4.0074 C   0  0  0  0  0  0  0  0  0  0  0  0
    8.8853   -1.6232    4.3952 C   0  0  0  0  0  0  0  0  0  0  0  0
    9.7493   -0.8771    5.1696 C   0  0  0  0  0  0  0  0  0  0  0  0
    9.5499    0.3976    5.5637 O   0  0  0  0  0  0  0  0  0  0  0  0
    8.3759    1.0925    5.1603 C   0  0  0  0  0  0  0  0  0  0  0  0
    7.1591    0.7435    6.0048 C   0  0  0  0  0  0  0  0  0  0  0  0
   11.0015   -1.4536    5.6022 C   0  0  0  0  0  0  0  0  0  0  0  0
   11.3460   -2.7277    5.1965 C   0  0  0  0  0  0  0  0  0  0  0  0
   11.7582   -0.6402    6.3625 O   0  0  0  0  0  0  0  0  0  0  0  0
   13.0029   -1.0985    6.8779 C   0  0  0  0  0  0  0  0  0  0  0  0
   12.8361   -1.9824    8.1051 C   0  0  0  0  0  0  0  0  0  0  0  0
   -0.1207   -0.2636   -0.2439 H   0  0  0  0  0  0  0  0  0  0  0  0
    2.2675    1.2417   -0.3506 H   0  0  0  0  0  0  0  0  0  0  0  0
    2.1673   -0.4872   -0.7371 H   0  0  0  0  0  0  0  0  0  0  0  0
    1.6195   -0.2126    4.8075 H   0  0  0  0  0  0  0  0  0  0  0  0
    5.0429   -2.0454    1.9841 H   0  0  0  0  0  0  0  0  0  0  0  0
    6.9343   -3.5846    5.5460 H   0  0  0  0  0  0  0  0  0  0  0  0
    5.1542   -2.5352    6.9226 H   0  0  0  0  0  0  0  0  0  0  0  0
    3.3175   -1.2674    5.8581 H   0  0  0  0  0  0  0  0  0  0  0  0
    6.7480   -4.0537    2.0975 H   0  0  0  0  0  0  0  0  0  0  0  0
   10.4155   -6.3057    2.7095 H   0  0  0  0  0  0  0  0  0  0  0  0
    7.9447   -1.1946    4.0645 H   0  0  0  0  0  0  0  0  0  0  0  0
    8.1831    0.9189    4.0866 H   0  0  0  0  0  0  0  0  0  0  0  0
    8.6303    2.1561    5.2791 H   0  0  0  0  0  0  0  0  0  0  0  0
    6.8608   -0.3073    5.8893 H   0  0  0  0  0  0  0  0  0  0  0  0
    6.3034    1.3683    5.7038 H   0  0  0  0  0  0  0  0  0  0  0  0
    7.3688    0.9298    7.0692 H   0  0  0  0  0  0  0  0  0  0  0  0
   12.2931   -3.1887    5.4688 H   0  0  0  0  0  0  0  0  0  0  0  0
   13.5489   -0.1802    7.1397 H   0  0  0  0  0  0  0  0  0  0  0  0
   13.5782   -1.6090    6.0860 H   0  0  0  0  0  0  0  0  0  0  0  0
   12.2992   -2.9128    7.8691 H   0  0  0  0  0  0  0  0  0  0  0  0
   12.2722   -1.4484    8.8849 H   0  0  0  0  0  0  0  0  0  0  0  0
   13.8235   -2.2513    8.5125 H   0  0  0  0  0  0  0  0  0  0  0  0
  1  2  1  0
  1 31  1  0
  2  3  1  0
  2 32  1  0
  2 33  1  0
  3  4  1  0
  3  7  2  0
  4  5  1  0
  5  6  2  0
  5 34  1  0
  6  7  1  0
  6  8  1  0
  8  9  2  0
  8 13  1  0
  9 10  1  0
  9 35  1  0
 10 11  2  0
 10 14  1  0
 11 12  1  0
 11 36  1  0
 12 13  2  0
 12 37  1  0
 13 38  1  0
 14 15  1  0
 14 39  1  0
 15 16  2  0
 15 20  1  0
 16 17  1  0
 17 18  2  0
 17 40  1  0
 18 19  1  0
 19 20  2  0
 19 27  1  0
 20 21  1  0
 21 22  2  0
 21 41  1  0
 22 23  1  0
 22 26  1  0
 23 24  1  0
 24 25  1  0
 24 42  1  0
 24 43  1  0
 25 44  1  0
 25 45  1  0
 25 46  1  0
 26 27  2  0
 26 28  1  0
 27 47  1  0
 28 29  1  0
 29 30  1  0
 29 48  1  0
 29 49  1  0
 30 50  1  0
 30 51  1  0
 30 52  1  0
M  END

