52
rmsd133.gzmat
O          0.00000        0.00000        0.00000
C          1.40890        0.00000        0.00000
C          1.93590        0.00000        1.39470
S          1.36420        1.09300        2.67290
C          2.48830        0.37700        3.77420
C          3.20790       -0.61610        3.15190
N          2.88280       -0.81040        1.80270
C          4.24040       -1.45770        3.74830
C          5.21030       -2.04770        2.93650
C          6.20590       -2.84130        3.52090
C          6.22650       -3.05240        4.90630
C          5.24880       -2.46290        5.70110
C          4.25670       -1.66950        5.13180
N          7.17550       -3.40770        2.64910
C          8.43920       -3.76870        3.12580
N          8.89630       -4.95300        2.67680
C         10.14630       -5.34770        3.06770
N         10.93560       -4.67170        3.89780
C         10.50020       -3.44730        4.34610
C          9.24540       -2.91580        3.94960
C          8.89450       -1.59650        4.33470
C          9.71850       -0.87410        5.15290
O          9.52560        0.39660        5.58190
C          8.34620        1.07510        5.15110
C          7.14620        0.64510        5.97720
C         10.95880       -1.45210        5.63000
C         11.34170       -2.70230        5.21870
O         11.64530       -0.62880        6.44800
C         12.85310       -1.11550        7.03690
C         12.53950       -2.05020        8.19240
H         -0.34640       -0.85410        0.33970
H          1.66470        0.93520       -0.54600
H          1.79050       -0.86750       -0.58160
H          2.58120        0.69810        4.79560
H          5.19140       -1.88810        1.85540
H          6.99770       -3.67490        5.35840
H          5.25630       -2.63130        6.77810
H          3.48890       -1.22720        5.76200
H          6.79920       -4.00130        1.90200
H         10.49700       -6.31420        2.67330
H          7.97000       -1.16920        3.94420
H          8.19110        0.95010        4.06580
H          8.64010        2.12470        5.35690
H          6.87990       -0.40680        5.80090
H          6.26430        1.25120        5.74410
H          7.35020        0.74300        7.05110
H         12.28030       -3.16250        5.52490
H         13.30360       -0.16030        7.37630
H         13.50670       -1.57140        6.27360
H         12.03840       -2.96730        7.85320
H         11.86650       -1.57260        8.91760
H         13.44930       -2.34730        8.72550
