
     RDKit          3D

 52 55  0  0  0  0  0  0  0  0999 V2000
    1.1604   -1.5555   -0.3319 O   0  0  0  0  0  0  0  0  0  0  0  0
    2.4476   -1.1051    0.0131 C   0  0  0  0  0  0  0  0  0  0  0  0
    2.4996   -0.4958    1.3879 C   0  0  0  0  0  0  0  0  0  0  0  0
    1.3313   -0.9851    2.6045 S   0  0  0  0  0  0  0  0  0  0  0  0
    2.1198    0.0731    3.7206 C   0  0  0  0  0  0  0  0  0  0  0  0
    3.1880    0.7107    3.1262 C   0  0  0  0  0  0  0  0  0  0  0  0
    3.3724    0.3688    1.7997 N   0  0  0  0  0  0  0  0  0  0  0  0
    4.0956    1.6865    3.7587 C   0  0  0  0  0  0  0  0  0  0  0  0
    5.1334    2.2413    3.0019 C   0  0  0  0  0  0  0  0  0  0  0  0
    6.0273    3.1744    3.5545 C   0  0  0  0  0  0  0  0  0  0  0  0
    5.8769    3.5610    4.8972 C   0  0  0  0  0  0  0  0  0  0  0  0
    4.8387    3.0040    5.6485 C   0  0  0  0  0  0  0  0  0  0  0  0
    3.9529    2.0788    5.1019 C   0  0  0  0  0  0  0  0  0  0  0  0
    7.0257    3.6587    2.6957 N   0  0  0  0  0  0  0  0  0  0  0  0
    8.0398    4.5553    2.8921 C   0  0  0  0  0  0  0  0  0  0  0  0
    8.2092    5.1277    4.0752 N   0  0  0  0  0  0  0  0  0  0  0  0
    9.2308    5.9987    4.2123 C   0  0  0  0  0  0  0  0  0  0  0  0
   10.1043    6.3620    3.3045 N   0  0  0  0  0  0  0  0  0  0  0  0
    9.9592    5.7946    2.0707 C   0  0  0  0  0  0  0  0  0  0  0  0
    8.9191    4.8641    1.7886 C   0  0  0  0  0  0  0  0  0  0  0  0
    8.8186    4.3313    0.4801 C   0  0  0  0  0  0  0  0  0  0  0  0
    9.7119    4.6794   -0.5113 C   0  0  0  0  0  0  0  0  0  0  0  0
    9.6132    4.0956   -1.7355 O   0  0  0  0  0  0  0  0  0  0  0  0
    9.2460    4.9375   -2.8333 C   0  0  0  0  0  0  0  0  0  0  0  0
    9.2610    4.0948   -4.0904 C   0  0  0  0  0  0  0  0  0  0  0  0
   10.7744    5.6011   -0.2211 C   0  0  0  0  0  0  0  0  0  0  0  0
   10.8753    6.1463    1.0472 C   0  0  0  0  0  0  0  0  0  0  0  0
   11.6218    5.8396   -1.2458 O   0  0  0  0  0  0  0  0  0  0  0  0
   12.7070    6.7487   -1.0819 C   0  0  0  0  0  0  0  0  0  0  0  0
   12.2766    8.2015   -1.2136 C   0  0  0  0  0  0  0  0  0  0  0  0
    0.5720   -0.7888   -0.3670 H   0  0  0  0  0  0  0  0  0  0  0  0
    2.8692   -0.3705   -0.6991 H   0  0  0  0  0  0  0  0  0  0  0  0
    3.1038   -1.9914   -0.0152 H   0  0  0  0  0  0  0  0  0  0  0  0
    1.7544    0.1788    4.7389 H   0  0  0  0  0  0  0  0  0  0  0  0
    5.2332    1.9279    1.9605 H   0  0  0  0  0  0  0  0  0  0  0  0
    6.5691    4.2815    5.3224 H   0  0  0  0  0  0  0  0  0  0  0  0
    4.7245    3.3060    6.6925 H   0  0  0  0  0  0  0  0  0  0  0  0
    3.1544    1.6638    5.7188 H   0  0  0  0  0  0  0  0  0  0  0  0
    6.9831    3.2602    1.7678 H   0  0  0  0  0  0  0  0  0  0  0  0
    9.3313    6.4476    5.2085 H   0  0  0  0  0  0  0  0  0  0  0  0
    8.0428    3.6187    0.1925 H   0  0  0  0  0  0  0  0  0  0  0  0
    9.9529    5.7782   -2.9144 H   0  0  0  0  0  0  0  0  0  0  0  0
    8.2385    5.3542   -2.6443 H   0  0  0  0  0  0  0  0  0  0  0  0
   10.2695    3.6917   -4.2684 H   0  0  0  0  0  0  0  0  0  0  0  0
    8.9669    4.7013   -4.9610 H   0  0  0  0  0  0  0  0  0  0  0  0
    8.5629    3.2483   -4.0010 H   0  0  0  0  0  0  0  0  0  0  0  0
   11.6555    6.8538    1.3201 H   0  0  0  0  0  0  0  0  0  0  0  0
   13.4141    6.4829   -1.8813 H   0  0  0  0  0  0  0  0  0  0  0  0
   13.2121    6.5607   -0.1192 H   0  0  0  0  0  0  0  0  0  0  0  0
   11.5623    8.4891   -0.4283 H   0  0  0  0  0  0  0  0  0  0  0  0
   11.8014    8.3749   -2.1913 H   0  0  0  0  0  0  0  0  0  0  0  0
   13.1545    8.8620   -1.1350 H   0  0  0  0  0  0  0  0  0  0  0  0
  1  2  1  0
  1 31  1  0
  2  3  1  0
  2 32  1  0
  2 33  1  0
  3  4  1  0
  3  7  2  0
  4  5  1  0
  5  6  2  0
  5 34  1  0
  6  7  1  0
  6  8  1  0
  8  9  2  0
  8 13  1  0
  9 10  1  0
  9 35  1  0
 10 11  2  0
 10 14  1  0
 11 12  1  0
 11 36  1  0
 12 13  2  0
 12 37  1  0
 13 38  1  0
 14 15  1  0
 14 39  1  0
 15 16  2  0
 15 20  1  0
 16 17  1  0
 17 18  2  0
 17 40  1  0
 18 19  1  0
 19 20  2  0
 19 27  1  0
 20 21  1  0
 21 22  2  0
 21 41  1  0
 22 23  1  0
 22 26  1  0
 23 24  1  0
 24 25  1  0
 24 42  1  0
 24 43  1  0
 25 44  1  0
 25 45  1  0
 25 46  1  0
 26 27  2  0
 26 28  1  0
 27 47  1  0
 28 29  1  0
 29 30  1  0
 29 48  1  0
 29 49  1  0
 30 50  1  0
 30 51  1  0
 30 52  1  0
M  END

