
     RDKit          3D

 52 55  0  0  0  0  0  0  0  0999 V2000
    0.9484   -1.4700   -0.0479 O   0  0  0  0  0  0  0  0  0  0  0  0
    1.8430   -0.4057    0.0759 C   0  0  0  0  0  0  0  0  0  0  0  0
    1.9777    0.0247    1.5150 C   0  0  0  0  0  0  0  0  0  0  0  0
    2.7393    1.5097    2.0334 S   0  0  0  0  0  0  0  0  0  0  0  0
    2.4640    1.0362    3.6758 C   0  0  0  0  0  0  0  0  0  0  0  0
    1.8265   -0.1830    3.7328 C   0  0  0  0  0  0  0  0  0  0  0  0
    1.5685   -0.7293    2.4885 N   0  0  0  0  0  0  0  0  0  0  0  0
    1.4184   -0.9067    4.9514 C   0  0  0  0  0  0  0  0  0  0  0  0
    0.7055   -2.1089    4.8331 C   0  0  0  0  0  0  0  0  0  0  0  0
    0.2978   -2.8250    5.9663 C   0  0  0  0  0  0  0  0  0  0  0  0
    0.6079   -2.3282    7.2432 C   0  0  0  0  0  0  0  0  0  0  0  0
    1.3333   -1.1424    7.3636 C   0  0  0  0  0  0  0  0  0  0  0  0
    1.7391   -0.4312    6.2354 C   0  0  0  0  0  0  0  0  0  0  0  0
   -0.4365   -4.0148    5.7850 N   0  0  0  0  0  0  0  0  0  0  0  0
   -0.5651   -5.0484    6.6981 C   0  0  0  0  0  0  0  0  0  0  0  0
   -1.7777   -5.5704    6.8211 N   0  0  0  0  0  0  0  0  0  0  0  0
   -1.9405   -6.5642    7.7172 C   0  0  0  0  0  0  0  0  0  0  0  0
   -1.0306   -7.0650    8.5237 N   0  0  0  0  0  0  0  0  0  0  0  0
    0.2349   -6.5848    8.3770 C   0  0  0  0  0  0  0  0  0  0  0  0
    0.5519   -5.5780    7.4207 C   0  0  0  0  0  0  0  0  0  0  0  0
    1.9082   -5.2036    7.2204 C   0  0  0  0  0  0  0  0  0  0  0  0
    2.9151   -5.7594    7.9819 C   0  0  0  0  0  0  0  0  0  0  0  0
    4.2326   -5.5005    7.8524 O   0  0  0  0  0  0  0  0  0  0  0  0
    4.6865   -4.5984    6.8505 C   0  0  0  0  0  0  0  0  0  0  0  0
    4.5371   -3.1388    7.2540 C   0  0  0  0  0  0  0  0  0  0  0  0
    2.5883   -6.7275    9.0036 C   0  0  0  0  0  0  0  0  0  0  0  0
    1.2775   -7.1252    9.1770 C   0  0  0  0  0  0  0  0  0  0  0  0
    3.6474   -7.1930    9.6914 O   0  0  0  0  0  0  0  0  0  0  0  0
    3.4585   -8.1304   10.7456 C   0  0  0  0  0  0  0  0  0  0  0  0
    2.9941   -7.4709   12.0357 C   0  0  0  0  0  0  0  0  0  0  0  0
    0.8737   -1.8634    0.8376 H   0  0  0  0  0  0  0  0  0  0  0  0
    1.4999    0.4467   -0.5382 H   0  0  0  0  0  0  0  0  0  0  0  0
    2.8563   -0.6710   -0.2975 H   0  0  0  0  0  0  0  0  0  0  0  0
    2.7697    1.6807    4.4958 H   0  0  0  0  0  0  0  0  0  0  0  0
    0.4757   -2.4938    3.8396 H   0  0  0  0  0  0  0  0  0  0  0  0
    0.2825   -2.8689    8.1320 H   0  0  0  0  0  0  0  0  0  0  0  0
    1.5775   -0.7632    8.3586 H   0  0  0  0  0  0  0  0  0  0  0  0
    2.3078    0.4917    6.3579 H   0  0  0  0  0  0  0  0  0  0  0  0
   -1.2551   -3.9363    5.1872 H   0  0  0  0  0  0  0  0  0  0  0  0
   -2.9537   -6.9789    7.7874 H   0  0  0  0  0  0  0  0  0  0  0  0
    2.1475   -4.4791    6.4485 H   0  0  0  0  0  0  0  0  0  0  0  0
    4.1745   -4.8056    5.8939 H   0  0  0  0  0  0  0  0  0  0  0  0
    5.7488   -4.8495    6.7138 H   0  0  0  0  0  0  0  0  0  0  0  0
    3.4851   -2.8467    7.3742 H   0  0  0  0  0  0  0  0  0  0  0  0
    4.9777   -2.4899    6.4805 H   0  0  0  0  0  0  0  0  0  0  0  0
    5.0599   -2.9515    8.2043 H   0  0  0  0  0  0  0  0  0  0  0  0
    0.9894   -7.8761    9.9097 H   0  0  0  0  0  0  0  0  0  0  0  0
    4.4472   -8.5913   10.8861 H   0  0  0  0  0  0  0  0  0  0  0  0
    2.7658   -8.9281   10.4259 H   0  0  0  0  0  0  0  0  0  0  0  0
    2.0026   -7.0080   11.9247 H   0  0  0  0  0  0  0  0  0  0  0  0
    3.7062   -6.6895   12.3415 H   0  0  0  0  0  0  0  0  0  0  0  0
    2.9334   -8.2203   12.8407 H   0  0  0  0  0  0  0  0  0  0  0  0
  1  2  1  0
  1 31  1  0
  2  3  1  0
  2 32  1  0
  2 33  1  0
  3  4  1  0
  3  7  2  0
  4  5  1  0
  5  6  2  0
  5 34  1  0
  6  7  1  0
  6  8  1  0
  8  9  2  0
  8 13  1  0
  9 10  1  0
  9 35  1  0
 10 11  2  0
 10 14  1  0
 11 12  1  0
 11 36  1  0
 12 13  2  0
 12 37  1  0
 13 38  1  0
 14 15  1  0
 14 39  1  0
 15 16  2  0
 15 20  1  0
 16 17  1  0
 17 18  2  0
 17 40  1  0
 18 19  1  0
 19 20  2  0
 19 27  1  0
 20 21  1  0
 21 22  2  0
 21 41  1  0
 22 23  1  0
 22 26  1  0
 23 24  1  0
 24 25  1  0
 24 42  1  0
 24 43  1  0
 25 44  1  0
 25 45  1  0
 25 46  1  0
 26 27  2  0
 26 28  1  0
 27 47  1  0
 28 29  1  0
 29 30  1  0
 29 48  1  0
 29 49  1  0
 30 50  1  0
 30 51  1  0
 30 52  1  0
M  END

