
     RDKit          3D

 52 55  0  0  0  0  0  0  0  0999 V2000
   -0.8479   -0.3402    0.6466 O   0  0  0  0  0  0  0  0  0  0  0  0
    0.3522    0.3553    0.4648 C   0  0  0  0  0  0  0  0  0  0  0  0
    1.1383    0.3965    1.7510 C   0  0  0  0  0  0  0  0  0  0  0  0
    2.3598    1.5794    2.1465 S   0  0  0  0  0  0  0  0  0  0  0  0
    2.5652    0.8063    3.6834 C   0  0  0  0  0  0  0  0  0  0  0  0
    1.7127   -0.2675    3.8004 C   0  0  0  0  0  0  0  0  0  0  0  0
    0.9301   -0.4835    2.6840 N   0  0  0  0  0  0  0  0  0  0  0  0
    1.5342   -1.1283    4.9823 C   0  0  0  0  0  0  0  0  0  0  0  0
    1.7557   -0.6286    6.2743 C   0  0  0  0  0  0  0  0  0  0  0  0
    1.4738   -1.4072    7.4000 C   0  0  0  0  0  0  0  0  0  0  0  0
    1.0169   -2.7230    7.2399 C   0  0  0  0  0  0  0  0  0  0  0  0
    0.8070   -3.2312    5.9570 C   0  0  0  0  0  0  0  0  0  0  0  0
    1.0475   -2.4386    4.8342 C   0  0  0  0  0  0  0  0  0  0  0  0
    1.5658   -0.8210    8.6901 N   0  0  0  0  0  0  0  0  0  0  0  0
    0.5389   -0.7374    9.6081 C   0  0  0  0  0  0  0  0  0  0  0  0
    0.9251   -0.6810   10.8777 N   0  0  0  0  0  0  0  0  0  0  0  0
   -0.0290   -0.5787   11.8220 C   0  0  0  0  0  0  0  0  0  0  0  0
   -1.3292   -0.5441   11.6399 N   0  0  0  0  0  0  0  0  0  0  0  0
   -1.7555   -0.5738   10.3458 C   0  0  0  0  0  0  0  0  0  0  0  0
   -0.8509   -0.6552    9.2458 C   0  0  0  0  0  0  0  0  0  0  0  0
   -1.3749   -0.6119    7.9224 C   0  0  0  0  0  0  0  0  0  0  0  0
   -2.7324   -0.5418    7.6879 C   0  0  0  0  0  0  0  0  0  0  0  0
   -3.3148   -0.5351    6.4700 O   0  0  0  0  0  0  0  0  0  0  0  0
   -2.5394   -0.7704    5.2981 C   0  0  0  0  0  0  0  0  0  0  0  0
   -1.8914    0.4871    4.7378 C   0  0  0  0  0  0  0  0  0  0  0  0
   -3.6465   -0.4802    8.8010 C   0  0  0  0  0  0  0  0  0  0  0  0
   -3.1507   -0.4965   10.0897 C   0  0  0  0  0  0  0  0  0  0  0  0
   -4.9465   -0.3950    8.4598 O   0  0  0  0  0  0  0  0  0  0  0  0
   -5.9489   -0.3792    9.4692 C   0  0  0  0  0  0  0  0  0  0  0  0
   -6.2528   -1.7685   10.0103 C   0  0  0  0  0  0  0  0  0  0  0  0
   -0.6806   -0.9804    1.3582 H   0  0  0  0  0  0  0  0  0  0  0  0
    0.1309    1.3806    0.1234 H   0  0  0  0  0  0  0  0  0  0  0  0
    0.9893   -0.1092   -0.3192 H   0  0  0  0  0  0  0  0  0  0  0  0
    3.2951    1.1700    4.4028 H   0  0  0  0  0  0  0  0  0  0  0  0
    2.0590    0.4086    6.4252 H   0  0  0  0  0  0  0  0  0  0  0  0
    0.7918   -3.3212    8.1245 H   0  0  0  0  0  0  0  0  0  0  0  0
    0.4364   -4.2511    5.8318 H   0  0  0  0  0  0  0  0  0  0  0  0
    0.8513   -2.8183    3.8309 H   0  0  0  0  0  0  0  0  0  0  0  0
    2.4783   -0.7944    9.1378 H   0  0  0  0  0  0  0  0  0  0  0  0
    0.3326   -0.5308   12.8572 H   0  0  0  0  0  0  0  0  0  0  0  0
   -0.7020   -0.6234    7.0753 H   0  0  0  0  0  0  0  0  0  0  0  0
   -3.2577   -1.1748    4.5690 H   0  0  0  0  0  0  0  0  0  0  0  0
   -1.7869   -1.5542    5.4925 H   0  0  0  0  0  0  0  0  0  0  0  0
   -2.6483    1.2743    4.6005 H   0  0  0  0  0  0  0  0  0  0  0  0
   -1.4366    0.2648    3.7602 H   0  0  0  0  0  0  0  0  0  0  0  0
   -1.1036    0.8775    5.3990 H   0  0  0  0  0  0  0  0  0  0  0  0
   -3.7984   -0.4462   10.9624 H   0  0  0  0  0  0  0  0  0  0  0  0
   -6.8363    0.0397    8.9722 H   0  0  0  0  0  0  0  0  0  0  0  0
   -5.6650    0.3169   10.2777 H   0  0  0  0  0  0  0  0  0  0  0  0
   -5.3826   -2.2081   10.5193 H   0  0  0  0  0  0  0  0  0  0  0  0
   -6.5467   -2.4405    9.1897 H   0  0  0  0  0  0  0  0  0  0  0  0
   -7.0827   -1.7183   10.7330 H   0  0  0  0  0  0  0  0  0  0  0  0
  1  2  1  0
  1 31  1  0
  2  3  1  0
  2 32  1  0
  2 33  1  0
  3  4  1  0
  3  7  2  0
  4  5  1  0
  5  6  2  0
  5 34  1  0
  6  7  1  0
  6  8  1  0
  8  9  2  0
  8 13  1  0
  9 10  1  0
  9 35  1  0
 10 11  2  0
 10 14  1  0
 11 12  1  0
 11 36  1  0
 12 13  2  0
 12 37  1  0
 13 38  1  0
 14 15  1  0
 14 39  1  0
 15 16  2  0
 15 20  1  0
 16 17  1  0
 17 18  2  0
 17 40  1  0
 18 19  1  0
 19 20  2  0
 19 27  1  0
 20 21  1  0
 21 22  2  0
 21 41  1  0
 22 23  1  0
 22 26  1  0
 23 24  1  0
 24 25  1  0
 24 42  1  0
 24 43  1  0
 25 44  1  0
 25 45  1  0
 25 46  1  0
 26 27  2  0
 26 28  1  0
 27 47  1  0
 28 29  1  0
 29 30  1  0
 29 48  1  0
 29 49  1  0
 30 50  1  0
 30 51  1  0
 30 52  1  0
M  END

