52

O          0.36930        0.55970       -0.37550
C          1.72760        0.31050       -0.10900
C          1.97870       -0.04440        1.33150
S          0.86650        0.51160        2.57280
C          1.88040       -0.24050        3.75260
C          2.96650       -0.84580        3.15620
N          2.98890       -0.71990        1.78050
C          4.04520       -1.58830        3.83560
C          5.06630       -2.16760        3.06730
C          6.11080       -2.88000        3.67030
C          6.13420       -3.01920        5.06800
C          5.12930       -2.42910        5.83550
C          4.09060       -1.71900        5.23480
N          7.09730       -3.46060        2.84560
C          8.38260       -3.81030        3.22090
N          8.83200       -4.96780        2.75450
C         10.07270       -5.34750        3.11950
N         10.89520       -4.71180        3.92470
C         10.48000       -3.49420        4.37100
C          9.21510       -2.95000        4.00740
C          8.88530       -1.62320        4.39520
C          9.74930       -0.87710        5.16960
O          9.54990        0.39760        5.56370
C          8.37590        1.09250        5.16030
C          7.15910        0.74350        6.00480
C         11.00150       -1.45360        5.60220
C         11.34600       -2.72770        5.19650
O         11.75820       -0.64020        6.36250
C         13.00290       -1.09850        6.87790
C         12.83610       -1.98240        8.10510
H         -0.12070       -0.26360       -0.24390
H          2.26750        1.24170       -0.35060
H          2.16730       -0.48720       -0.73710
H          1.61950       -0.21260        4.80750
H          5.04290       -2.04540        1.98410
H          6.93430       -3.58460        5.54600
H          5.15420       -2.53520        6.92260
H          3.31750       -1.26740        5.85810
H          6.74800       -4.05370        2.09750
H         10.41550       -6.30570        2.70950
H          7.94470       -1.19460        4.06450
H          8.18310        0.91890        4.08660
H          8.63030        2.15610        5.27910
H          6.86080       -0.30730        5.88930
H          6.30340        1.36830        5.70380
H          7.36880        0.92980        7.06920
H         12.29310       -3.18870        5.46880
H         13.54890       -0.18020        7.13970
H         13.57820       -1.60900        6.08600
H         12.29920       -2.91280        7.86910
H         12.27220       -1.44840        8.88490
H         13.82350       -2.25130        8.51250
