
     RDKit          3D

 52 55  0  0  0  0  0  0  0  0999 V2000
    1.1373    1.5244   -0.0477 O   0  0  0  0  0  0  0  0  0  0  0  0
    1.8322    0.3218    0.0913 C   0  0  0  0  0  0  0  0  0  0  0  0
    1.8475   -0.1324    1.5293 C   0  0  0  0  0  0  0  0  0  0  0  0
    2.3287   -1.7280    2.0549 S   0  0  0  0  0  0  0  0  0  0  0  0
    2.0873   -1.2226    3.6932 C   0  0  0  0  0  0  0  0  0  0  0  0
    1.6652    0.0871    3.7437 C   0  0  0  0  0  0  0  0  0  0  0  0
    1.5426    0.6755    2.4978 N   0  0  0  0  0  0  0  0  0  0  0  0
    1.3488    0.8638    4.9568 C   0  0  0  0  0  0  0  0  0  0  0  0
    0.8574    2.1714    4.8293 C   0  0  0  0  0  0  0  0  0  0  0  0
    0.5430    2.9414    5.9570 C   0  0  0  0  0  0  0  0  0  0  0  0
    0.7223    2.3923    7.2375 C   0  0  0  0  0  0  0  0  0  0  0  0
    1.2285    1.0985    7.3676 C   0  0  0  0  0  0  0  0  0  0  0  0
    1.5416    0.3337    6.2450 C   0  0  0  0  0  0  0  0  0  0  0  0
    0.0292    4.2401    5.7652 N   0  0  0  0  0  0  0  0  0  0  0  0
    0.0473    5.2765    6.6837 C   0  0  0  0  0  0  0  0  0  0  0  0
   -1.0618    5.9982    6.7695 N   0  0  0  0  0  0  0  0  0  0  0  0
   -1.0841    7.0023    7.6685 C   0  0  0  0  0  0  0  0  0  0  0  0
   -0.1313    7.3377    8.5102 N   0  0  0  0  0  0  0  0  0  0  0  0
    1.0373    6.6470    8.4044 C   0  0  0  0  0  0  0  0  0  0  0  0
    1.2116    5.6039    7.4503 C   0  0  0  0  0  0  0  0  0  0  0  0
    2.4908    5.0054    7.2919 C   0  0  0  0  0  0  0  0  0  0  0  0
    3.5507    5.3807    8.0911 C   0  0  0  0  0  0  0  0  0  0  0  0
    4.8092    4.9029    8.0031 O   0  0  0  0  0  0  0  0  0  0  0  0
    5.1363    3.9347    7.0135 C   0  0  0  0  0  0  0  0  0  0  0  0
    4.7266    2.5227    7.4060 C   0  0  0  0  0  0  0  0  0  0  0  0
    3.3571    6.3846    9.1121 C   0  0  0  0  0  0  0  0  0  0  0  0
    2.1286    7.0014    9.2426 C   0  0  0  0  0  0  0  0  0  0  0  0
    4.4466    6.6380    9.8605 O   0  0  0  0  0  0  0  0  0  0  0  0
    4.4101    7.6586   10.8519 C   0  0  0  0  0  0  0  0  0  0  0  0
    4.5878    9.0496   10.2617 C   0  0  0  0  0  0  0  0  0  0  0  0
    1.1022    1.9191    0.8397 H   0  0  0  0  0  0  0  0  0  0  0  0
    2.8868    0.4113   -0.2499 H   0  0  0  0  0  0  0  0  0  0  0  0
    1.3671   -0.4562   -0.5410 H   0  0  0  0  0  0  0  0  0  0  0  0
    2.2536   -1.9138    4.5153 H   0  0  0  0  0  0  0  0  0  0  0  0
    0.7289    2.5951    3.8334 H   0  0  0  0  0  0  0  0  0  0  0  0
    0.4666    2.9764    8.1216 H   0  0  0  0  0  0  0  0  0  0  0  0
    1.3719    0.6779    8.3656 H   0  0  0  0  0  0  0  0  0  0  0  0
    1.9384   -0.6741    6.3752 H   0  0  0  0  0  0  0  0  0  0  0  0
   -0.7693    4.3058    5.1393 H   0  0  0  0  0  0  0  0  0  0  0  0
   -2.0133    7.5843    7.7072 H   0  0  0  0  0  0  0  0  0  0  0  0
    2.6305    4.2529    6.5224 H   0  0  0  0  0  0  0  0  0  0  0  0
    6.2298    4.0007    6.9138 H   0  0  0  0  0  0  0  0  0  0  0  0
    4.6999    4.2244    6.0409 H   0  0  0  0  0  0  0  0  0  0  0  0
    5.1764    2.2513    8.3732 H   0  0  0  0  0  0  0  0  0  0  0  0
    5.0768    1.8067    6.6457 H   0  0  0  0  0  0  0  0  0  0  0  0
    3.6366    2.4145    7.4885 H   0  0  0  0  0  0  0  0  0  0  0  0
    1.9491    7.7940    9.9656 H   0  0  0  0  0  0  0  0  0  0  0  0
    5.2458    7.4198   11.5261 H   0  0  0  0  0  0  0  0  0  0  0  0
    3.4796    7.5836   11.4411 H   0  0  0  0  0  0  0  0  0  0  0  0
    3.7612    9.3166    9.5872 H   0  0  0  0  0  0  0  0  0  0  0  0
    5.5275    9.1036    9.6913 H   0  0  0  0  0  0  0  0  0  0  0  0
    4.6268    9.7987   11.0683 H   0  0  0  0  0  0  0  0  0  0  0  0
  1  2  1  0
  1 31  1  0
  2  3  1  0
  2 32  1  0
  2 33  1  0
  3  4  1  0
  3  7  2  0
  4  5  1  0
  5  6  2  0
  5 34  1  0
  6  7  1  0
  6  8  1  0
  8  9  2  0
  8 13  1  0
  9 10  1  0
  9 35  1  0
 10 11  2  0
 10 14  1  0
 11 12  1  0
 11 36  1  0
 12 13  2  0
 12 37  1  0
 13 38  1  0
 14 15  1  0
 14 39  1  0
 15 16  2  0
 15 20  1  0
 16 17  1  0
 17 18  2  0
 17 40  1  0
 18 19  1  0
 19 20  2  0
 19 27  1  0
 20 21  1  0
 21 22  2  0
 21 41  1  0
 22 23  1  0
 22 26  1  0
 23 24  1  0
 24 25  1  0
 24 42  1  0
 24 43  1  0
 25 44  1  0
 25 45  1  0
 25 46  1  0
 26 27  2  0
 26 28  1  0
 27 47  1  0
 28 29  1  0
 29 30  1  0
 29 48  1  0
 29 49  1  0
 30 50  1  0
 30 51  1  0
 30 52  1  0
M  END

