52

O          1.13730        1.52440       -0.04770
C          1.83220        0.32180        0.09130
C          1.84750       -0.13240        1.52930
S          2.32870       -1.72800        2.05490
C          2.08730       -1.22260        3.69320
C          1.66520        0.08710        3.74370
N          1.54260        0.67550        2.49780
C          1.34880        0.86380        4.95680
C          0.85740        2.17140        4.82930
C          0.54300        2.94140        5.95700
C          0.72230        2.39230        7.23750
C          1.22850        1.09850        7.36760
C          1.54160        0.33370        6.24500
N          0.02920        4.24010        5.76520
C          0.04730        5.27650        6.68370
N         -1.06180        5.99820        6.76950
C         -1.08410        7.00230        7.66850
N         -0.13130        7.33770        8.51020
C          1.03730        6.64700        8.40440
C          1.21160        5.60390        7.45030
C          2.49080        5.00540        7.29190
C          3.55070        5.38070        8.09110
O          4.80920        4.90290        8.00310
C          5.13630        3.93470        7.01350
C          4.72660        2.52270        7.40600
C          3.35710        6.38460        9.11210
C          2.12860        7.00140        9.24260
O          4.44660        6.63800        9.86050
C          4.41010        7.65860       10.85190
C          4.58780        9.04960       10.26170
H          1.10220        1.91910        0.83970
H          2.88680        0.41130       -0.24990
H          1.36710       -0.45620       -0.54100
H          2.25360       -1.91380        4.51530
H          0.72890        2.59510        3.83340
H          0.46660        2.97640        8.12160
H          1.37190        0.67790        8.36560
H          1.93840       -0.67410        6.37520
H         -0.76930        4.30580        5.13930
H         -2.01330        7.58430        7.70720
H          2.63050        4.25290        6.52240
H          6.22980        4.00070        6.91380
H          4.69990        4.22440        6.04090
H          5.17640        2.25130        8.37320
H          5.07680        1.80670        6.64570
H          3.63660        2.41450        7.48850
H          1.94910        7.79400        9.96560
H          5.24580        7.41980       11.52610
H          3.47960        7.58360       11.44110
H          3.76120        9.31660        9.58720
H          5.52750        9.10360        9.69130
H          4.62680        9.79870       11.06830
