
     RDKit          3D

 52 55  0  0  0  0  0  0  0  0999 V2000
    0.2864   -0.9024   -0.3453 O   0  0  0  0  0  0  0  0  0  0  0  0
    1.6470   -0.6208   -0.1284 C   0  0  0  0  0  0  0  0  0  0  0  0
    2.0454   -0.7787    1.3139 C   0  0  0  0  0  0  0  0  0  0  0  0
    0.8347   -0.6040    2.5758 S   0  0  0  0  0  0  0  0  0  0  0  0
    2.0811   -0.8669    3.7438 C   0  0  0  0  0  0  0  0  0  0  0  0
    3.2989   -1.0655    3.1283 C   0  0  0  0  0  0  0  0  0  0  0  0
    3.2431   -1.0115    1.7492 N   0  0  0  0  0  0  0  0  0  0  0  0
    4.5818   -1.3748    3.7856 C   0  0  0  0  0  0  0  0  0  0  0  0
    5.7279   -1.5646    2.9970 C   0  0  0  0  0  0  0  0  0  0  0  0
    6.9373   -1.9608    3.5735 C   0  0  0  0  0  0  0  0  0  0  0  0
    7.0274   -2.1308    4.9610 C   0  0  0  0  0  0  0  0  0  0  0  0
    5.8984   -1.9211    5.7560 C   0  0  0  0  0  0  0  0  0  0  0  0
    4.6843   -1.5534    5.1769 C   0  0  0  0  0  0  0  0  0  0  0  0
    8.0499   -2.2528    2.7339 N   0  0  0  0  0  0  0  0  0  0  0  0
    8.6909   -3.4709    2.6566 C   0  0  0  0  0  0  0  0  0  0  0  0
    9.9750   -3.4182    2.3201 N   0  0  0  0  0  0  0  0  0  0  0  0
   10.6444   -4.5815    2.2100 C   0  0  0  0  0  0  0  0  0  0  0  0
   10.1791   -5.7934    2.4122 N   0  0  0  0  0  0  0  0  0  0  0  0
    8.8568   -5.8821    2.7310 C   0  0  0  0  0  0  0  0  0  0  0  0
    8.0275   -4.7303    2.8611 C   0  0  0  0  0  0  0  0  0  0  0  0
    6.6421   -4.9081    3.1262 C   0  0  0  0  0  0  0  0  0  0  0  0
    6.0961   -6.1623    3.2947 C   0  0  0  0  0  0  0  0  0  0  0  0
    4.7959   -6.4110    3.5711 O   0  0  0  0  0  0  0  0  0  0  0  0
    3.9050   -5.3279    3.8122 C   0  0  0  0  0  0  0  0  0  0  0  0
    3.3550   -4.7007    2.5381 C   0  0  0  0  0  0  0  0  0  0  0  0
    6.9377   -7.3264    3.1873 C   0  0  0  0  0  0  0  0  0  0  0  0
    8.2829   -7.1692    2.9131 C   0  0  0  0  0  0  0  0  0  0  0  0
    6.3013   -8.5021    3.3562 O   0  0  0  0  0  0  0  0  0  0  0  0
    7.0353   -9.7202    3.3245 C   0  0  0  0  0  0  0  0  0  0  0  0
    7.7588   -9.9994    4.6337 C   0  0  0  0  0  0  0  0  0  0  0  0
    0.1413   -1.8437   -0.1780 H   0  0  0  0  0  0  0  0  0  0  0  0
    1.8002    0.4289   -0.4308 H   0  0  0  0  0  0  0  0  0  0  0  0
    2.3343   -1.2348   -0.7403 H   0  0  0  0  0  0  0  0  0  0  0  0
    1.8526   -0.8763    4.8066 H   0  0  0  0  0  0  0  0  0  0  0  0
    5.6543   -1.4599    1.9151 H   0  0  0  0  0  0  0  0  0  0  0  0
    7.9734   -2.4498    5.4022 H   0  0  0  0  0  0  0  0  0  0  0  0
    5.9628   -2.0588    6.8377 H   0  0  0  0  0  0  0  0  0  0  0  0
    3.8079   -1.4198    5.8134 H   0  0  0  0  0  0  0  0  0  0  0  0
    8.6712   -1.4836    2.4959 H   0  0  0  0  0  0  0  0  0  0  0  0
   11.7017   -4.4934    1.9288 H   0  0  0  0  0  0  0  0  0  0  0  0
    5.9944   -4.0443    3.1844 H   0  0  0  0  0  0  0  0  0  0  0  0
    4.3926   -4.5688    4.4489 H   0  0  0  0  0  0  0  0  0  0  0  0
    3.0836   -5.7700    4.3962 H   0  0  0  0  0  0  0  0  0  0  0  0
    4.1352   -4.1981    1.9492 H   0  0  0  0  0  0  0  0  0  0  0  0
    2.5956   -3.9454    2.7948 H   0  0  0  0  0  0  0  0  0  0  0  0
    2.8864   -5.4709    1.9064 H   0  0  0  0  0  0  0  0  0  0  0  0
    8.9583   -8.0165    2.8149 H   0  0  0  0  0  0  0  0  0  0  0  0
    7.7325   -9.7231    2.4685 H   0  0  0  0  0  0  0  0  0  0  0  0
    6.2785  -10.4953    3.1336 H   0  0  0  0  0  0  0  0  0  0  0  0
    7.0432  -10.0059    5.4699 H   0  0  0  0  0  0  0  0  0  0  0  0
    8.5273   -9.2415    4.8452 H   0  0  0  0  0  0  0  0  0  0  0  0
    8.2517  -10.9835    4.5897 H   0  0  0  0  0  0  0  0  0  0  0  0
  1  2  1  0
  1 31  1  0
  2  3  1  0
  2 32  1  0
  2 33  1  0
  3  4  1  0
  3  7  2  0
  4  5  1  0
  5  6  2  0
  5 34  1  0
  6  7  1  0
  6  8  1  0
  8  9  2  0
  8 13  1  0
  9 10  1  0
  9 35  1  0
 10 11  2  0
 10 14  1  0
 11 12  1  0
 11 36  1  0
 12 13  2  0
 12 37  1  0
 13 38  1  0
 14 15  1  0
 14 39  1  0
 15 16  2  0
 15 20  1  0
 16 17  1  0
 17 18  2  0
 17 40  1  0
 18 19  1  0
 19 20  2  0
 19 27  1  0
 20 21  1  0
 21 22  2  0
 21 41  1  0
 22 23  1  0
 22 26  1  0
 23 24  1  0
 24 25  1  0
 24 42  1  0
 24 43  1  0
 25 44  1  0
 25 45  1  0
 25 46  1  0
 26 27  2  0
 26 28  1  0
 27 47  1  0
 28 29  1  0
 29 30  1  0
 29 48  1  0
 29 49  1  0
 30 50  1  0
 30 51  1  0
 30 52  1  0
M  END

