52
rmsd244.gzmat
O          0.00000        0.00000        0.00000
C          1.40990        0.00000        0.00000
C          1.93570        0.00000        1.39520
S          1.51590       -1.22080        2.61370
C          2.53010       -0.41470        3.75840
C          3.10990        0.69630        3.19190
N          2.76200        0.91120        1.85020
C          4.02220        1.63840        3.83410
C          4.86870        2.42210        3.05300
C          5.74570        3.33590        3.66660
C          5.77080        3.45140        5.05980
C          4.92090        2.65830        5.82650
C          4.04580        1.75750        5.22840
N          6.52460        4.11250        2.77570
C          7.60500        4.91550        3.06570
N          8.04150        5.03070        4.33310
C          9.11600        5.84140        4.57720
N          9.78180        6.53640        3.66240
C          9.36170        6.44010        2.35390
C          8.25540        5.63280        1.98540
C          7.85830        5.58890        0.62950
C          8.54970        6.30050       -0.32350
O          8.13700        6.09110       -1.60120
C          8.10880        7.20710       -2.48990
C          7.34070        8.38360       -1.91390
C          9.67930        7.10440        0.05280
C         10.06840        7.17840        1.36770
O         10.28250        7.71770       -0.98830
C         11.31140        8.67130       -0.71780
C         10.70810        9.98320       -0.24800
H         -0.34560        0.83410        0.38560
H          1.78760        0.87070       -0.57890
H          1.66400       -0.93220       -0.55060
H          2.66660       -0.77250        4.76300
H          4.83460        2.32130        1.96620
H          6.44470        4.15300        5.55810
H          4.94240        2.75090        6.91230
H          3.37940        1.15740        5.84140
H          6.28400        4.01100        1.78760
H          9.43800        5.90710        5.62870
H          7.00020        4.99560        0.31280
H          7.59100        6.74720       -3.35590
H          9.14180        7.46710       -2.78070
H          6.38670        8.05860       -1.47820
H          7.11970        9.13340       -2.68080
H          7.90940        8.88320       -1.11810
H         10.91470        7.77870        1.69950
H         11.77380        8.75390       -1.72220
H         12.05180        8.25630       -0.01250
H         10.13850        9.85840        0.68360
H         10.01660       10.39690       -0.99290
H         11.48260       10.73640       -0.06000
