rmsd132.gzmat
 OpenBabel08211713423D

 52 55  0  0  1  0  0  0  0  0999 V2000
    0.0000    0.0000    0.0000 O   0  0  0  0  0  0  0  0  0  0  0  0
    1.4085    0.0000    0.0000 C   0  0  0  0  0  0  0  0  0  0  0  0
    1.9634    0.0000    1.3845 C   0  0  0  0  0  0  0  0  0  0  0  0
    3.4810    0.7922    1.8629 S   0  0  0  0  0  0  0  0  0  0  0  0
    3.2451    0.2462    3.4899 C   0  0  0  0  0  0  0  0  0  0  0  0
    2.0787   -0.4720    3.5889 C   0  0  0  0  0  0  0  0  0  0  0  0
    1.3704   -0.6058    2.3851 N   0  0  0  0  0  0  0  0  0  0  0  0
    1.5350   -1.1018    4.7888 C   0  0  0  0  0  0  0  0  0  0  0  0
    1.7208   -0.4955    6.0325 C   0  0  0  0  0  0  0  0  0  0  0  0
    1.1950   -1.1109    7.1758 C   0  0  0  0  0  0  0  0  0  0  0  0
    0.5173   -2.3348    7.0819 C   0  0  0  0  0  0  0  0  0  0  0  0
    0.3276   -2.9166    5.8332 C   0  0  0  0  0  0  0  0  0  0  0  0
    0.8269   -2.3034    4.6869 C   0  0  0  0  0  0  0  0  0  0  0  0
    1.3587   -0.4325    8.4132 N   0  0  0  0  0  0  0  0  0  0  0  0
    0.4173   -0.5385    9.4365 C   0  0  0  0  0  0  0  0  0  0  0  0
    0.9533   -0.5416   10.6740 N   0  0  0  0  0  0  0  0  0  0  0  0
    0.1021   -0.5659   11.7431 C   0  0  0  0  0  0  0  0  0  0  0  0
   -1.2242   -0.6175   11.6622 N   0  0  0  0  0  0  0  0  0  0  0  0
   -1.7941   -0.5986   10.4112 C   0  0  0  0  0  0  0  0  0  0  0  0
   -1.0034   -0.5372    9.2333 C   0  0  1  0  0  0  0  0  0  0  0  0
   -1.6501   -0.4444    7.9747 C   0  0  0  0  0  0  0  0  0  0  0  0
   -3.0140   -0.4965    7.8846 C   0  0  0  0  0  0  0  0  0  0  0  0
   -3.7478   -0.4674    6.7463 O   0  0  0  0  0  0  0  0  0  0  0  0
   -3.0464   -0.4386    5.5013 C   0  0  0  0  0  0  0  0  0  0  0  0
   -2.5754    0.9692    5.1787 C   0  0  0  0  0  0  0  0  0  0  0  0
   -3.8171   -0.5962    9.0857 C   0  0  0  0  0  0  0  0  0  0  0  0
   -3.2136   -0.6343   10.3156 C   0  0  0  0  0  0  0  0  0  0  0  0
   -5.1420   -0.6165    8.8365 O   0  0  0  0  0  0  0  0  0  0  0  0
   -6.0369   -0.7495    9.9428 C   0  0  0  0  0  0  0  0  0  0  0  0
   -6.0891   -2.1916   10.4165 C   0  0  0  0  0  0  0  0  0  0  0  0
   -0.3473   -0.5792    0.7206 H   0  0  0  0  0  0  0  0  0  0  0  0
    1.6588    0.9152   -0.5784 H   0  0  0  0  0  0  0  0  0  0  0  0
    1.7542   -0.8952   -0.5655 H   0  0  0  0  0  0  0  0  0  0  0  0
    3.9454    0.4551    4.2790 H   0  0  0  0  0  0  0  0  0  0  0  0
    2.2405    0.4577    6.1152 H   0  0  0  0  0  0  0  0  0  0  0  0
    0.1299   -2.8183    7.9783 H   0  0  0  0  0  0  0  0  0  0  0  0
   -0.2152   -3.8587    5.7520 H   0  0  0  0  0  0  0  0  0  0  0  0
    0.6667   -2.7540    3.7067 H   0  0  0  0  0  0  0  0  0  0  0  0
    2.3253   -0.2729    8.7121 H   0  0  0  0  0  0  0  0  0  0  0  0
    0.5713   -0.5603   12.7392 H   0  0  0  0  0  0  0  0  0  0  0  0
   -1.0432   -0.3110    7.0788 H   0  0  0  0  0  0  0  0  0  0  0  0
   -3.8506   -0.7772    4.8167 H   0  0  0  0  0  0  0  0  0  0  0  0
   -2.2303   -1.1817    5.4904 H   0  0  0  0  0  0  0  0  0  0  0  0
   -3.4107    1.6811    5.2014 H   0  0  0  0  0  0  0  0  0  0  0  0
   -2.1174    1.0182    4.1833 H   0  0  0  0  0  0  0  0  0  0  0  0
   -1.8315    1.3307    5.9000 H   0  0  0  0  0  0  0  0  0  0  0  0
   -3.7766   -0.6880   11.2465 H   0  0  0  0  0  0  0  0  0  0  0  0
   -6.9851   -0.4294    9.4644 H   0  0  0  0  0  0  0  0  0  0  0  0
   -5.7772   -0.0377   10.7448 H   0  0  0  0  0  0  0  0  0  0  0  0
   -5.1361   -2.5131   10.8583 H   0  0  0  0  0  0  0  0  0  0  0  0
   -6.2977   -2.8752    9.5822 H   0  0  0  0  0  0  0  0  0  0  0  0
   -6.8706   -2.3378   11.1705 H   0  0  0  0  0  0  0  0  0  0  0  0
  1 31  1  0  0  0  0
  2  1  1  0  0  0  0
  2  3  1  0  0  0  0
  3  4  1  0  0  0  0
  3  7  2  0  0  0  0
  4  5  1  0  0  0  0
  5  6  1  0  0  0  0
  5 34  1  0  0  0  0
  6  8  1  0  0  0  0
  7  6  2  0  0  0  0
  8  9  1  0  0  0  0
  9 35  1  0  0  0  0
  9 10  2  0  0  0  0
 10 14  1  0  0  0  0
 11 10  1  0  0  0  0
 11 36  1  0  0  0  0
 12 11  2  0  0  0  0
 13  8  2  0  0  0  0
 13 12  1  0  0  0  0
 14 39  1  0  0  0  0
 14 15  1  0  0  0  0
 15 16  2  0  0  0  0
 16 17  2  0  0  0  0
 17 40  1  0  0  0  0
 18 17  2  0  0  0  0
 19 18  2  0  0  0  0
 20 21  1  1  0  0  0
 20 15  1  0  0  0  0
 20 19  1  0  0  0  0
 22 21  2  0  0  0  0
 22 26  1  0  0  0  0
 23 22  1  0  0  0  0
 24 23  1  0  0  0  0
 25 44  1  0  0  0  0
 25 24  1  0  0  0  0
 25 46  1  0  0  0  0
 26 27  2  0  0  0  0
 27 19  1  0  0  0  0
 27 47  1  0  0  0  0
 28 26  1  0  0  0  0
 28 29  1  0  0  0  0
 29 30  1  0  0  0  0
 29 49  1  0  0  0  0
 30 50  1  0  0  0  0
 30 52  1  0  0  0  0
 32  2  1  0  0  0  0
 33  2  1  0  0  0  0
 37 12  1  0  0  0  0
 38 13  1  0  0  0  0
 41 21  1  0  0  0  0
 42 24  1  0  0  0  0
 43 24  1  0  0  0  0
 45 25  1  0  0  0  0
 48 29  1  0  0  0  0
 51 30  1  0  0  0  0
M  RAD  2   5   2  20   2
M  END
$$$$
