37
rmsd166.gzmat
S          0.00000        0.00000        0.00000
O          1.44340        0.00000        0.00000
O         -0.73460        0.00000       -1.24120
C         -0.58740        1.28270        1.03730
C         -1.89860        1.73800        0.90810
C         -2.38180        2.73240        1.75230
C         -1.54150        3.26730        2.74000
C         -0.21520        2.82550        2.85830
C          0.25410        1.83520        2.00200
N         -2.03830        4.25350        3.62710
C         -3.40110        4.32700        4.07230
O         -4.26620        3.57960        3.72010
C         -3.45810        5.47680        5.01900
C         -4.51890        5.97500        5.73750
C         -4.27530        7.08570        6.56830
C         -3.01120        7.65410        6.65470
C         -1.92840        7.13770        5.91710
C         -2.17190        6.05200        5.10960
C         -1.24310        5.28650        4.22860
O         -0.07640        5.44740        4.01930
N         -0.51160       -1.38650        0.89940
C         -0.24310       -2.62790        0.80390
S          0.81970       -3.59160       -0.31590
C          0.39250       -5.09000        0.48380
C         -0.46890       -4.87520        1.50540
N         -0.82910       -3.53840        1.70070
H         -1.46740       -3.23380        2.41760
H         -2.56500        1.32540        0.13990
H         -3.40860        3.08100        1.64520
H          0.44870        3.24910        3.61130
H          1.29480        1.49930        2.09990
H         -5.51250        5.52980        5.67070
H         -5.09930        7.50010        7.15070
H         -2.84590        8.51500        7.30370
H         -0.93620        7.58460        5.98790
H          0.79660       -6.03180        0.16210
H         -0.89590       -5.62020        2.17070
