37

S          0.79750       -0.07620        0.14990
O          2.22830        0.20080        0.08000
O          0.01230       -0.28640       -1.08290
C          0.01700        1.24650        1.06500
C          0.76130        1.95750        2.00720
C          0.14420        2.96260        2.74810
C         -1.21070        3.26010        2.53030
C         -1.94370        2.54970        1.56670
C         -1.32850        1.53700        0.83440
N         -1.84060        4.28650        3.28190
C         -1.21180        5.50170        3.66590
O         -0.07690        5.82180        3.41580
C         -2.24150        6.26700        4.42480
C         -2.15870        7.51910        5.02100
C         -3.30140        7.99480        5.68050
C         -4.47780        7.23200        5.73300
C         -4.54950        5.96930        5.12690
C         -3.41180        5.50880        4.47590
C         -3.18170        4.22970        3.74600
O         -3.95340        3.31940        3.57210
N          0.58040       -1.36290        1.18380
C         -0.29340       -2.28400        0.92880
S         -1.39510       -2.51400       -0.46350
C         -2.05990       -3.96540        0.28190
C         -1.47230       -4.23970        1.46330
N         -0.50200       -3.31160        1.80660
H          0.04310       -3.33820        2.66140
H          1.81670        1.72130        2.14910
H          0.71500        3.52910        3.48100
H         -2.99230        2.78550        1.39720
H         -1.87810        0.98190        0.07310
H         -1.23640        8.10110        4.97260
H         -3.27760        8.97490        6.16230
H         -5.35090        7.63080        6.25440
H         -5.45820        5.36520        5.15880
H         -2.84300       -4.53640       -0.21150
H         -1.67480       -5.07330        2.13340
