rmsd197.gzmat
 OpenBabel08211713393D

 37 40  0  0  0  0  0  0  0  0999 V2000
    0.0000    0.0000    0.0000 S   0  0  0  0  0  0  0  0  0  0  0  0
    1.4436    0.0000    0.0000 O   0  0  0  0  0  0  0  0  0  0  0  0
   -0.7344    0.0000   -1.2413 O   0  0  0  0  0  0  0  0  0  0  0  0
   -0.5868    1.2865    1.0329 C   0  0  0  0  0  0  0  0  0  0  0  0
    0.2693    1.8792    1.9600 C   0  0  0  0  0  0  0  0  0  0  0  0
   -0.1944    2.8872    2.7987 C   0  0  0  0  0  0  0  0  0  0  0  0
   -1.5296    3.3062    2.7004 C   0  0  0  0  0  0  0  0  0  0  0  0
   -2.3896    2.7209    1.7594 C   0  0  0  0  0  0  0  0  0  0  0  0
   -1.9113    1.7103    0.9317 C   0  0  0  0  0  0  0  0  0  0  0  0
   -2.0124    4.3268    3.5558 N   0  0  0  0  0  0  0  0  0  0  0  0
   -1.2154    5.4080    4.0629 C   0  0  0  0  0  0  0  0  0  0  0  0
   -0.0545    5.5615    3.8182 O   0  0  0  0  0  0  0  0  0  0  0  0
   -2.1332    6.2285    4.9039 C   0  0  0  0  0  0  0  0  0  0  0  0
   -1.8851    7.3774    5.6169 C   0  0  0  0  0  0  0  0  0  0  0  0
   -2.9581    7.9407    6.3342 C   0  0  0  0  0  0  0  0  0  0  0  0
   -4.2172    7.3554    6.3200 C   0  0  0  0  0  0  0  0  0  0  0  0
   -4.4654    6.1794    5.5860 C   0  0  0  0  0  0  0  0  0  0  0  0
   -3.4140    5.6343    4.8880 C   0  0  0  0  0  0  0  0  0  0  0  0
   -3.3643    4.4160    4.0300 C   0  0  0  0  0  0  0  0  0  0  0  0
   -4.2267    3.6323    3.7587 O   0  0  0  0  0  0  0  0  0  0  0  0
   -0.5119   -1.3890    0.8955 N   0  0  0  0  0  0  0  0  0  0  0  0
   -0.1956   -2.6214    0.8274 C   0  0  0  0  0  0  0  0  0  0  0  0
    0.9719   -3.5529   -0.2123 S   0  0  0  0  0  0  0  0  0  0  0  0
    0.5377   -5.0628    0.5617 C   0  0  0  0  0  0  0  0  0  0  0  0
   -0.3953   -4.8729    1.5235 C   0  0  0  0  0  0  0  0  0  0  0  0
   -0.8081   -3.5472    1.6898 N   0  0  0  0  0  0  0  0  0  0  0  0
   -1.5014   -3.2618    2.3620 H   0  0  0  0  0  0  0  0  0  0  0  0
    1.3177    1.5630    2.0400 H   0  0  0  0  0  0  0  0  0  0  0  0
    0.4810    3.3444    3.5210 H   0  0  0  0  0  0  0  0  0  0  0  0
   -3.4263    3.0451    1.6745 H   0  0  0  0  0  0  0  0  0  0  0  0
   -2.5911    1.2608    0.1969 H   0  0  0  0  0  0  0  0  0  0  0  0
   -0.8971    7.8392    5.6292 H   0  0  0  0  0  0  0  0  0  0  0  0
   -2.7891    8.8526    6.9081 H   0  0  0  0  0  0  0  0  0  0  0  0
   -5.0335    7.8088    6.8838 H   0  0  0  0  0  0  0  0  0  0  0  0
   -5.4558    5.7228    5.5741 H   0  0  0  0  0  0  0  0  0  0  0  0
    0.9904   -5.9922    0.2698 H   0  0  0  0  0  0  0  0  0  0  0  0
   -0.8440   -5.6292    2.1604 H   0  0  0  0  0  0  0  0  0  0  0  0
  1 21  1  0  0  0  0
  1  4  1  0  0  0  0
  2  1  2  0  0  0  0
  3  1  2  0  0  0  0
  4  5  1  0  0  0  0
  5 28  1  0  0  0  0
  5  6  2  0  0  0  0
  6 29  1  0  0  0  0
  7  6  1  0  0  0  0
  7 10  1  0  0  0  0
  8  7  2  0  0  0  0
  9  4  2  0  0  0  0
  9  8  1  0  0  0  0
 10 19  1  0  0  0  0
 10 11  1  0  0  0  0
 11 13  1  0  0  0  0
 12 11  2  0  0  0  0
 13 14  1  0  0  0  0
 14 32  1  0  0  0  0
 14 15  2  0  0  0  0
 15 33  1  0  0  0  0
 16 15  1  0  0  0  0
 16 34  1  0  0  0  0
 17 16  2  0  0  0  0
 18 13  2  0  0  0  0
 18 17  1  0  0  0  0
 19 18  1  0  0  0  0
 20 19  2  0  0  0  0
 22 21  2  0  0  0  0
 22 26  1  0  0  0  0
 23 24  1  0  0  0  0
 23 22  1  0  0  0  0
 24 25  2  0  0  0  0
 25 26  1  0  0  0  0
 25 37  1  0  0  0  0
 26 27  1  0  0  0  0
 30  8  1  0  0  0  0
 31  9  1  0  0  0  0
 35 17  1  0  0  0  0
 36 24  1  0  0  0  0
M  END
$$$$
