37
rmsd135.gzmat
S          0.00000        0.00000        0.00000
O          1.44290        0.00000        0.00000
O         -0.73490        0.00000       -1.24160
C         -0.58570        1.29340        1.02510
C          0.27240        1.90190        1.93990
C         -0.18270        2.94180        2.74410
C         -1.51170        3.37420        2.62470
C         -2.37940        2.75830        1.71060
C         -1.90870        1.71930        0.91490
N         -1.97920        4.44650        3.42370
C         -1.17280        5.56030        3.83680
O         -0.00940        5.67810        3.58530
C         -2.08670        6.46350        4.59320
C         -1.83350        7.67560        5.19020
C         -2.90710        8.31780        5.83700
C         -4.17070        7.74370        5.87320
C         -4.42400        6.50140        5.26020
C         -3.37350        5.88180        4.62580
C         -3.33090        4.58860        3.88430
O         -4.19820        3.78930        3.68320
N         -0.51370       -1.39210        0.89030
C         -0.41840       -2.64070        0.65260
S          0.29790       -3.59430       -0.72230
C         -0.14250       -5.11190        0.03160
C         -0.77430       -4.91090        1.21160
N         -0.93940       -3.56940        1.57020
H         -1.39460       -3.27350        2.41810
H          1.31660        1.57550        2.03460
H          0.49510        3.41590        3.45340
H         -3.41510        3.08340        1.62020
H         -2.59280        1.25160        0.19580
H         -0.84100        8.12720        5.16550
H         -2.73530        9.28310        6.31470
H         -4.98660        8.25820        6.38230
H         -5.41740        6.05290        5.28890
H          0.08480       -6.05450       -0.43090
H         -1.15560       -5.67000        1.88810
