37
rmsd202.gzmat
S          0.00000        0.00000        0.00000
O          1.44320        0.00000        0.00000
O         -0.73470        0.00000       -1.24180
C         -0.58450        1.29450        1.02420
C          0.24120        1.82750        2.01290
C         -0.20900        2.86960        2.81670
C         -1.49760        3.38710        2.61790
C         -2.33370        2.84730        1.62930
C         -1.87030        1.80110        0.83860
N         -1.95140        4.46910        3.41150
C         -1.10130        5.50830        3.92120
O          0.08350        5.54780        3.76140
C         -2.00240        6.45440        4.63850
C         -1.70690        7.62320        5.29910
C         -2.77730        8.32240        5.88990
C         -4.07930        7.84760        5.80610
C         -4.37540        6.64970        5.12720
C         -3.32700        5.97140        4.55220
C         -3.32150        4.70120        3.77070
O         -4.22710        3.97680        3.47710
N         -0.50350       -1.39780        0.88810
C         -0.28310       -2.64030        0.70620
S          0.66180       -3.56570       -0.54490
C          0.24500       -5.09630        0.19600
C         -0.53120       -4.91830        1.29050
N         -0.82970       -3.58520        1.59080
H         -1.40380       -3.30710        2.36970
H          1.25780        1.44180        2.16590
H          0.44250        3.27980        3.58780
H         -3.33990        3.23680        1.47680
H         -2.52870        1.39260        0.06120
H         -0.68500        7.99890        5.36440
H         -2.57120        9.25300        6.42020
H         -4.89260        8.40670        6.27060
H         -5.39900        6.27910        5.06220
H          0.59170       -6.02830       -0.21080
H         -0.93360       -5.68920        1.94100
