rmsd202.gzmat
 OpenBabel08211713393D

 37 40  0  0  0  0  0  0  0  0999 V2000
    0.0000    0.0000    0.0000 S   0  0  0  0  0  0  0  0  0  0  0  0
    1.4432    0.0000    0.0000 O   0  0  0  0  0  0  0  0  0  0  0  0
   -0.7347    0.0000   -1.2418 O   0  0  0  0  0  0  0  0  0  0  0  0
   -0.5845    1.2945    1.0242 C   0  0  0  0  0  0  0  0  0  0  0  0
    0.2412    1.8275    2.0129 C   0  0  0  0  0  0  0  0  0  0  0  0
   -0.2090    2.8696    2.8167 C   0  0  0  0  0  0  0  0  0  0  0  0
   -1.4976    3.3871    2.6179 C   0  0  0  0  0  0  0  0  0  0  0  0
   -2.3337    2.8473    1.6293 C   0  0  0  0  0  0  0  0  0  0  0  0
   -1.8703    1.8011    0.8386 C   0  0  0  0  0  0  0  0  0  0  0  0
   -1.9514    4.4691    3.4115 N   0  0  0  0  0  0  0  0  0  0  0  0
   -1.1013    5.5083    3.9212 C   0  0  0  0  0  0  0  0  0  0  0  0
    0.0835    5.5478    3.7614 O   0  0  0  0  0  0  0  0  0  0  0  0
   -2.0024    6.4544    4.6385 C   0  0  0  0  0  0  0  0  0  0  0  0
   -1.7069    7.6232    5.2991 C   0  0  0  0  0  0  0  0  0  0  0  0
   -2.7773    8.3224    5.8899 C   0  0  0  0  0  0  0  0  0  0  0  0
   -4.0793    7.8476    5.8061 C   0  0  0  0  0  0  0  0  0  0  0  0
   -4.3754    6.6497    5.1272 C   0  0  0  0  0  0  0  0  0  0  0  0
   -3.3270    5.9714    4.5522 C   0  0  0  0  0  0  0  0  0  0  0  0
   -3.3215    4.7012    3.7707 C   0  0  0  0  0  0  0  0  0  0  0  0
   -4.2271    3.9768    3.4771 O   0  0  0  0  0  0  0  0  0  0  0  0
   -0.5035   -1.3978    0.8881 N   0  0  0  0  0  0  0  0  0  0  0  0
   -0.2831   -2.6403    0.7062 C   0  0  0  0  0  0  0  0  0  0  0  0
    0.6618   -3.5657   -0.5449 S   0  0  0  0  0  0  0  0  0  0  0  0
    0.2450   -5.0963    0.1960 C   0  0  0  0  0  0  0  0  0  0  0  0
   -0.5312   -4.9183    1.2905 C   0  0  0  0  0  0  0  0  0  0  0  0
   -0.8297   -3.5852    1.5908 N   0  0  0  0  0  0  0  0  0  0  0  0
   -1.4038   -3.3071    2.3697 H   0  0  0  0  0  0  0  0  0  0  0  0
    1.2578    1.4418    2.1659 H   0  0  0  0  0  0  0  0  0  0  0  0
    0.4425    3.2798    3.5878 H   0  0  0  0  0  0  0  0  0  0  0  0
   -3.3399    3.2368    1.4768 H   0  0  0  0  0  0  0  0  0  0  0  0
   -2.5287    1.3926    0.0612 H   0  0  0  0  0  0  0  0  0  0  0  0
   -0.6850    7.9989    5.3644 H   0  0  0  0  0  0  0  0  0  0  0  0
   -2.5712    9.2530    6.4202 H   0  0  0  0  0  0  0  0  0  0  0  0
   -4.8926    8.4067    6.2706 H   0  0  0  0  0  0  0  0  0  0  0  0
   -5.3990    6.2791    5.0622 H   0  0  0  0  0  0  0  0  0  0  0  0
    0.5917   -6.0283   -0.2108 H   0  0  0  0  0  0  0  0  0  0  0  0
   -0.9336   -5.6892    1.9410 H   0  0  0  0  0  0  0  0  0  0  0  0
  1 21  1  0  0  0  0
  1  4  1  0  0  0  0
  2  1  2  0  0  0  0
  3  1  2  0  0  0  0
  4  5  1  0  0  0  0
  5 28  1  0  0  0  0
  5  6  2  0  0  0  0
  6 29  1  0  0  0  0
  7  6  1  0  0  0  0
  7 10  1  0  0  0  0
  8  7  2  0  0  0  0
  9  4  2  0  0  0  0
  9  8  1  0  0  0  0
 10 19  1  0  0  0  0
 10 11  1  0  0  0  0
 11 13  1  0  0  0  0
 12 11  2  0  0  0  0
 13 14  1  0  0  0  0
 14 32  1  0  0  0  0
 14 15  2  0  0  0  0
 15 33  1  0  0  0  0
 16 15  1  0  0  0  0
 16 34  1  0  0  0  0
 17 16  2  0  0  0  0
 18 13  2  0  0  0  0
 18 17  1  0  0  0  0
 19 18  1  0  0  0  0
 20 19  2  0  0  0  0
 22 21  2  0  0  0  0
 22 26  1  0  0  0  0
 23 24  1  0  0  0  0
 23 22  1  0  0  0  0
 24 25  2  0  0  0  0
 25 26  1  0  0  0  0
 25 37  1  0  0  0  0
 26 27  1  0  0  0  0
 30  8  1  0  0  0  0
 31  9  1  0  0  0  0
 35 17  1  0  0  0  0
 36 24  1  0  0  0  0
M  END
$$$$
