37
rmsd148.gzmat
S          0.00000        0.00000        0.00000
O          1.44160        0.00000        0.00000
O         -0.73420        0.00000       -1.24350
C         -0.59760        1.28650        1.02740
C          0.09680        1.63860        2.18370
C         -0.38360        2.64920        3.01040
C         -1.57520        3.30750        2.67270
C         -2.27200        2.96010        1.50550
C         -1.77530        1.95050        0.68840
N         -2.07980        4.32750        3.51610
C         -1.92490        4.35220        4.94280
O         -1.34220        3.51740        5.57100
C         -2.63030        5.58140        5.40680
C         -2.79150        6.08080        6.67750
C         -3.52080        7.27760        6.81670
C         -4.05420        7.92670        5.71120
C         -3.88430        7.41110        4.41190
C         -3.17230        6.24210        4.28270
C         -2.83510        5.45960        3.05930
O         -3.09940        5.67520        1.91270
N         -0.50920       -1.38890        0.89680
C         -0.70150       -2.60420        0.56470
S         -0.57580       -3.49910       -1.01500
C         -1.03990       -5.00750       -0.25590
C         -1.27660       -4.84230        1.06640
N         -1.10060       -3.53740        1.53730
H         -1.23760       -3.27050        2.49830
H          1.03000        1.13090        2.45630
H          0.16380        2.91620        3.91380
H         -3.19380        3.47340        1.23300
H         -2.32510        1.68870       -0.22560
H         -2.37370        5.57330        7.54780
H         -3.66700        7.69570        7.81350
H         -4.61590        8.85250        5.84380
H         -4.30420        7.92180        3.54420
H         -1.11250       -5.91870       -0.81960
H         -1.57940       -5.60380        1.77920
