
     RDKit          3D

 37 40  0  0  0  0  0  0  0  0999 V2000
   -0.4654   -0.0685   -0.4721 S   0  0  0  0  0  0  0  0  0  0  0  0
    1.0036   -0.2095   -0.4209 O   0  0  0  0  0  0  0  0  0  0  0  0
   -1.1381    0.2370   -1.7302 O   0  0  0  0  0  0  0  0  0  0  0  0
   -0.9284    1.1767    0.7242 C   0  0  0  0  0  0  0  0  0  0  0  0
   -2.1687    1.8064    0.6081 C   0  0  0  0  0  0  0  0  0  0  0  0
   -2.5421    2.7584    1.5529 C   0  0  0  0  0  0  0  0  0  0  0  0
   -1.6746    3.0707    2.6123 C   0  0  0  0  0  0  0  0  0  0  0  0
   -0.4273    2.4353    2.7143 C   0  0  0  0  0  0  0  0  0  0  0  0
   -0.0505    1.4898    1.7626 C   0  0  0  0  0  0  0  0  0  0  0  0
   -2.0584    4.0381    3.5779 N   0  0  0  0  0  0  0  0  0  0  0  0
   -3.3816    4.1962    4.0697 C   0  0  0  0  0  0  0  0  0  0  0  0
   -4.3403    3.5402    3.7466 O   0  0  0  0  0  0  0  0  0  0  0  0
   -3.3182    5.3194    5.0476 C   0  0  0  0  0  0  0  0  0  0  0  0
   -4.3262    5.8865    5.8174 C   0  0  0  0  0  0  0  0  0  0  0  0
   -3.9717    6.9505    6.6595 C   0  0  0  0  0  0  0  0  0  0  0  0
   -2.6504    7.4188    6.7180 C   0  0  0  0  0  0  0  0  0  0  0  0
   -1.6410    6.8376    5.9368 C   0  0  0  0  0  0  0  0  0  0  0  0
   -2.0039    5.7843    5.1067 C   0  0  0  0  0  0  0  0  0  0  0  0
   -1.1702    4.9733    4.1744 C   0  0  0  0  0  0  0  0  0  0  0  0
    0.0111    5.0688    3.9538 O   0  0  0  0  0  0  0  0  0  0  0  0
   -1.1863   -1.4248    0.1703 N   0  0  0  0  0  0  0  0  0  0  0  0
   -0.4826   -2.3421    0.7535 C   0  0  0  0  0  0  0  0  0  0  0  0
    1.2838   -2.4977    0.9999 S   0  0  0  0  0  0  0  0  0  0  0  0
    1.0446   -4.0081    1.8750 C   0  0  0  0  0  0  0  0  0  0  0  0
   -0.2571   -4.3506    1.9430 C   0  0  0  0  0  0  0  0  0  0  0  0
   -1.0859   -3.4300    1.3217 N   0  0  0  0  0  0  0  0  0  0  0  0
   -2.0963   -3.5043    1.2751 H   0  0  0  0  0  0  0  0  0  0  0  0
   -2.8232    1.5576   -0.2283 H   0  0  0  0  0  0  0  0  0  0  0  0
   -3.5071    3.2549    1.4752 H   0  0  0  0  0  0  0  0  0  0  0  0
    0.2518    2.6954    3.5236 H   0  0  0  0  0  0  0  0  0  0  0  0
    0.9216    0.9980    1.8141 H   0  0  0  0  0  0  0  0  0  0  0  0
   -5.3502    5.5125    5.7607 H   0  0  0  0  0  0  0  0  0  0  0  0
   -4.7351    7.4247    7.2805 H   0  0  0  0  0  0  0  0  0  0  0  0
   -2.4065    8.2497    7.3838 H   0  0  0  0  0  0  0  0  0  0  0  0
   -0.6088    7.1910    5.9722 H   0  0  0  0  0  0  0  0  0  0  0  0
    1.8917   -4.5594    2.2768 H   0  0  0  0  0  0  0  0  0  0  0  0
   -0.6934   -5.2314    2.4107 H   0  0  0  0  0  0  0  0  0  0  0  0
  1  2  2  0
  1  3  2  0
  1  4  1  0
  1 21  1  0
  4  5  2  0
  4  9  1  0
  5  6  1  0
  5 28  1  0
  6  7  2  0
  6 29  1  0
  7  8  1  0
  7 10  1  0
  8  9  2  0
  8 30  1  0
  9 31  1  0
 10 11  1  0
 10 19  1  0
 11 12  2  0
 11 13  1  0
 13 14  1  0
 13 18  2  0
 14 15  2  0
 14 32  1  0
 15 16  1  0
 15 33  1  0
 16 17  2  0
 16 34  1  0
 17 18  1  0
 17 35  1  0
 18 19  1  0
 19 20  2  0
 21 22  2  0
 22 23  1  0
 22 26  1  0
 23 24  1  0
 24 25  2  0
 24 36  1  0
 25 26  1  0
 25 37  1  0
 26 27  1  0
M  END

