37
rmsd203.gzmat
S          0.00000        0.00000        0.00000
O          1.44330        0.00000        0.00000
O         -0.73520        0.00000       -1.24110
C         -0.58510        1.29070        1.02880
C          0.27500        1.89650        1.94400
C         -0.18520        2.91610        2.77090
C         -1.52160        3.33110        2.67350
C         -2.38510        2.73340        1.74390
C         -1.91030        1.71210        0.92770
N         -2.00530        4.35980        3.51880
C         -1.21870        5.46440        3.98940
O         -0.06640        5.63320        3.71660
C         -2.13590        6.28420        4.83250
C         -1.89830        7.45280        5.51660
C         -2.96870        8.01070        6.24230
C         -4.21590        7.40110        6.26440
C         -4.45360        6.20460        5.56050
C         -3.40530        5.66620        4.85280
C         -3.34960        4.43350        4.01580
O         -4.20210        3.62990        3.77360
N         -0.51090       -1.39550        0.88700
C         -0.27860       -2.63840        0.72430
S          0.71850       -3.57210       -0.47930
C          0.26560       -5.09810        0.25070
C         -0.55120       -4.91230        1.31380
N         -0.85740       -3.57690        1.59520
H         -1.45890       -3.29270        2.35090
H          1.32410        1.58160        2.02330
H          0.49200        3.38560        3.48360
H         -3.42170        3.05720        1.65970
H         -2.59380        1.25410        0.20180
H         -0.92000        7.93420        5.50020
H         -2.80600        8.93820        6.79330
H         -5.03100        7.85040        6.83330
H         -5.43410        5.72720        5.57850
H          0.62190       -6.03360       -0.13900
H         -0.98030       -5.67840        1.95280
