rmsd200.gzmat
 OpenBabel08211713393D

 37 40  0  0  0  0  0  0  0  0999 V2000
    0.0000    0.0000    0.0000 S   0  0  0  0  0  0  0  0  0  0  0  0
    1.4428    0.0000    0.0000 O   0  0  0  0  0  0  0  0  0  0  0  0
   -0.7350    0.0000   -1.2419 O   0  0  0  0  0  0  0  0  0  0  0  0
   -0.5836    1.2950    1.0238 C   0  0  0  0  0  0  0  0  0  0  0  0
    0.1930    1.7406    2.0926 C   0  0  0  0  0  0  0  0  0  0  0  0
   -0.2520    2.7868    2.8939 C   0  0  0  0  0  0  0  0  0  0  0  0
   -1.4907    3.3858    2.6204 C   0  0  0  0  0  0  0  0  0  0  0  0
   -2.2799    2.9310    1.5538 C   0  0  0  0  0  0  0  0  0  0  0  0
   -1.8173    1.8877    0.7588 C   0  0  0  0  0  0  0  0  0  0  0  0
   -1.9447    4.4629    3.4205 N   0  0  0  0  0  0  0  0  0  0  0  0
   -1.6479    4.6247    4.8151 C   0  0  0  0  0  0  0  0  0  0  0  0
   -1.0105    3.8463    5.4621 O   0  0  0  0  0  0  0  0  0  0  0  0
   -2.2974    5.9036    5.2221 C   0  0  0  0  0  0  0  0  0  0  0  0
   -2.3193    6.5321    6.4444 C   0  0  0  0  0  0  0  0  0  0  0  0
   -3.0189    7.7510    6.5352 C   0  0  0  0  0  0  0  0  0  0  0  0
   -3.6594    8.2954    5.4303 C   0  0  0  0  0  0  0  0  0  0  0  0
   -3.6311    7.6482    4.1799 C   0  0  0  0  0  0  0  0  0  0  0  0
   -2.9489    6.4575    4.0984 C   0  0  0  0  0  0  0  0  0  0  0  0
   -2.7418    5.5526    2.9318 C   0  0  0  0  0  0  0  0  0  0  0  0
   -3.1235    5.6536    1.8027 O   0  0  0  0  0  0  0  0  0  0  0  0
   -0.5043   -1.3956    0.8908 N   0  0  0  0  0  0  0  0  0  0  0  0
   -0.4085   -2.6418    0.6398 C   0  0  0  0  0  0  0  0  0  0  0  0
    0.2779   -3.5792   -0.7619 S   0  0  0  0  0  0  0  0  0  0  0  0
   -0.1386   -5.1062   -0.0133 C   0  0  0  0  0  0  0  0  0  0  0  0
   -0.7421   -4.9191    1.1835 C   0  0  0  0  0  0  0  0  0  0  0  0
   -0.9025   -3.5817    1.5602 N   0  0  0  0  0  0  0  0  0  0  0  0
   -1.3264   -3.2970    2.4278 H   0  0  0  0  0  0  0  0  0  0  0  0
    1.1666    1.2833    2.3099 H   0  0  0  0  0  0  0  0  0  0  0  0
    0.3613    3.1324    3.7251 H   0  0  0  0  0  0  0  0  0  0  0  0
   -3.2443    3.3903    1.3395 H   0  0  0  0  0  0  0  0  0  0  0  0
   -2.4364    1.5463   -0.0810 H   0  0  0  0  0  0  0  0  0  0  0  0
   -1.8149    6.1085    7.3135 H   0  0  0  0  0  0  0  0  0  0  0  0
   -3.0512    8.2707    7.4937 H   0  0  0  0  0  0  0  0  0  0  0  0
   -4.1945    9.2410    5.5248 H   0  0  0  0  0  0  0  0  0  0  0  0
   -4.1302    8.0793    3.3114 H   0  0  0  0  0  0  0  0  0  0  0  0
    0.0806   -6.0433   -0.4907 H   0  0  0  0  0  0  0  0  0  0  0  0
   -1.1047   -5.6860    1.8615 H   0  0  0  0  0  0  0  0  0  0  0  0
  1 21  1  0  0  0  0
  1  4  1  0  0  0  0
  2  1  2  0  0  0  0
  3  1  2  0  0  0  0
  4  5  1  0  0  0  0
  5 28  1  0  0  0  0
  5  6  2  0  0  0  0
  6 29  1  0  0  0  0
  7  6  1  0  0  0  0
  7 10  1  0  0  0  0
  8  7  2  0  0  0  0
  9  4  2  0  0  0  0
  9  8  1  0  0  0  0
 10 11  1  0  0  0  0
 11 13  1  0  0  0  0
 11 12  2  0  0  0  0
 13 14  2  0  0  0  0
 14 15  1  0  0  0  0
 14 32  1  0  0  0  0
 15 33  1  0  0  0  0
 16 34  1  0  0  0  0
 16 15  2  0  0  0  0
 17 16  1  0  0  0  0
 18 17  2  0  0  0  0
 18 13  1  0  0  0  0
 19 10  1  0  0  0  0
 19 18  1  0  0  0  0
 20 19  2  0  0  0  0
 22 21  2  0  0  0  0
 22 26  1  0  0  0  0
 23 24  1  0  0  0  0
 23 22  1  0  0  0  0
 24 25  2  0  0  0  0
 25 26  1  0  0  0  0
 25 37  1  0  0  0  0
 26 27  1  0  0  0  0
 30  8  1  0  0  0  0
 31  9  1  0  0  0  0
 35 17  1  0  0  0  0
 36 24  1  0  0  0  0
M  END
$$$$
