37
rmsd205.gzmat
S          0.00000        0.00000        0.00000
O          1.44300        0.00000        0.00000
O         -0.73540        0.00000       -1.24140
C         -0.58770        1.28870        1.02980
C         -1.87470        1.79230        0.84650
C         -2.34960        2.81540        1.66010
C         -1.52490        3.33220        2.67030
C         -0.22890        2.82890        2.85550
C          0.23300        1.80990        2.02900
N         -2.00210        4.37390        3.50300
C         -3.37530        4.54510        3.88410
O         -4.25990        3.80690        3.56210
C         -3.41210        5.77400        4.72770
C         -4.47510        6.38960        5.34460
C         -4.20860        7.55610        6.08710
C         -2.92050        8.06320        6.18910
C         -1.83560        7.42960        5.55280
C         -2.10170        6.29070        4.83090
C         -1.17880        5.41000        4.05900
O          0.00270        5.49320        3.89290
N         -0.50670       -1.39130        0.89490
C         -0.37300       -2.64090        0.68480
S          0.39930       -3.60500       -0.65160
C         -0.02420       -5.11720        0.12260
C         -0.68840       -4.90700        1.28300
N         -0.89090       -3.56300        1.61090
H         -1.36940       -3.25960        2.44290
H         -2.52610        1.39800        0.05610
H         -3.35580        3.20470        1.51030
H          0.41840        3.23090        3.63410
H          1.25220        1.42950        2.17550
H         -5.48820        5.99460        5.26430
H         -5.03410        8.06440        6.58720
H         -2.73700        8.96760        6.77040
H         -0.82490        7.83130        5.63190
H          0.23640       -6.06300       -0.31500
H         -1.06890       -5.66060        1.96610
