37
rmsd200.gzmat
S          0.00000        0.00000        0.00000
O          1.44280        0.00000        0.00000
O         -0.73500        0.00000       -1.24190
C         -0.58360        1.29500        1.02380
C          0.19300        1.74060        2.09260
C         -0.25200        2.78680        2.89390
C         -1.49070        3.38580        2.62040
C         -2.27990        2.93100        1.55380
C         -1.81730        1.88770        0.75880
N         -1.94470        4.46290        3.42050
C         -1.64790        4.62470        4.81510
O         -1.01050        3.84630        5.46210
C         -2.29740        5.90360        5.22210
C         -2.31930        6.53210        6.44440
C         -3.01890        7.75100        6.53520
C         -3.65940        8.29540        5.43030
C         -3.63110        7.64820        4.17990
C         -2.94890        6.45750        4.09840
C         -2.74180        5.55260        2.93180
O         -3.12350        5.65360        1.80270
N         -0.50430       -1.39560        0.89080
C         -0.40850       -2.64180        0.63980
S          0.27790       -3.57920       -0.76190
C         -0.13860       -5.10620       -0.01330
C         -0.74210       -4.91910        1.18350
N         -0.90250       -3.58170        1.56020
H         -1.32640       -3.29700        2.42780
H          1.16660        1.28330        2.30990
H          0.36130        3.13240        3.72510
H         -3.24430        3.39030        1.33950
H         -2.43640        1.54630       -0.08100
H         -1.81490        6.10850        7.31350
H         -3.05120        8.27070        7.49370
H         -4.19450        9.24100        5.52480
H         -4.13020        8.07930        3.31140
H          0.08060       -6.04330       -0.49070
H         -1.10470       -5.68600        1.86150
