rmsd162.gzmat
 OpenBabel08211713423D

 76 79  0  0  1  0  0  0  0  0999 V2000
    0.0000    0.0000    0.0000 C   0  0  0  0  0  0  0  0  0  0  0  0
    1.3981    0.0000    0.0000 C   0  0  0  0  0  0  0  0  0  0  0  0
    2.0989    0.0000    1.2080 C   0  0  0  0  0  0  0  0  0  0  0  0
    1.4005    0.0017    2.4129 C   0  0  0  0  0  0  0  0  0  0  0  0
    0.0068    0.0069    2.4137 C   0  0  0  0  0  0  0  0  0  0  0  0
   -0.6923    0.0055    1.2074 C   0  0  0  0  0  0  0  0  0  0  0  0
    2.1082    0.0321   -1.2665 C   0  0  0  0  0  0  0  0  0  0  0  0
    2.8571   -0.9949   -1.8363 C   0  0  0  0  0  0  0  0  0  0  0  0
    3.1188   -2.3202   -1.3018 C   0  0  0  0  0  0  0  0  0  0  0  0
    2.4986   -3.4370   -1.8721 C   0  0  0  0  0  0  0  0  0  0  0  0
    2.7309   -4.7075   -1.3548 C   0  0  0  0  0  0  0  0  0  0  0  0
    3.5862   -4.8228   -0.2594 C   0  0  0  0  0  0  0  0  0  0  0  0
    4.2046   -3.7269    0.3414 C   0  0  0  0  0  0  0  0  0  0  0  0
    3.9574   -2.4657   -0.1915 C   0  0  0  0  0  0  0  0  0  0  0  0
    3.8180   -6.0292    0.2359 F   0  0  0  0  0  0  0  0  0  0  0  0
    3.3090   -0.5544   -3.0888 N   0  0  0  0  0  0  0  0  0  0  0  0
    4.1860   -1.3340   -3.9559 C   0  0  0  0  0  0  0  0  0  0  0  0
    5.6445   -0.8500   -3.9257 C   0  0  0  0  0  0  0  0  0  0  0  0
    6.1900   -0.7162   -2.4963 C   0  0  2  0  0  0  0  0  0  0  0  0
    5.6502   -1.3899   -1.7904 H   0  0  0  0  0  0  0  0  0  0  0  0
    6.1708    0.7418   -2.0115 C   0  0  0  0  0  0  0  0  0  0  0  0
    6.5921    0.8229   -0.5448 C   0  0  1  0  0  0  0  0  0  0  0  0
    6.0540    0.0815    0.0960 H   0  0  0  0  0  0  0  0  0  0  0  0
    7.9356    0.4097   -0.4037 O   0  0  0  0  0  0  0  0  0  0  0  0
    6.4330    2.2511    0.0112 C   0  0  0  0  0  0  0  0  0  0  0  0
    4.9799    2.6007    0.0345 C   0  0  0  0  0  0  0  0  0  0  0  0
    4.1276    2.1383    0.7515 O   0  0  0  0  0  0  0  0  0  0  0  0
    4.6922    3.5189   -0.9107 O   0  0  0  0  0  0  0  0  0  0  0  0
    7.5264   -1.1758   -2.5687 O   0  0  0  0  0  0  0  0  0  0  0  0
    2.8685    0.7412   -3.3064 C   0  0  0  0  0  0  0  0  0  0  0  0
    2.1179    1.1249   -2.1853 C   0  0  0  0  0  0  0  0  0  0  0  0
    1.4186    2.3915   -1.9761 C   0  0  0  0  0  0  0  0  0  0  0  0
    0.7102    2.9375   -2.7928 O   0  0  0  0  0  0  0  0  0  0  0  0
    1.6779    2.9764   -0.7238 N   0  0  0  0  0  0  0  0  0  0  0  0
    0.9821    4.0872   -0.1938 C   0  0  0  0  0  0  0  0  0  0  0  0
    1.0545    4.2750    1.1996 C   0  0  0  0  0  0  0  0  0  0  0  0
    0.4335    5.3741    1.7779 C   0  0  0  0  0  0  0  0  0  0  0  0
   -0.2614    6.2887    0.9865 C   0  0  0  0  0  0  0  0  0  0  0  0
   -0.3311    6.0975   -0.3915 C   0  0  0  0  0  0  0  0  0  0  0  0
    0.2870    5.0036   -0.9914 C   0  0  0  0  0  0  0  0  0  0  0  0
    3.1672    1.5026   -4.5548 C   0  0  0  0  0  0  0  0  0  0  0  0
    1.8987    1.5523   -5.4163 C   0  0  0  0  0  0  0  0  0  0  0  0
    3.6530    2.9175   -4.2184 C   0  0  0  0  0  0  0  0  0  0  0  0
   -0.5405    0.0030   -0.9460 H   0  0  0  0  0  0  0  0  0  0  0  0
    3.1881    0.0187    1.2083 H   0  0  0  0  0  0  0  0  0  0  0  0
    1.9462    0.0045    3.3536 H   0  0  0  0  0  0  0  0  0  0  0  0
   -0.5363    0.0148    3.3559 H   0  0  0  0  0  0  0  0  0  0  0  0
   -1.7806    0.0137    1.2081 H   0  0  0  0  0  0  0  0  0  0  0  0
    1.8193   -3.3067   -2.7152 H   0  0  0  0  0  0  0  0  0  0  0  0
    2.2507   -5.5820   -1.7894 H   0  0  0  0  0  0  0  0  0  0  0  0
    4.8580   -3.8493    1.2035 H   0  0  0  0  0  0  0  0  0  0  0  0
    4.4116   -1.5849    0.2641 H   0  0  0  0  0  0  0  0  0  0  0  0
    3.7940   -1.2975   -5.0002 H   0  0  0  0  0  0  0  0  0  0  0  0
    4.1421   -2.4075   -3.6443 H   0  0  0  0  0  0  0  0  0  0  0  0
    5.7622    0.0997   -4.4779 H   0  0  0  0  0  0  0  0  0  0  0  0
    6.2829   -1.5800   -4.4743 H   0  0  0  0  0  0  0  0  0  0  0  0
    5.1569    1.1725   -2.1507 H   0  0  0  0  0  0  0  0  0  0  0  0
    6.8415    1.3521   -2.6456 H   0  0  0  0  0  0  0  0  0  0  0  0
    8.5508    1.0036   -0.8811 H   0  0  0  0  0  0  0  0  0  0  0  0
    7.0157    2.9795   -0.5894 H   0  0  0  0  0  0  0  0  0  0  0  0
    6.8528    2.2997    1.0405 H   0  0  0  0  0  0  0  0  0  0  0  0
    3.7164    3.7309   -0.9865 H   0  0  0  0  0  0  0  0  0  0  0  0
    7.9961   -0.9551   -1.7337 H   0  0  0  0  0  0  0  0  0  0  0  0
    2.2035    2.4107   -0.0382 H   0  0  0  0  0  0  0  0  0  0  0  0
    1.5886    3.5598    1.8222 H   0  0  0  0  0  0  0  0  0  0  0  0
    0.4879    5.5199    2.8557 H   0  0  0  0  0  0  0  0  0  0  0  0
   -0.7476    7.1450    1.4445 H   0  0  0  0  0  0  0  0  0  0  0  0
   -0.8749    6.8097   -1.0106 H   0  0  0  0  0  0  0  0  0  0  0  0
    0.2191    4.8676   -2.0718 H   0  0  0  0  0  0  0  0  0  0  0  0
    3.9727    0.9913   -5.1415 H   0  0  0  0  0  0  0  0  0  0  0  0
    1.0698    2.0354   -4.8697 H   0  0  0  0  0  0  0  0  0  0  0  0
    1.5588    0.5511   -5.6956 H   0  0  0  0  0  0  0  0  0  0  0  0
    2.0601    2.1282   -6.3319 H   0  0  0  0  0  0  0  0  0  0  0  0
    2.8300    3.5450   -3.8453 H   0  0  0  0  0  0  0  0  0  0  0  0
    4.0523    3.4179   -5.1069 H   0  0  0  0  0  0  0  0  0  0  0  0
    4.4380    2.9133   -3.4543 H   0  0  0  0  0  0  0  0  0  0  0  0
  1  6  1  0  0  0  0
  2  1  2  0  0  0  0
  2  3  1  0  0  0  0
  3 45  1  0  0  0  0
  3  4  2  0  0  0  0
  4  5  1  0  0  0  0
  4 46  1  0  0  0  0
  5 47  1  0  0  0  0
  6 48  1  0  0  0  0
  6  5  2  0  0  0  0
  7  2  1  0  0  0  0
  8  9  1  0  0  0  0
  8  7  2  0  0  0  0
  9 14  2  0  0  0  0
 10 11  2  0  0  0  0
 10  9  1  0  0  0  0
 11 12  1  0  0  0  0
 12 15  1  0  0  0  0
 12 13  2  0  0  0  0
 13 51  1  0  0  0  0
 14 52  1  0  0  0  0
 14 13  1  0  0  0  0
 16  8  1  0  0  0  0
 17 18  1  0  0  0  0
 17 54  1  0  0  0  0
 17 16  1  0  0  0  0
 18 19  1  0  0  0  0
 19 21  1  0  0  0  0
 19 20  1  1  0  0  0
 21 22  1  0  0  0  0
 22 24  1  0  0  0  0
 22 25  1  0  0  0  0
 22 23  1  1  0  0  0
 25 26  1  0  0  0  0
 25 61  1  0  0  0  0
 26 27  2  0  0  0  0
 28 26  1  0  0  0  0
 29 19  1  0  0  0  0
 29 63  1  0  0  0  0
 30 16  1  0  0  0  0
 30 31  2  0  0  0  0
 31 32  1  0  0  0  0
 31  7  1  0  0  0  0
 32 34  1  0  0  0  0
 33 32  2  0  0  0  0
 34 35  1  0  0  0  0
 34 64  1  0  0  0  0
 35 36  2  0  0  0  0
 36 37  1  0  0  0  0
 36 65  1  0  0  0  0
 37 66  1  0  0  0  0
 38 67  1  0  0  0  0
 38 37  2  0  0  0  0
 39 38  1  0  0  0  0
 40 39  2  0  0  0  0
 40 35  1  0  0  0  0
 41 43  1  0  0  0  0
 41 30  1  0  0  0  0
 42 71  1  0  0  0  0
 42 41  1  0  0  0  0
 43 74  1  0  0  0  0
 43 76  1  0  0  0  0
 44  1  1  0  0  0  0
 49 10  1  0  0  0  0
 50 11  1  0  0  0  0
 53 17  1  0  0  0  0
 55 18  1  0  0  0  0
 56 18  1  0  0  0  0
 57 21  1  0  0  0  0
 58 21  1  0  0  0  0
 59 24  1  0  0  0  0
 60 25  1  0  0  0  0
 62 28  1  0  0  0  0
 68 39  1  0  0  0  0
 69 40  1  0  0  0  0
 70 41  1  0  0  0  0
 72 42  1  0  0  0  0
 73 42  1  0  0  0  0
 75 43  1  0  0  0  0
M  END
$$$$
