76
rmsd139.gzmat
C          0.00000        0.00000        0.00000
C          1.39850        0.00000        0.00000
C          2.09570        0.00000        1.21250
C          1.39570        0.01330        2.41540
C          0.00150        0.01770        2.41350
C         -0.69490        0.00760        1.20610
C          2.12510        0.00390       -1.25500
C          1.92890       -0.87500       -2.32250
C          0.97110       -1.96350       -2.40330
C         -0.08740       -1.91560       -3.31690
C         -1.03460       -2.93490       -3.34570
C         -0.89410       -3.98520       -2.44010
C          0.14860       -4.06050       -1.51760
C          1.08600       -3.03240       -1.50730
F         -1.79310       -4.95920       -2.45730
N          2.82540       -0.52710       -3.33750
C          2.99240       -1.28880       -4.56790
C          4.07980       -2.36180       -4.39500
C          4.04490       -3.35390       -5.56440
H          3.55460       -2.91930       -6.46610
C          3.41180       -4.70710       -5.20100
C          1.92380       -4.53310       -4.87880
H          1.77200       -3.90000       -3.96830
O          1.29370       -3.78450       -5.88550
C          1.21520       -5.89140       -4.70200
C          1.16610       -6.64360       -5.98700
O          1.25190       -6.20730       -7.11080
O          0.99250       -7.96750       -5.77050
O          5.41640       -3.55720       -5.87220
C          3.60710        0.53800       -2.91620
C          3.17400        0.89660       -1.63150
C          3.69010        1.98180       -0.79470
O          4.86080        2.16890       -0.54430
N          2.68510        2.81550       -0.28800
C          2.86850        3.84970        0.65190
C          4.12420        4.38270        0.97160
C          4.21030        5.41440        1.90140
C          3.06600        5.92230        2.51330
C          1.81750        5.39060        2.19230
C          1.70880        4.35940        1.26830
C          4.68220        1.13700       -3.76060
C          4.49490        2.65640       -3.85230
C          6.04940        0.79110       -3.15840
H         -0.53990       -0.00910       -0.94500
H          3.18630       -0.00480        1.20970
H          1.93870        0.02600        3.35880
H         -0.54270        0.03020        3.35490
H         -1.78280        0.00560        1.20500
H         -0.17470       -1.07200       -4.00330
H         -1.85970       -2.90640       -4.05540
H          0.22280       -4.88720       -0.81370
H          1.90750       -3.04550       -0.78800
H          3.24910       -0.60070       -5.40690
H          2.01640       -1.76380       -4.84700
H          3.96860       -2.88030       -3.42430
H          5.08760       -1.89130       -4.34830
H          3.94830       -5.15780       -4.34500
H          3.54850       -5.41130       -6.04380
H          1.23530       -4.30330       -6.72270
H          0.17040       -5.71850       -4.34750
H          1.69580       -6.48760       -3.89780
H          0.92400       -8.50470       -6.60100
H          5.52290       -4.18190       -6.61200
H          1.71860        2.56670       -0.50020
H          5.03090        3.99660        0.50280
H          5.18610        5.82830        2.15250
H          3.14510        6.72760        3.23720
H          0.92170        5.78330        2.67070
H          0.73390        3.94430        1.03000
H          4.64040        0.71990       -4.80060
H          4.67310        3.14260       -2.88210
H          3.48150        2.92070       -4.17240
H          5.20100        3.09780       -4.56340
H          6.14040        1.18090       -2.12970
H          6.86370        1.22800       -3.74420
H          6.20980       -0.29000       -3.10680
