76

C         -0.18970       -0.11020       -0.07070
C          1.18240        0.18780       -0.10560
C          1.81180        0.59210        1.08560
C          1.09280        0.68730        2.27690
C         -0.27010        0.37450        2.30160
C         -0.90860       -0.02320        1.12480
C          1.95110        0.14990       -1.37050
C          2.26900       -0.97150       -2.11980
C          1.96320       -2.39380       -1.86670
C          0.64460       -2.87960       -1.89340
C          0.36400       -4.22160       -1.63320
C          1.41650       -5.08810       -1.35190
C          2.73660       -4.64370       -1.31530
C          2.99940       -3.29750       -1.56610
F          1.15520       -6.37940       -1.10880
N          3.08040       -0.56180       -3.17750
C          3.47080       -1.44390       -4.27370
C          2.32480       -1.87800       -5.19880
C          1.34650       -0.77700       -5.66170
H          1.88520        0.18430       -5.71660
C          0.15140       -0.65470       -4.71300
C         -0.98240        0.28440       -5.14590
H         -1.24650        0.03880       -6.18510
O         -2.13960        0.04650       -4.36940
C         -0.59860        1.77130       -5.11440
C         -0.31120        2.27540       -3.72030
O         -0.71730        1.73630       -2.70220
O          0.42230        3.38160       -3.69860
O          0.91690       -1.01690       -6.99670
C          3.29750        0.80110       -3.11550
C          2.61500        1.27060       -1.98850
C          2.61200        2.65740       -1.46940
O          3.58360        3.39900       -1.48900
N          1.37320        3.06240       -0.97570
C          1.12240        4.08660       -0.03430
C          1.95380        5.20680        0.11880
C          1.62700        6.17530        1.07130
C          0.48370        6.05040        1.86430
C         -0.34230        4.93340        1.70400
C         -0.02570        3.95390        0.76490
C          4.18090        1.53230       -4.10010
C          3.57660        2.84030       -4.62900
C          5.58010        1.75740       -3.49660
H         -0.70150       -0.36670       -0.99760
H          2.87520        0.84060        1.06590
H          1.59770        1.01000        3.19030
H         -0.83370        0.45030        3.23440
H         -1.97610       -0.25590        1.13150
H         -0.17220       -2.20130       -2.13510
H         -0.65730       -4.60550       -1.65150
H          3.53390       -5.34960       -1.07680
H          4.02710       -2.93220       -1.50830
H          3.94860       -2.33860       -3.85220
H          4.24250       -0.92690       -4.85300
H          1.75420       -2.69210       -4.72250
H          2.78900       -2.29910       -6.10430
H          0.50380       -0.37530       -3.70970
H         -0.30730       -1.65340       -4.60800
H         -1.94500        0.41680       -3.49190
H         -1.44300        2.36730       -5.50130
H          0.26150        1.99080       -5.76400
H          0.64380        3.58650       -2.76060
H          0.37680       -1.82000       -6.99320
H          0.65360        2.34220       -0.99830
H          2.84480        5.29680       -0.49750
H          2.28000        7.04360        1.18910
H          0.23750        6.81680        2.60260
H         -1.23680        4.81670        2.32050
H         -0.65720        3.06900        0.65310
H          4.30200        0.88100       -4.97810
H          3.49230        3.59370       -3.83610
H          2.57740        2.68050       -5.05760
H          4.22650        3.25240       -5.41670
H          5.50140        2.41420       -2.61920
H          6.24700        2.22800       -4.23690
H          6.03460        0.80480       -3.18120
