rmsd139.gzmat
 OpenBabel08211713423D

 76 79  0  0  1  0  0  0  0  0999 V2000
    0.0000    0.0000    0.0000 C   0  0  0  0  0  0  0  0  0  0  0  0
    1.3985    0.0000    0.0000 C   0  0  0  0  0  0  0  0  0  0  0  0
    2.0957    0.0000    1.2125 C   0  0  0  0  0  0  0  0  0  0  0  0
    1.3957    0.0133    2.4154 C   0  0  0  0  0  0  0  0  0  0  0  0
    0.0015    0.0177    2.4135 C   0  0  0  0  0  0  0  0  0  0  0  0
   -0.6949    0.0076    1.2061 C   0  0  0  0  0  0  0  0  0  0  0  0
    2.1251    0.0039   -1.2550 C   0  0  0  0  0  0  0  0  0  0  0  0
    1.9289   -0.8750   -2.3225 C   0  0  0  0  0  0  0  0  0  0  0  0
    0.9711   -1.9635   -2.4033 C   0  0  0  0  0  0  0  0  0  0  0  0
   -0.0874   -1.9156   -3.3169 C   0  0  0  0  0  0  0  0  0  0  0  0
   -1.0346   -2.9349   -3.3457 C   0  0  0  0  0  0  0  0  0  0  0  0
   -0.8941   -3.9852   -2.4401 C   0  0  0  0  0  0  0  0  0  0  0  0
    0.1486   -4.0605   -1.5176 C   0  0  0  0  0  0  0  0  0  0  0  0
    1.0860   -3.0324   -1.5073 C   0  0  0  0  0  0  0  0  0  0  0  0
   -1.7931   -4.9592   -2.4573 F   0  0  0  0  0  0  0  0  0  0  0  0
    2.8254   -0.5271   -3.3375 N   0  0  0  0  0  0  0  0  0  0  0  0
    2.9924   -1.2888   -4.5679 C   0  0  0  0  0  0  0  0  0  0  0  0
    4.0798   -2.3618   -4.3950 C   0  0  0  0  0  0  0  0  0  0  0  0
    4.0449   -3.3539   -5.5644 C   0  0  2  0  0  0  0  0  0  0  0  0
    3.5546   -2.9193   -6.4661 H   0  0  0  0  0  0  0  0  0  0  0  0
    3.4118   -4.7071   -5.2010 C   0  0  0  0  0  0  0  0  0  0  0  0
    1.9238   -4.5331   -4.8788 C   0  0  1  0  0  0  0  0  0  0  0  0
    1.7720   -3.9000   -3.9683 H   0  0  0  0  0  0  0  0  0  0  0  0
    1.2937   -3.7845   -5.8855 O   0  0  0  0  0  0  0  0  0  0  0  0
    1.2152   -5.8914   -4.7020 C   0  0  0  0  0  0  0  0  0  0  0  0
    1.1661   -6.6436   -5.9870 C   0  0  0  0  0  0  0  0  0  0  0  0
    1.2519   -6.2073   -7.1108 O   0  0  0  0  0  0  0  0  0  0  0  0
    0.9925   -7.9675   -5.7705 O   0  0  0  0  0  0  0  0  0  0  0  0
    5.4164   -3.5572   -5.8722 O   0  0  0  0  0  0  0  0  0  0  0  0
    3.6071    0.5380   -2.9162 C   0  0  0  0  0  0  0  0  0  0  0  0
    3.1740    0.8966   -1.6315 C   0  0  0  0  0  0  0  0  0  0  0  0
    3.6901    1.9818   -0.7947 C   0  0  0  0  0  0  0  0  0  0  0  0
    4.8608    2.1689   -0.5443 O   0  0  0  0  0  0  0  0  0  0  0  0
    2.6851    2.8155   -0.2880 N   0  0  0  0  0  0  0  0  0  0  0  0
    2.8685    3.8497    0.6519 C   0  0  0  0  0  0  0  0  0  0  0  0
    4.1242    4.3827    0.9716 C   0  0  0  0  0  0  0  0  0  0  0  0
    4.2103    5.4144    1.9014 C   0  0  0  0  0  0  0  0  0  0  0  0
    3.0660    5.9223    2.5133 C   0  0  0  0  0  0  0  0  0  0  0  0
    1.8175    5.3906    2.1923 C   0  0  0  0  0  0  0  0  0  0  0  0
    1.7088    4.3594    1.2683 C   0  0  0  0  0  0  0  0  0  0  0  0
    4.6822    1.1370   -3.7606 C   0  0  0  0  0  0  0  0  0  0  0  0
    4.4949    2.6564   -3.8523 C   0  0  0  0  0  0  0  0  0  0  0  0
    6.0494    0.7911   -3.1584 C   0  0  0  0  0  0  0  0  0  0  0  0
   -0.5399   -0.0091   -0.9450 H   0  0  0  0  0  0  0  0  0  0  0  0
    3.1863   -0.0048    1.2097 H   0  0  0  0  0  0  0  0  0  0  0  0
    1.9387    0.0260    3.3588 H   0  0  0  0  0  0  0  0  0  0  0  0
   -0.5427    0.0302    3.3549 H   0  0  0  0  0  0  0  0  0  0  0  0
   -1.7828    0.0056    1.2050 H   0  0  0  0  0  0  0  0  0  0  0  0
   -0.1747   -1.0720   -4.0033 H   0  0  0  0  0  0  0  0  0  0  0  0
   -1.8597   -2.9064   -4.0554 H   0  0  0  0  0  0  0  0  0  0  0  0
    0.2228   -4.8872   -0.8137 H   0  0  0  0  0  0  0  0  0  0  0  0
    1.9075   -3.0455   -0.7880 H   0  0  0  0  0  0  0  0  0  0  0  0
    3.2491   -0.6007   -5.4069 H   0  0  0  0  0  0  0  0  0  0  0  0
    2.0164   -1.7638   -4.8470 H   0  0  0  0  0  0  0  0  0  0  0  0
    3.9686   -2.8803   -3.4243 H   0  0  0  0  0  0  0  0  0  0  0  0
    5.0876   -1.8913   -4.3483 H   0  0  0  0  0  0  0  0  0  0  0  0
    3.9483   -5.1578   -4.3450 H   0  0  0  0  0  0  0  0  0  0  0  0
    3.5485   -5.4113   -6.0438 H   0  0  0  0  0  0  0  0  0  0  0  0
    1.2353   -4.3033   -6.7227 H   0  0  0  0  0  0  0  0  0  0  0  0
    0.1704   -5.7185   -4.3475 H   0  0  0  0  0  0  0  0  0  0  0  0
    1.6958   -6.4876   -3.8978 H   0  0  0  0  0  0  0  0  0  0  0  0
    0.9240   -8.5047   -6.6010 H   0  0  0  0  0  0  0  0  0  0  0  0
    5.5229   -4.1819   -6.6120 H   0  0  0  0  0  0  0  0  0  0  0  0
    1.7186    2.5667   -0.5002 H   0  0  0  0  0  0  0  0  0  0  0  0
    5.0309    3.9966    0.5028 H   0  0  0  0  0  0  0  0  0  0  0  0
    5.1861    5.8283    2.1525 H   0  0  0  0  0  0  0  0  0  0  0  0
    3.1451    6.7276    3.2372 H   0  0  0  0  0  0  0  0  0  0  0  0
    0.9217    5.7833    2.6707 H   0  0  0  0  0  0  0  0  0  0  0  0
    0.7339    3.9443    1.0300 H   0  0  0  0  0  0  0  0  0  0  0  0
    4.6404    0.7199   -4.8006 H   0  0  0  0  0  0  0  0  0  0  0  0
    4.6731    3.1426   -2.8821 H   0  0  0  0  0  0  0  0  0  0  0  0
    3.4815    2.9207   -4.1724 H   0  0  0  0  0  0  0  0  0  0  0  0
    5.2010    3.0978   -4.5634 H   0  0  0  0  0  0  0  0  0  0  0  0
    6.1404    1.1809   -2.1297 H   0  0  0  0  0  0  0  0  0  0  0  0
    6.8637    1.2280   -3.7442 H   0  0  0  0  0  0  0  0  0  0  0  0
    6.2098   -0.2900   -3.1068 H   0  0  0  0  0  0  0  0  0  0  0  0
  1  2  2  0  0  0  0
  1  6  1  0  0  0  0
  2  3  1  0  0  0  0
  3  4  2  0  0  0  0
  4 46  1  0  0  0  0
  5  4  1  0  0  0  0
  5 47  1  0  0  0  0
  6  5  2  0  0  0  0
  7  2  1  0  0  0  0
  8  7  2  0  0  0  0
  9  8  1  0  0  0  0
  9 14  2  0  0  0  0
 10  9  1  0  0  0  0
 11 10  2  0  0  0  0
 11 12  1  0  0  0  0
 12 13  2  0  0  0  0
 13 14  1  0  0  0  0
 13 51  1  0  0  0  0
 14 52  1  0  0  0  0
 15 12  1  0  0  0  0
 16 30  1  0  0  0  0
 16  8  1  0  0  0  0
 17 18  1  0  0  0  0
 17 16  1  0  0  0  0
 18 56  1  0  0  0  0
 18 55  1  0  0  0  0
 19 20  1  6  0  0  0
 19 21  1  0  0  0  0
 19 18  1  0  0  0  0
 21 22  1  0  0  0  0
 21 57  1  0  0  0  0
 22 25  1  0  0  0  0
 22 23  1  1  0  0  0
 24 22  1  0  0  0  0
 25 60  1  0  0  0  0
 25 61  1  0  0  0  0
 26 28  1  0  0  0  0
 26 25  1  0  0  0  0
 27 26  2  0  0  0  0
 29 19  1  0  0  0  0
 30 31  2  0  0  0  0
 31  7  1  0  0  0  0
 31 32  1  0  0  0  0
 32 33  2  0  0  0  0
 32 34  1  0  0  0  0
 34 35  1  0  0  0  0
 35 36  2  0  0  0  0
 35 40  1  0  0  0  0
 36 37  1  0  0  0  0
 37 66  1  0  0  0  0
 37 38  2  0  0  0  0
 38 67  1  0  0  0  0
 39 38  1  0  0  0  0
 39 68  1  0  0  0  0
 40 39  2  0  0  0  0
 41 43  1  0  0  0  0
 41 30  1  0  0  0  0
 42 41  1  0  0  0  0
 42 71  1  0  0  0  0
 43 76  1  0  0  0  0
 43 74  1  0  0  0  0
 44  1  1  0  0  0  0
 45  3  1  0  0  0  0
 48  6  1  0  0  0  0
 49 10  1  0  0  0  0
 50 11  1  0  0  0  0
 53 17  1  0  0  0  0
 54 17  1  0  0  0  0
 58 21  1  0  0  0  0
 59 24  1  0  0  0  0
 62 28  1  0  0  0  0
 63 29  1  0  0  0  0
 64 34  1  0  0  0  0
 65 36  1  0  0  0  0
 69 40  1  0  0  0  0
 70 41  1  0  0  0  0
 72 42  1  0  0  0  0
 73 42  1  0  0  0  0
 75 43  1  0  0  0  0
M  END
$$$$
