
     RDKit          3D

 76 79  0  0  0  0  0  0  0  0999 V2000
    0.2887    0.0621    0.0020 C   0  0  0  0  0  0  0  0  0  0  0  0
    1.6945    0.0904   -0.0778 C   0  0  0  0  0  0  0  0  0  0  0  0
    2.4308    0.0456    1.1190 C   0  0  0  0  0  0  0  0  0  0  0  0
    1.7841   -0.0243    2.3560 C   0  0  0  0  0  0  0  0  0  0  0  0
    0.3888   -0.0413    2.4195 C   0  0  0  0  0  0  0  0  0  0  0  0
   -0.3569    0.0032    1.2364 C   0  0  0  0  0  0  0  0  0  0  0  0
    2.3703    0.1845   -1.3902 C   0  0  0  0  0  0  0  0  0  0  0  0
    3.3073   -0.7153   -1.8692 C   0  0  0  0  0  0  0  0  0  0  0  0
    3.8601   -1.9441   -1.2506 C   0  0  0  0  0  0  0  0  0  0  0  0
    3.2486   -3.1890   -1.4753 C   0  0  0  0  0  0  0  0  0  0  0  0
    3.7985   -4.3658   -0.9630 C   0  0  0  0  0  0  0  0  0  0  0  0
    4.9705   -4.2780   -0.2220 C   0  0  0  0  0  0  0  0  0  0  0  0
    5.6006   -3.0684    0.0421 C   0  0  0  0  0  0  0  0  0  0  0  0
    5.0295   -1.9034   -0.4721 C   0  0  0  0  0  0  0  0  0  0  0  0
    5.5399   -5.4203    0.2386 F   0  0  0  0  0  0  0  0  0  0  0  0
    3.6334   -0.3511   -3.1732 N   0  0  0  0  0  0  0  0  0  0  0  0
    4.5902   -1.1125   -3.9680 C   0  0  0  0  0  0  0  0  0  0  0  0
    6.0492   -0.8615   -3.5673 C   0  0  0  0  0  0  0  0  0  0  0  0
    6.9413   -2.0637   -3.8668 C   0  0  2  0  0  0  0  0  0  0  0  0
    6.4534   -2.9491   -3.4242 H   0  0  0  0  0  0  0  0  0  0  0  0
    8.3308   -1.9218   -3.2520 C   0  0  0  0  0  0  0  0  0  0  0  0
    9.3143   -3.0614   -3.5725 C   0  0  1  0  0  0  0  0  0  0  0  0
    9.6228   -2.9693   -4.6255 H   0  0  0  0  0  0  0  0  0  0  0  0
   10.4892   -2.9276   -2.8032 O   0  0  0  0  0  0  0  0  0  0  0  0
    8.7055   -4.4645   -3.4190 C   0  0  0  0  0  0  0  0  0  0  0  0
    8.1859   -4.7285   -2.0277 C   0  0  0  0  0  0  0  0  0  0  0  0
    8.6035   -4.1820   -1.0246 O   0  0  0  0  0  0  0  0  0  0  0  0
    7.2086   -5.6388   -2.0003 O   0  0  0  0  0  0  0  0  0  0  0  0
    6.9831   -2.3467   -5.2619 O   0  0  0  0  0  0  0  0  0  0  0  0
    2.9346    0.7775   -3.5368 C   0  0  0  0  0  0  0  0  0  0  0  0
    2.1309    1.1377   -2.4490 C   0  0  0  0  0  0  0  0  0  0  0  0
    1.2389    2.3246   -2.4290 C   0  0  0  0  0  0  0  0  0  0  0  0
    0.7599    2.8164   -3.4458 O   0  0  0  0  0  0  0  0  0  0  0  0
    1.0067    2.8355   -1.1699 N   0  0  0  0  0  0  0  0  0  0  0  0
    0.0733    3.7995   -0.7633 C   0  0  0  0  0  0  0  0  0  0  0  0
   -0.1632    3.9198    0.6194 C   0  0  0  0  0  0  0  0  0  0  0  0
   -1.0750    4.8562    1.1012 C   0  0  0  0  0  0  0  0  0  0  0  0
   -1.7722    5.6835    0.2151 C   0  0  0  0  0  0  0  0  0  0  0  0
   -1.5405    5.5589   -1.1571 C   0  0  0  0  0  0  0  0  0  0  0  0
   -0.6256    4.6297   -1.6572 C   0  0  0  0  0  0  0  0  0  0  0  0
    3.0321    1.4644   -4.8769 C   0  0  0  0  0  0  0  0  0  0  0  0
    4.4558    1.8600   -5.3020 C   0  0  0  0  0  0  0  0  0  0  0  0
    2.2870    0.6839   -5.9739 C   0  0  0  0  0  0  0  0  0  0  0  0
   -0.2961    0.0964   -0.9194 H   0  0  0  0  0  0  0  0  0  0  0  0
    3.5204    0.0811    1.0754 H   0  0  0  0  0  0  0  0  0  0  0  0
    2.3751   -0.0562    3.2745 H   0  0  0  0  0  0  0  0  0  0  0  0
   -0.1173   -0.0872    3.3866 H   0  0  0  0  0  0  0  0  0  0  0  0
   -1.4485   -0.0088    1.2758 H   0  0  0  0  0  0  0  0  0  0  0  0
    2.3324   -3.2324   -2.0675 H   0  0  0  0  0  0  0  0  0  0  0  0
    3.3401   -5.3401   -1.1387 H   0  0  0  0  0  0  0  0  0  0  0  0
    6.5302   -3.0574    0.6120 H   0  0  0  0  0  0  0  0  0  0  0  0
    5.5098   -0.9422   -0.2796 H   0  0  0  0  0  0  0  0  0  0  0  0
    4.4252   -0.9024   -5.0281 H   0  0  0  0  0  0  0  0  0  0  0  0
    4.3595   -2.1782   -3.8278 H   0  0  0  0  0  0  0  0  0  0  0  0
    6.0955   -0.6511   -2.4910 H   0  0  0  0  0  0  0  0  0  0  0  0
    6.4436    0.0370   -4.0717 H   0  0  0  0  0  0  0  0  0  0  0  0
    8.2173   -1.8593   -2.1580 H   0  0  0  0  0  0  0  0  0  0  0  0
    8.7972   -0.9724   -3.5696 H   0  0  0  0  0  0  0  0  0  0  0  0
   10.2278   -3.1249   -1.8885 H   0  0  0  0  0  0  0  0  0  0  0  0
    9.5016   -5.2037   -3.6121 H   0  0  0  0  0  0  0  0  0  0  0  0
    7.9115   -4.6457   -4.1564 H   0  0  0  0  0  0  0  0  0  0  0  0
    6.9107   -5.7515   -1.0765 H   0  0  0  0  0  0  0  0  0  0  0  0
    7.4564   -1.6234   -5.6968 H   0  0  0  0  0  0  0  0  0  0  0  0
    1.4657    2.3507   -0.4087 H   0  0  0  0  0  0  0  0  0  0  0  0
    0.3687    3.2624    1.3131 H   0  0  0  0  0  0  0  0  0  0  0  0
   -1.2450    4.9354    2.1779 H   0  0  0  0  0  0  0  0  0  0  0  0
   -2.4886    6.4171    0.5915 H   0  0  0  0  0  0  0  0  0  0  0  0
   -2.0792    6.1995   -1.8601 H   0  0  0  0  0  0  0  0  0  0  0  0
   -0.4431    4.5289   -2.7237 H   0  0  0  0  0  0  0  0  0  0  0  0
    2.4652    2.3928   -4.7358 H   0  0  0  0  0  0  0  0  0  0  0  0
    5.0599    1.0040   -5.6379 H   0  0  0  0  0  0  0  0  0  0  0  0
    4.9953    2.3566   -4.4807 H   0  0  0  0  0  0  0  0  0  0  0  0
    4.4054    2.5658   -6.1458 H   0  0  0  0  0  0  0  0  0  0  0  0
    2.7399   -0.3013   -6.1720 H   0  0  0  0  0  0  0  0  0  0  0  0
    2.2958    1.2505   -6.9188 H   0  0  0  0  0  0  0  0  0  0  0  0
    1.2390    0.5278   -5.6798 H   0  0  0  0  0  0  0  0  0  0  0  0
  1  2  2  0
  1  6  1  0
  1 44  1  0
  2  3  1  0
  2  7  1  0
  3  4  2  0
  3 45  1  0
  4  5  1  0
  4 46  1  0
  5  6  2  0
  5 47  1  0
  6 48  1  0
  7  8  2  0
  7 31  1  0
  8  9  1  0
  8 16  1  0
  9 10  2  0
  9 14  1  0
 10 11  1  0
 10 49  1  0
 11 12  2  0
 11 50  1  0
 12 13  1  0
 12 15  1  0
 13 14  2  0
 13 51  1  0
 14 52  1  0
 16 17  1  0
 16 30  1  0
 17 18  1  0
 17 53  1  0
 17 54  1  0
 18 19  1  0
 18 55  1  0
 18 56  1  0
 19 20  1  1
 19 21  1  0
 19 29  1  0
 21 22  1  0
 21 57  1  0
 21 58  1  0
 22 23  1  6
 22 24  1  0
 22 25  1  0
 24 59  1  0
 25 26  1  0
 25 60  1  0
 25 61  1  0
 26 27  2  0
 26 28  1  0
 28 62  1  0
 29 63  1  0
 30 31  2  0
 30 41  1  0
 31 32  1  0
 32 33  2  0
 32 34  1  0
 34 35  1  0
 34 64  1  0
 35 36  2  0
 35 40  1  0
 36 37  1  0
 36 65  1  0
 37 38  2  0
 37 66  1  0
 38 39  1  0
 38 67  1  0
 39 40  2  0
 39 68  1  0
 40 69  1  0
 41 42  1  0
 41 43  1  0
 41 70  1  0
 42 71  1  0
 42 72  1  0
 42 73  1  0
 43 74  1  0
 43 75  1  0
 43 76  1  0
M  END

