76

C         -0.14760        0.04550       -0.30200
C          1.25160       -0.01600       -0.18370
C          1.81940       -0.01430        1.10150
C          1.01010        0.04490        2.23620
C         -0.38170        0.10240        2.10640
C         -0.95960        0.10160        0.83490
C          2.11120       -0.01900       -1.39300
C          2.36720       -1.13020       -2.18240
C          1.92520       -2.52480       -1.99130
C          0.56240       -2.86440       -2.02400
C          0.13940       -4.17920       -1.83080
C          1.09500       -5.16600       -1.60910
C          2.45590       -4.86900       -1.56840
C          2.86230       -3.54810       -1.75460
F          0.69800       -6.43480       -1.43610
N          3.26050       -0.74260       -3.18200
C          3.48860       -1.54430       -4.38480
C          2.56720       -1.17670       -5.55450
C          1.06320       -1.18310       -5.24030
H          0.83660       -2.10140       -4.66260
C          0.23840       -1.20530       -6.52420
C         -1.26970       -0.98520       -6.32760
H         -1.41630        0.04850       -5.98430
O         -1.95750       -1.10470       -7.55330
C         -1.89190       -1.89740       -5.25560
C         -1.76210       -3.36090       -5.58770
O         -1.68970       -3.81460       -6.71020
O         -1.74830       -4.15240       -4.50110
O          0.65640       -0.03970       -4.49890
C          3.57880        0.59220       -3.04570
C          2.89170        1.07460       -1.92260
C          2.97790        2.45870       -1.38280
O          3.91860        3.20880       -1.61910
N          1.91530        2.82960       -0.59230
C          1.75240        3.97980        0.19410
C          2.60170        5.09800        0.12930
C          2.35390        6.19550        0.95690
C          1.27640        6.20590        1.84600
C          0.43390        5.09130        1.90800
C          0.66910        3.98610        1.09370
C          4.45970        1.28980       -4.05520
C          3.76140        2.50780       -4.68260
C          5.84470        1.63180       -3.47910
H         -0.59610        0.07360       -1.29790
H          2.90630       -0.04640        1.20060
H          1.46710        0.05090        3.22830
H         -1.01350        0.15240        2.99620
H         -2.04530        0.15120        0.72460
H         -0.17850       -2.08950       -2.21820
H         -0.91670       -4.44530       -1.87740
H          3.17440       -5.66910       -1.38280
H          3.92470       -3.29960       -1.70520
H          3.32920       -2.59280       -4.10550
H          4.54240       -1.45340       -4.68190
H          2.76390       -1.90350       -6.36040
H          2.82230       -0.18240       -5.95340
H          0.39840       -2.17100       -7.03060
H          0.59580       -0.42100       -7.21110
H         -1.91400       -2.04420       -7.79530
H         -2.97230       -1.67790       -5.20550
H         -1.47490       -1.69790       -4.25980
H         -1.68280       -5.07140       -4.81690
H          1.04340       -0.07540       -3.61190
H          1.18330        2.14030       -0.47430
H          3.44010        5.08670       -0.56180
H          3.02000        7.06020        0.89930
H          1.09390        7.07280        2.48490
H         -0.41210        5.07840        2.59960
H          0.01810        3.10930        1.15370
H          4.62860        0.57260       -4.87090
H          3.64840        3.31390       -3.94630
H          2.76410        2.23260       -5.05980
H          4.35950        2.89290       -5.52370
H          5.74340        2.34980       -2.65590
H          6.48020        2.07250       -4.26420
H          6.34770        0.72730       -3.10100
