rmsd187.gzmat
 OpenBabel08211713423D

 76 79  0  0  1  0  0  0  0  0999 V2000
    0.0000    0.0000    0.0000 C   0  0  0  0  0  0  0  0  0  0  0  0
    1.3985    0.0000    0.0000 C   0  0  0  0  0  0  0  0  0  0  0  0
    2.0965    0.0000    1.2115 C   0  0  0  0  0  0  0  0  0  0  0  0
    1.3981    0.0093    2.4155 C   0  0  0  0  0  0  0  0  0  0  0  0
    0.0041    0.0198    2.4140 C   0  0  0  0  0  0  0  0  0  0  0  0
   -0.6934    0.0135    1.2067 C   0  0  0  0  0  0  0  0  0  0  0  0
    2.1248    0.0031   -1.2554 C   0  0  0  0  0  0  0  0  0  0  0  0
    3.1206   -0.9023   -1.6252 C   0  0  0  0  0  0  0  0  0  0  0  0
    3.6437   -2.0198   -0.8589 C   0  0  0  0  0  0  0  0  0  0  0  0
    2.7979   -3.0951   -0.5647 C   0  0  0  0  0  0  0  0  0  0  0  0
    3.2682   -4.1729    0.1787 C   0  0  0  0  0  0  0  0  0  0  0  0
    4.5922   -4.1377    0.6124 C   0  0  0  0  0  0  0  0  0  0  0  0
    5.4548   -3.0759    0.3457 C   0  0  0  0  0  0  0  0  0  0  0  0
    4.9627   -2.0051   -0.3942 C   0  0  0  0  0  0  0  0  0  0  0  0
    5.0561   -5.1701    1.3030 F   0  0  0  0  0  0  0  0  0  0  0  0
    3.5607   -0.5671   -2.9112 N   0  0  0  0  0  0  0  0  0  0  0  0
    4.5492   -1.3612   -3.6305 C   0  0  0  0  0  0  0  0  0  0  0  0
    3.9303   -2.6780   -4.1345 C   0  0  0  0  0  0  0  0  0  0  0  0
    5.0296   -3.7337   -4.3382 C   0  0  2  0  0  0  0  0  0  0  0  0
    4.7539   -4.4386   -5.1564 H   0  0  0  0  0  0  0  0  0  0  0  0
    5.3347   -4.4992   -3.0369 C   0  0  0  0  0  0  0  0  0  0  0  0
    6.4600   -5.5145   -3.2628 C   0  0  1  0  0  0  0  0  0  0  0  0
    6.3165   -6.0853   -4.2125 H   0  0  0  0  0  0  0  0  0  0  0  0
    7.6738   -4.8362   -3.5001 O   0  0  0  0  0  0  0  0  0  0  0  0
    6.6164   -6.4867   -2.0768 C   0  0  0  0  0  0  0  0  0  0  0  0
    7.1928   -5.8170   -0.8741 C   0  0  0  0  0  0  0  0  0  0  0  0
    7.7267   -4.7340   -0.8034 O   0  0  0  0  0  0  0  0  0  0  0  0
    7.0803   -6.6096    0.2125 O   0  0  0  0  0  0  0  0  0  0  0  0
    6.1632   -3.0225   -4.7901 O   0  0  0  0  0  0  0  0  0  0  0  0
    2.8488    0.5250   -3.3665 C   0  0  0  0  0  0  0  0  0  0  0  0
    1.9608    0.9079   -2.3437 C   0  0  0  0  0  0  0  0  0  0  0  0
    1.0330    2.0358   -2.4117 C   0  0  0  0  0  0  0  0  0  0  0  0
    0.3922    2.3271   -3.3999 O   0  0  0  0  0  0  0  0  0  0  0  0
    0.9587    2.7848   -1.2327 N   0  0  0  0  0  0  0  0  0  0  0  0
    0.0969    3.8722   -0.9922 C   0  0  0  0  0  0  0  0  0  0  0  0
    0.1366    4.4365    0.2984 C   0  0  0  0  0  0  0  0  0  0  0  0
   -0.6786    5.5192    0.6019 C   0  0  0  0  0  0  0  0  0  0  0  0
   -1.5348    6.0511   -0.3616 C   0  0  0  0  0  0  0  0  0  0  0  0
   -1.5747    5.4869   -1.6352 C   0  0  0  0  0  0  0  0  0  0  0  0
   -0.7688    4.4004   -1.9597 C   0  0  0  0  0  0  0  0  0  0  0  0
    3.0232    1.2097   -4.6803 C   0  0  0  0  0  0  0  0  0  0  0  0
    4.4020    1.8727   -4.7700 C   0  0  0  0  0  0  0  0  0  0  0  0
    2.7690    0.2684   -5.8615 C   0  0  0  0  0  0  0  0  0  0  0  0
   -0.5408   -0.0040   -0.9462 H   0  0  0  0  0  0  0  0  0  0  0  0
    3.1850   -0.0092    1.2077 H   0  0  0  0  0  0  0  0  0  0  0  0
    1.9418    0.0089    3.3573 H   0  0  0  0  0  0  0  0  0  0  0  0
   -0.5398    0.0333    3.3554 H   0  0  0  0  0  0  0  0  0  0  0  0
   -1.7817    0.0237    1.2061 H   0  0  0  0  0  0  0  0  0  0  0  0
    1.7634   -3.0772   -0.9134 H   0  0  0  0  0  0  0  0  0  0  0  0
    2.6161   -5.0099    0.4204 H   0  0  0  0  0  0  0  0  0  0  0  0
    6.4875   -3.0806    0.6969 H   0  0  0  0  0  0  0  0  0  0  0  0
    5.6043   -1.1482   -0.6055 H   0  0  0  0  0  0  0  0  0  0  0  0
    5.4140   -1.5695   -2.9548 H   0  0  0  0  0  0  0  0  0  0  0  0
    4.9714   -0.7818   -4.4850 H   0  0  0  0  0  0  0  0  0  0  0  0
    3.3955   -2.4993   -5.0865 H   0  0  0  0  0  0  0  0  0  0  0  0
    3.1648   -3.0495   -3.4267 H   0  0  0  0  0  0  0  0  0  0  0  0
    4.4205   -4.9974   -2.6678 H   0  0  0  0  0  0  0  0  0  0  0  0
    5.6251   -3.7833   -2.2384 H   0  0  0  0  0  0  0  0  0  0  0  0
    7.9941   -4.3980   -2.6711 H   0  0  0  0  0  0  0  0  0  0  0  0
    7.2884   -7.3276   -2.3715 H   0  0  0  0  0  0  0  0  0  0  0  0
    5.6455   -6.9697   -1.8308 H   0  0  0  0  0  0  0  0  0  0  0  0
    7.4771   -6.2226    1.0371 H   0  0  0  0  0  0  0  0  0  0  0  0
    6.9856   -3.4942   -4.5159 H   0  0  0  0  0  0  0  0  0  0  0  0
    1.5224    2.4736   -0.4405 H   0  0  0  0  0  0  0  0  0  0  0  0
    0.7989    4.0274    1.0557 H   0  0  0  0  0  0  0  0  0  0  0  0
   -0.6485    5.9541    1.5995 H   0  0  0  0  0  0  0  0  0  0  0  0
   -2.1666    6.9000   -0.1204 H   0  0  0  0  0  0  0  0  0  0  0  0
   -2.2443    5.8993   -2.3891 H   0  0  0  0  0  0  0  0  0  0  0  0
   -0.8177    3.9705   -2.9622 H   0  0  0  0  0  0  0  0  0  0  0  0
    2.2418    2.0286   -4.7369 H   0  0  0  0  0  0  0  0  0  0  0  0
    5.2174    1.1434   -4.8056 H   0  0  0  0  0  0  0  0  0  0  0  0
    4.5809    2.5284   -3.9082 H   0  0  0  0  0  0  0  0  0  0  0  0
    4.4792    2.4895   -5.6732 H   0  0  0  0  0  0  0  0  0  0  0  0
    3.5912   -0.4341   -6.0269 H   0  0  0  0  0  0  0  0  0  0  0  0
    2.6408    0.8391   -6.7897 H   0  0  0  0  0  0  0  0  0  0  0  0
    1.8498   -0.3115   -5.7096 H   0  0  0  0  0  0  0  0  0  0  0  0
  1  2  2  0  0  0  0
  1  6  1  0  0  0  0
  2  3  1  0  0  0  0
  3  4  2  0  0  0  0
  4 46  1  0  0  0  0
  5  4  1  0  0  0  0
  5 47  1  0  0  0  0
  6  5  2  0  0  0  0
  7  2  1  0  0  0  0
  8  7  2  0  0  0  0
  8  9  1  0  0  0  0
  9 10  2  0  0  0  0
  9 14  1  0  0  0  0
 10 11  1  0  0  0  0
 11 50  1  0  0  0  0
 11 12  2  0  0  0  0
 12 15  1  0  0  0  0
 13 12  1  0  0  0  0
 13 51  1  0  0  0  0
 14 13  2  0  0  0  0
 16  8  1  0  0  0  0
 17 53  1  0  0  0  0
 17 16  1  0  0  0  0
 18 17  1  0  0  0  0
 18 56  1  0  0  0  0
 19 20  1  6  0  0  0
 19 18  1  0  0  0  0
 19 21  1  0  0  0  0
 21 57  1  0  0  0  0
 21 58  1  0  0  0  0
 22 23  1  6  0  0  0
 22 21  1  0  0  0  0
 22 25  1  0  0  0  0
 24 22  1  0  0  0  0
 24 59  1  0  0  0  0
 25 61  1  0  0  0  0
 25 26  1  0  0  0  0
 26 27  2  0  0  0  0
 26 28  1  0  0  0  0
 28 62  1  0  0  0  0
 29 63  1  0  0  0  0
 29 19  1  0  0  0  0
 30 16  1  0  0  0  0
 30 31  2  0  0  0  0
 31  7  1  0  0  0  0
 32 31  1  0  0  0  0
 32 34  1  0  0  0  0
 33 32  2  0  0  0  0
 34 35  1  0  0  0  0
 34 64  1  0  0  0  0
 35 36  2  0  0  0  0
 36 37  1  0  0  0  0
 36 65  1  0  0  0  0
 37 66  1  0  0  0  0
 38 67  1  0  0  0  0
 38 37  2  0  0  0  0
 39 38  1  0  0  0  0
 40 39  2  0  0  0  0
 40 35  1  0  0  0  0
 41 30  1  0  0  0  0
 42 41  1  0  0  0  0
 42 72  1  0  0  0  0
 43 76  1  0  0  0  0
 43 41  1  0  0  0  0
 44  1  1  0  0  0  0
 45  3  1  0  0  0  0
 48  6  1  0  0  0  0
 49 10  1  0  0  0  0
 52 14  1  0  0  0  0
 54 17  1  0  0  0  0
 55 18  1  0  0  0  0
 60 25  1  0  0  0  0
 68 39  1  0  0  0  0
 69 40  1  0  0  0  0
 70 41  1  0  0  0  0
 71 42  1  0  0  0  0
 73 42  1  0  0  0  0
 74 43  1  0  0  0  0
 75 43  1  0  0  0  0
M  END
$$$$
