rmsd34.gzmat
 OpenBabel08211713423D

 76 79  0  0  1  0  0  0  0  0999 V2000
    0.0000    0.0000    0.0000 C   0  0  0  0  0  0  0  0  0  0  0  0
    1.3977    0.0000    0.0000 C   0  0  0  0  0  0  0  0  0  0  0  0
    2.0996    0.0000    1.2084 C   0  0  0  0  0  0  0  0  0  0  0  0
    1.4018    0.0051    2.4132 C   0  0  0  0  0  0  0  0  0  0  0  0
    0.0077    0.0110    2.4139 C   0  0  0  0  0  0  0  0  0  0  0  0
   -0.6918    0.0053    1.2085 C   0  0  0  0  0  0  0  0  0  0  0  0
    2.1264    0.0221   -1.2563 C   0  0  0  0  0  0  0  0  0  0  0  0
    2.2333   -1.0252   -2.1685 C   0  0  0  0  0  0  0  0  0  0  0  0
    1.6710   -2.3627   -2.0885 C   0  0  0  0  0  0  0  0  0  0  0  0
    0.2951   -2.5449   -2.2645 C   0  0  0  0  0  0  0  0  0  0  0  0
   -0.2586   -3.8184   -2.1846 C   0  0  0  0  0  0  0  0  0  0  0  0
    0.5970   -4.8875   -1.9214 C   0  0  0  0  0  0  0  0  0  0  0  0
    1.9688   -4.7345   -1.7252 C   0  0  0  0  0  0  0  0  0  0  0  0
    2.5019   -3.4518   -1.8081 C   0  0  0  0  0  0  0  0  0  0  0  0
    0.0837   -6.1073   -1.8571 F   0  0  0  0  0  0  0  0  0  0  0  0
    3.0395   -0.5885   -3.2288 N   0  0  0  0  0  0  0  0  0  0  0  0
    3.3308   -1.3839   -4.4158 C   0  0  0  0  0  0  0  0  0  0  0  0
    2.4337   -1.0002   -5.6044 C   0  0  0  0  0  0  0  0  0  0  0  0
    0.9623   -1.3830   -5.3793 C   0  0  2  0  0  0  0  0  0  0  0  0
    0.8779   -2.3036   -4.7547 H   0  0  0  0  0  0  0  0  0  0  0  0
    0.2165   -1.5418   -6.7068 C   0  0  0  0  0  0  0  0  0  0  0  0
   -1.3080   -1.5026   -6.5118 C   0  0  1  0  0  0  0  0  0  0  0  0
   -1.6514   -0.4716   -6.2504 H   0  0  0  0  0  0  0  0  0  0  0  0
   -1.9354   -1.7427   -7.7463 O   0  0  0  0  0  0  0  0  0  0  0  0
   -1.8217   -2.5153   -5.4684 C   0  0  0  0  0  0  0  0  0  0  0  0
   -1.4088   -3.9057   -5.8023 C   0  0  0  0  0  0  0  0  0  0  0  0
   -1.1489   -4.3821   -6.8793 O   0  0  0  0  0  0  0  0  0  0  0  0
   -1.3492   -4.6681   -4.6812 O   0  0  0  0  0  0  0  0  0  0  0  0
    0.2727   -0.3533   -4.6910 O   0  0  0  0  0  0  0  0  0  0  0  0
    3.4358    0.7214   -2.9994 C   0  0  0  0  0  0  0  0  0  0  0  0
    2.8851    1.1167   -1.7725 C   0  0  0  0  0  0  0  0  0  0  0  0
    3.0856    2.4034   -1.1008 C   0  0  0  0  0  0  0  0  0  0  0  0
    4.1567    2.9629   -1.0032 O   0  0  0  0  0  0  0  0  0  0  0  0
    1.9143    2.9600   -0.5776 N   0  0  0  0  0  0  0  0  0  0  0  0
    1.8491    4.1313    0.2057 C   0  0  0  0  0  0  0  0  0  0  0  0
    2.8811    5.0777    0.2540 C   0  0  0  0  0  0  0  0  0  0  0  0
    2.7302    6.2112    1.0470 C   0  0  0  0  0  0  0  0  0  0  0  0
    1.5656    6.4169    1.7840 C   0  0  0  0  0  0  0  0  0  0  0  0
    0.5366    5.4777    1.7262 C   0  0  0  0  0  0  0  0  0  0  0  0
    0.6680    4.3373    0.9445 C   0  0  0  0  0  0  0  0  0  0  0  0
    4.2913    1.4791   -3.9598 C   0  0  0  0  0  0  0  0  0  0  0  0
    3.6822    2.8585   -4.2371 C   0  0  0  0  0  0  0  0  0  0  0  0
    5.7056    1.6069   -3.3821 C   0  0  0  0  0  0  0  0  0  0  0  0
   -0.5445   -0.0039   -0.9412 H   0  0  0  0  0  0  0  0  0  0  0  0
    3.1894    0.0020    1.2020 H   0  0  0  0  0  0  0  0  0  0  0  0
    1.9469    0.0084    3.3558 H   0  0  0  0  0  0  0  0  0  0  0  0
   -0.5346    0.0203    3.3567 H   0  0  0  0  0  0  0  0  0  0  0  0
   -1.7796    0.0048    1.2113 H   0  0  0  0  0  0  0  0  0  0  0  0
   -0.3426   -1.6815   -2.4670 H   0  0  0  0  0  0  0  0  0  0  0  0
   -1.3279   -3.9749   -2.3319 H   0  0  0  0  0  0  0  0  0  0  0  0
    2.6060   -5.5888   -1.5048 H   0  0  0  0  0  0  0  0  0  0  0  0
    3.5674   -3.2904   -1.6402 H   0  0  0  0  0  0  0  0  0  0  0  0
    3.2048   -2.4674   -4.1719 H   0  0  0  0  0  0  0  0  0  0  0  0
    4.4060   -1.2547   -4.6883 H   0  0  0  0  0  0  0  0  0  0  0  0
    2.8194   -1.4955   -6.5172 H   0  0  0  0  0  0  0  0  0  0  0  0
    2.4960    0.0886   -5.8099 H   0  0  0  0  0  0  0  0  0  0  0  0
    0.5172   -2.4837   -7.2050 H   0  0  0  0  0  0  0  0  0  0  0  0
    0.4894   -0.7273   -7.4084 H   0  0  0  0  0  0  0  0  0  0  0  0
   -1.7512   -2.6570   -8.0613 H   0  0  0  0  0  0  0  0  0  0  0  0
   -2.9345   -2.4625   -5.4288 H   0  0  0  0  0  0  0  0  0  0  0  0
   -1.4784   -2.2173   -4.4512 H   0  0  0  0  0  0  0  0  0  0  0  0
   -1.0928   -5.6098   -4.8449 H   0  0  0  0  0  0  0  0  0  0  0  0
    0.8189    0.0011   -3.9606 H   0  0  0  0  0  0  0  0  0  0  0  0
    1.0588    2.4080   -0.6351 H   0  0  0  0  0  0  0  0  0  0  0  0
    3.7995    4.9339   -0.3174 H   0  0  0  0  0  0  0  0  0  0  0  0
    3.5349    6.9441    1.0912 H   0  0  0  0  0  0  0  0  0  0  0  0
    1.4593    7.3033    2.4020 H   0  0  0  0  0  0  0  0  0  0  0  0
   -0.3750    5.6363    2.2998 H   0  0  0  0  0  0  0  0  0  0  0  0
   -0.1345    3.6062    0.9132 H   0  0  0  0  0  0  0  0  0  0  0  0
    4.3601    0.9333   -4.9359 H   0  0  0  0  0  0  0  0  0  0  0  0
    3.7709    3.5193   -3.3614 H   0  0  0  0  0  0  0  0  0  0  0  0
    2.6195    2.7914   -4.4924 H   0  0  0  0  0  0  0  0  0  0  0  0
    4.1974    3.3575   -5.0645 H   0  0  0  0  0  0  0  0  0  0  0  0
    5.6896    2.1324   -2.4105 H   0  0  0  0  0  0  0  0  0  0  0  0
    6.3572    2.1802   -4.0484 H   0  0  0  0  0  0  0  0  0  0  0  0
    6.1651    0.6295   -3.2108 H   0  0  0  0  0  0  0  0  0  0  0  0
  1  2  2  0  0  0  0
  1  6  1  0  0  0  0
  2  3  1  0  0  0  0
  3  4  2  0  0  0  0
  4  5  1  0  0  0  0
  4 46  1  0  0  0  0
  5 47  1  0  0  0  0
  6 48  1  0  0  0  0
  6  5  2  0  0  0  0
  7  2  1  0  0  0  0
  8  9  1  0  0  0  0
  8  7  2  0  0  0  0
  9 14  2  0  0  0  0
 10 11  2  0  0  0  0
 10  9  1  0  0  0  0
 11 12  1  0  0  0  0
 12 15  1  0  0  0  0
 12 13  2  0  0  0  0
 13 51  1  0  0  0  0
 14 13  1  0  0  0  0
 14 52  1  0  0  0  0
 16 30  1  0  0  0  0
 16  8  1  0  0  0  0
 17 53  1  0  0  0  0
 17 16  1  0  0  0  0
 18 19  1  0  0  0  0
 18 17  1  0  0  0  0
 19 20  1  1  0  0  0
 19 29  1  0  0  0  0
 21 22  1  0  0  0  0
 21 19  1  0  0  0  0
 22 23  1  1  0  0  0
 22 25  1  0  0  0  0
 24 22  1  0  0  0  0
 25 60  1  0  0  0  0
 25 61  1  0  0  0  0
 26 25  1  0  0  0  0
 26 28  1  0  0  0  0
 27 26  2  0  0  0  0
 29 63  1  0  0  0  0
 30 31  2  0  0  0  0
 31  7  1  0  0  0  0
 31 32  1  0  0  0  0
 32 33  2  0  0  0  0
 32 34  1  0  0  0  0
 34 35  1  0  0  0  0
 35 36  2  0  0  0  0
 35 40  1  0  0  0  0
 36 37  1  0  0  0  0
 37 66  1  0  0  0  0
 37 38  2  0  0  0  0
 38 67  1  0  0  0  0
 39 38  1  0  0  0  0
 39 68  1  0  0  0  0
 40 39  2  0  0  0  0
 41 43  1  0  0  0  0
 41 30  1  0  0  0  0
 42 41  1  0  0  0  0
 42 71  1  0  0  0  0
 43 76  1  0  0  0  0
 43 74  1  0  0  0  0
 44  1  1  0  0  0  0
 45  3  1  0  0  0  0
 49 10  1  0  0  0  0
 50 11  1  0  0  0  0
 54 17  1  0  0  0  0
 55 18  1  0  0  0  0
 56 18  1  0  0  0  0
 57 21  1  0  0  0  0
 58 21  1  0  0  0  0
 59 24  1  0  0  0  0
 62 28  1  0  0  0  0
 64 34  1  0  0  0  0
 65 36  1  0  0  0  0
 69 40  1  0  0  0  0
 70 41  1  0  0  0  0
 72 42  1  0  0  0  0
 73 42  1  0  0  0  0
 75 43  1  0  0  0  0
M  END
$$$$
