
     RDKit          3D

 76 79  0  0  0  0  0  0  0  0999 V2000
   -0.1476    0.0455   -0.3020 C   0  0  0  0  0  0  0  0  0  0  0  0
    1.2516   -0.0160   -0.1837 C   0  0  0  0  0  0  0  0  0  0  0  0
    1.8194   -0.0143    1.1015 C   0  0  0  0  0  0  0  0  0  0  0  0
    1.0101    0.0449    2.2362 C   0  0  0  0  0  0  0  0  0  0  0  0
   -0.3817    0.1024    2.1064 C   0  0  0  0  0  0  0  0  0  0  0  0
   -0.9596    0.1016    0.8349 C   0  0  0  0  0  0  0  0  0  0  0  0
    2.1112   -0.0190   -1.3930 C   0  0  0  0  0  0  0  0  0  0  0  0
    2.3672   -1.1302   -2.1824 C   0  0  0  0  0  0  0  0  0  0  0  0
    1.9252   -2.5248   -1.9913 C   0  0  0  0  0  0  0  0  0  0  0  0
    0.5624   -2.8644   -2.0240 C   0  0  0  0  0  0  0  0  0  0  0  0
    0.1394   -4.1792   -1.8308 C   0  0  0  0  0  0  0  0  0  0  0  0
    1.0950   -5.1660   -1.6091 C   0  0  0  0  0  0  0  0  0  0  0  0
    2.4559   -4.8690   -1.5684 C   0  0  0  0  0  0  0  0  0  0  0  0
    2.8623   -3.5481   -1.7546 C   0  0  0  0  0  0  0  0  0  0  0  0
    0.6980   -6.4348   -1.4361 F   0  0  0  0  0  0  0  0  0  0  0  0
    3.2605   -0.7426   -3.1820 N   0  0  0  0  0  0  0  0  0  0  0  0
    3.4886   -1.5443   -4.3848 C   0  0  0  0  0  0  0  0  0  0  0  0
    2.5672   -1.1767   -5.5545 C   0  0  0  0  0  0  0  0  0  0  0  0
    1.0632   -1.1831   -5.2403 C   0  0  2  0  0  0  0  0  0  0  0  0
    0.8366   -2.1014   -4.6626 H   0  0  0  0  0  0  0  0  0  0  0  0
    0.2384   -1.2053   -6.5242 C   0  0  0  0  0  0  0  0  0  0  0  0
   -1.2697   -0.9852   -6.3276 C   0  0  1  0  0  0  0  0  0  0  0  0
   -1.4163    0.0485   -5.9843 H   0  0  0  0  0  0  0  0  0  0  0  0
   -1.9575   -1.1047   -7.5533 O   0  0  0  0  0  0  0  0  0  0  0  0
   -1.8919   -1.8974   -5.2556 C   0  0  0  0  0  0  0  0  0  0  0  0
   -1.7621   -3.3609   -5.5877 C   0  0  0  0  0  0  0  0  0  0  0  0
   -1.6897   -3.8146   -6.7102 O   0  0  0  0  0  0  0  0  0  0  0  0
   -1.7483   -4.1524   -4.5011 O   0  0  0  0  0  0  0  0  0  0  0  0
    0.6564   -0.0397   -4.4989 O   0  0  0  0  0  0  0  0  0  0  0  0
    3.5788    0.5922   -3.0457 C   0  0  0  0  0  0  0  0  0  0  0  0
    2.8917    1.0746   -1.9226 C   0  0  0  0  0  0  0  0  0  0  0  0
    2.9779    2.4587   -1.3828 C   0  0  0  0  0  0  0  0  0  0  0  0
    3.9186    3.2088   -1.6191 O   0  0  0  0  0  0  0  0  0  0  0  0
    1.9153    2.8296   -0.5923 N   0  0  0  0  0  0  0  0  0  0  0  0
    1.7524    3.9798    0.1941 C   0  0  0  0  0  0  0  0  0  0  0  0
    2.6017    5.0980    0.1293 C   0  0  0  0  0  0  0  0  0  0  0  0
    2.3539    6.1955    0.9569 C   0  0  0  0  0  0  0  0  0  0  0  0
    1.2764    6.2059    1.8460 C   0  0  0  0  0  0  0  0  0  0  0  0
    0.4339    5.0913    1.9080 C   0  0  0  0  0  0  0  0  0  0  0  0
    0.6691    3.9861    1.0937 C   0  0  0  0  0  0  0  0  0  0  0  0
    4.4597    1.2898   -4.0552 C   0  0  0  0  0  0  0  0  0  0  0  0
    3.7614    2.5078   -4.6826 C   0  0  0  0  0  0  0  0  0  0  0  0
    5.8447    1.6318   -3.4791 C   0  0  0  0  0  0  0  0  0  0  0  0
   -0.5961    0.0736   -1.2979 H   0  0  0  0  0  0  0  0  0  0  0  0
    2.9063   -0.0464    1.2006 H   0  0  0  0  0  0  0  0  0  0  0  0
    1.4671    0.0509    3.2283 H   0  0  0  0  0  0  0  0  0  0  0  0
   -1.0135    0.1524    2.9962 H   0  0  0  0  0  0  0  0  0  0  0  0
   -2.0453    0.1512    0.7246 H   0  0  0  0  0  0  0  0  0  0  0  0
   -0.1785   -2.0895   -2.2182 H   0  0  0  0  0  0  0  0  0  0  0  0
   -0.9167   -4.4453   -1.8774 H   0  0  0  0  0  0  0  0  0  0  0  0
    3.1744   -5.6691   -1.3828 H   0  0  0  0  0  0  0  0  0  0  0  0
    3.9247   -3.2996   -1.7052 H   0  0  0  0  0  0  0  0  0  0  0  0
    3.3292   -2.5928   -4.1055 H   0  0  0  0  0  0  0  0  0  0  0  0
    4.5424   -1.4534   -4.6819 H   0  0  0  0  0  0  0  0  0  0  0  0
    2.7639   -1.9035   -6.3604 H   0  0  0  0  0  0  0  0  0  0  0  0
    2.8223   -0.1824   -5.9534 H   0  0  0  0  0  0  0  0  0  0  0  0
    0.3984   -2.1710   -7.0306 H   0  0  0  0  0  0  0  0  0  0  0  0
    0.5958   -0.4210   -7.2111 H   0  0  0  0  0  0  0  0  0  0  0  0
   -1.9140   -2.0442   -7.7953 H   0  0  0  0  0  0  0  0  0  0  0  0
   -2.9723   -1.6779   -5.2055 H   0  0  0  0  0  0  0  0  0  0  0  0
   -1.4749   -1.6979   -4.2598 H   0  0  0  0  0  0  0  0  0  0  0  0
   -1.6828   -5.0714   -4.8169 H   0  0  0  0  0  0  0  0  0  0  0  0
    1.0434   -0.0754   -3.6119 H   0  0  0  0  0  0  0  0  0  0  0  0
    1.1833    2.1403   -0.4743 H   0  0  0  0  0  0  0  0  0  0  0  0
    3.4401    5.0867   -0.5618 H   0  0  0  0  0  0  0  0  0  0  0  0
    3.0200    7.0602    0.8993 H   0  0  0  0  0  0  0  0  0  0  0  0
    1.0939    7.0728    2.4849 H   0  0  0  0  0  0  0  0  0  0  0  0
   -0.4121    5.0784    2.5996 H   0  0  0  0  0  0  0  0  0  0  0  0
    0.0181    3.1093    1.1537 H   0  0  0  0  0  0  0  0  0  0  0  0
    4.6286    0.5726   -4.8709 H   0  0  0  0  0  0  0  0  0  0  0  0
    3.6484    3.3139   -3.9463 H   0  0  0  0  0  0  0  0  0  0  0  0
    2.7641    2.2326   -5.0598 H   0  0  0  0  0  0  0  0  0  0  0  0
    4.3595    2.8929   -5.5237 H   0  0  0  0  0  0  0  0  0  0  0  0
    5.7434    2.3498   -2.6559 H   0  0  0  0  0  0  0  0  0  0  0  0
    6.4802    2.0725   -4.2642 H   0  0  0  0  0  0  0  0  0  0  0  0
    6.3477    0.7273   -3.1010 H   0  0  0  0  0  0  0  0  0  0  0  0
  1  2  2  0
  1  6  1  0
  1 44  1  0
  2  3  1  0
  2  7  1  0
  3  4  2  0
  3 45  1  0
  4  5  1  0
  4 46  1  0
  5  6  2  0
  5 47  1  0
  6 48  1  0
  7  8  2  0
  7 31  1  0
  8  9  1  0
  8 16  1  0
  9 10  2  0
  9 14  1  0
 10 11  1  0
 10 49  1  0
 11 12  2  0
 11 50  1  0
 12 13  1  0
 12 15  1  0
 13 14  2  0
 13 51  1  0
 14 52  1  0
 16 17  1  0
 16 30  1  0
 17 18  1  0
 17 53  1  0
 17 54  1  0
 18 19  1  0
 18 55  1  0
 18 56  1  0
 19 20  1  1
 19 21  1  0
 19 29  1  0
 21 22  1  0
 21 57  1  0
 21 58  1  0
 22 23  1  1
 22 24  1  0
 22 25  1  0
 24 59  1  0
 25 26  1  0
 25 60  1  0
 25 61  1  0
 26 27  2  0
 26 28  1  0
 28 62  1  0
 29 63  1  0
 30 31  2  0
 30 41  1  0
 31 32  1  0
 32 33  2  0
 32 34  1  0
 34 35  1  0
 34 64  1  0
 35 36  2  0
 35 40  1  0
 36 37  1  0
 36 65  1  0
 37 38  2  0
 37 66  1  0
 38 39  1  0
 38 67  1  0
 39 40  2  0
 39 68  1  0
 40 69  1  0
 41 42  1  0
 41 43  1  0
 41 70  1  0
 42 71  1  0
 42 72  1  0
 42 73  1  0
 43 74  1  0
 43 75  1  0
 43 76  1  0
M  END

