
     RDKit          3D

 76 79  0  0  0  0  0  0  0  0999 V2000
    0.0304    0.1728   -0.1797 C   0  0  0  0  0  0  0  0  0  0  0  0
    1.4367    0.1575   -0.1855 C   0  0  0  0  0  0  0  0  0  0  0  0
    2.1091    0.1182    1.0511 C   0  0  0  0  0  0  0  0  0  0  0  0
    1.3995    0.1083    2.2516 C   0  0  0  0  0  0  0  0  0  0  0  0
    0.0007    0.1246    2.2426 C   0  0  0  0  0  0  0  0  0  0  0  0
   -0.6803    0.1527    1.0227 C   0  0  0  0  0  0  0  0  0  0  0  0
    2.1916    0.1972   -1.4559 C   0  0  0  0  0  0  0  0  0  0  0  0
    1.9879   -0.6629   -2.5254 C   0  0  0  0  0  0  0  0  0  0  0  0
    1.0375   -1.7860   -2.6168 C   0  0  0  0  0  0  0  0  0  0  0  0
    0.0887   -1.8757   -3.6484 C   0  0  0  0  0  0  0  0  0  0  0  0
   -0.7765   -2.9658   -3.7380 C   0  0  0  0  0  0  0  0  0  0  0  0
   -0.6988   -3.9666   -2.7736 C   0  0  0  0  0  0  0  0  0  0  0  0
    0.2083   -3.8954   -1.7190 C   0  0  0  0  0  0  0  0  0  0  0  0
    1.0701   -2.8032   -1.6475 C   0  0  0  0  0  0  0  0  0  0  0  0
   -1.5242   -5.0208   -2.8571 F   0  0  0  0  0  0  0  0  0  0  0  0
    2.9136   -0.3415   -3.5149 N   0  0  0  0  0  0  0  0  0  0  0  0
    3.1251   -1.1267   -4.7312 C   0  0  0  0  0  0  0  0  0  0  0  0
    4.2705   -2.1365   -4.6117 C   0  0  0  0  0  0  0  0  0  0  0  0
    3.9446   -3.2573   -3.6307 C   0  0  2  0  0  0  0  0  0  0  0  0
    3.7332   -2.7929   -2.6435 H   0  0  0  0  0  0  0  0  0  0  0  0
    5.1016   -4.2408   -3.4290 C   0  0  0  0  0  0  0  0  0  0  0  0
    4.8280   -5.2232   -2.2816 C   0  0  1  0  0  0  0  0  0  0  0  0
    4.6952   -4.6345   -1.3584 H   0  0  0  0  0  0  0  0  0  0  0  0
    3.6069   -5.9326   -2.4591 O   0  0  0  0  0  0  0  0  0  0  0  0
    5.9894   -6.1999   -2.0407 C   0  0  0  0  0  0  0  0  0  0  0  0
    6.1872   -7.1554   -3.1924 C   0  0  0  0  0  0  0  0  0  0  0  0
    5.2940   -7.5580   -3.9102 O   0  0  0  0  0  0  0  0  0  0  0  0
    7.4561   -7.5497   -3.3422 O   0  0  0  0  0  0  0  0  0  0  0  0
    2.7942   -3.9112   -4.1218 O   0  0  0  0  0  0  0  0  0  0  0  0
    3.7135    0.7037   -3.0942 C   0  0  0  0  0  0  0  0  0  0  0  0
    3.2777    1.0757   -1.8163 C   0  0  0  0  0  0  0  0  0  0  0  0
    3.7888    2.2238   -1.0238 C   0  0  0  0  0  0  0  0  0  0  0  0
    4.9465    2.6261   -1.0771 O   0  0  0  0  0  0  0  0  0  0  0  0
    2.8362    2.8142   -0.2217 N   0  0  0  0  0  0  0  0  0  0  0  0
    3.0039    3.7459    0.8125 C   0  0  0  0  0  0  0  0  0  0  0  0
    1.9177    3.9327    1.6886 C   0  0  0  0  0  0  0  0  0  0  0  0
    2.0065    4.8423    2.7397 C   0  0  0  0  0  0  0  0  0  0  0  0
    3.1801    5.5756    2.9417 C   0  0  0  0  0  0  0  0  0  0  0  0
    4.2594    5.3844    2.0753 C   0  0  0  0  0  0  0  0  0  0  0  0
    4.1854    4.4811    1.0126 C   0  0  0  0  0  0  0  0  0  0  0  0
    4.8046    1.2732   -3.9716 C   0  0  0  0  0  0  0  0  0  0  0  0
    4.6132    2.7747   -4.2456 C   0  0  0  0  0  0  0  0  0  0  0  0
    6.2097    0.9773   -3.4158 C   0  0  0  0  0  0  0  0  0  0  0  0
   -0.5035    0.2067   -1.1310 H   0  0  0  0  0  0  0  0  0  0  0  0
    3.2010    0.1049    1.0623 H   0  0  0  0  0  0  0  0  0  0  0  0
    1.9413    0.0878    3.2000 H   0  0  0  0  0  0  0  0  0  0  0  0
   -0.5551    0.1168    3.1831 H   0  0  0  0  0  0  0  0  0  0  0  0
   -1.7729    0.1658    1.0053 H   0  0  0  0  0  0  0  0  0  0  0  0
    0.0234   -1.0781   -4.3916 H   0  0  0  0  0  0  0  0  0  0  0  0
   -1.5119   -3.0503   -4.5398 H   0  0  0  0  0  0  0  0  0  0  0  0
    0.2388   -4.6982   -0.9807 H   0  0  0  0  0  0  0  0  0  0  0  0
    1.7946   -2.7394   -0.8342 H   0  0  0  0  0  0  0  0  0  0  0  0
    3.2990   -0.4396   -5.5699 H   0  0  0  0  0  0  0  0  0  0  0  0
    2.2038   -1.6778   -4.9424 H   0  0  0  0  0  0  0  0  0  0  0  0
    5.1986   -1.6290   -4.3100 H   0  0  0  0  0  0  0  0  0  0  0  0
    4.4418   -2.5832   -5.6055 H   0  0  0  0  0  0  0  0  0  0  0  0
    6.0260   -3.6832   -3.2003 H   0  0  0  0  0  0  0  0  0  0  0  0
    5.2655   -4.7914   -4.3713 H   0  0  0  0  0  0  0  0  0  0  0  0
    3.7911   -6.6160   -3.1318 H   0  0  0  0  0  0  0  0  0  0  0  0
    5.7587   -6.8177   -1.1555 H   0  0  0  0  0  0  0  0  0  0  0  0
    6.9299   -5.6706   -1.8324 H   0  0  0  0  0  0  0  0  0  0  0  0
    7.4753   -8.1877   -4.0781 H   0  0  0  0  0  0  0  0  0  0  0  0
    2.6241   -4.6558   -3.5189 H   0  0  0  0  0  0  0  0  0  0  0  0
    1.9107    2.4066   -0.2705 H   0  0  0  0  0  0  0  0  0  0  0  0
    1.0058    3.3467    1.5436 H   0  0  0  0  0  0  0  0  0  0  0  0
    1.1528    4.9738    3.4093 H   0  0  0  0  0  0  0  0  0  0  0  0
    3.2515    6.2881    3.7665 H   0  0  0  0  0  0  0  0  0  0  0  0
    5.1824    5.9511    2.2226 H   0  0  0  0  0  0  0  0  0  0  0  0
    5.0234    4.3281    0.3379 H   0  0  0  0  0  0  0  0  0  0  0  0
    4.7272    0.7659   -4.9445 H   0  0  0  0  0  0  0  0  0  0  0  0
    4.7433    3.3610   -3.3265 H   0  0  0  0  0  0  0  0  0  0  0  0
    3.6121    2.9786   -4.6566 H   0  0  0  0  0  0  0  0  0  0  0  0
    5.3607    3.1215   -4.9770 H   0  0  0  0  0  0  0  0  0  0  0  0
    6.3423    1.4862   -2.4526 H   0  0  0  0  0  0  0  0  0  0  0  0
    6.9796    1.3311   -4.1206 H   0  0  0  0  0  0  0  0  0  0  0  0
    6.3600   -0.1029   -3.2618 H   0  0  0  0  0  0  0  0  0  0  0  0
  1  2  2  0
  1  6  1  0
  1 44  1  0
  2  3  1  0
  2  7  1  0
  3  4  2  0
  3 45  1  0
  4  5  1  0
  4 46  1  0
  5  6  2  0
  5 47  1  0
  6 48  1  0
  7  8  2  0
  7 31  1  0
  8  9  1  0
  8 16  1  0
  9 10  2  0
  9 14  1  0
 10 11  1  0
 10 49  1  0
 11 12  2  0
 11 50  1  0
 12 13  1  0
 12 15  1  0
 13 14  2  0
 13 51  1  0
 14 52  1  0
 16 17  1  0
 16 30  1  0
 17 18  1  0
 17 53  1  0
 17 54  1  0
 18 19  1  0
 18 55  1  0
 18 56  1  0
 19 20  1  1
 19 21  1  0
 19 29  1  0
 21 22  1  0
 21 57  1  0
 21 58  1  0
 22 23  1  1
 22 24  1  0
 22 25  1  0
 24 59  1  0
 25 26  1  0
 25 60  1  0
 25 61  1  0
 26 27  2  0
 26 28  1  0
 28 62  1  0
 29 63  1  0
 30 31  2  0
 30 41  1  0
 31 32  1  0
 32 33  2  0
 32 34  1  0
 34 35  1  0
 34 64  1  0
 35 36  2  0
 35 40  1  0
 36 37  1  0
 36 65  1  0
 37 38  2  0
 37 66  1  0
 38 39  1  0
 38 67  1  0
 39 40  2  0
 39 68  1  0
 40 69  1  0
 41 42  1  0
 41 43  1  0
 41 70  1  0
 42 71  1  0
 42 72  1  0
 42 73  1  0
 43 74  1  0
 43 75  1  0
 43 76  1  0
M  END

