
     RDKit          3D

 76 79  0  0  0  0  0  0  0  0999 V2000
    0.2468   -0.0094    0.1230 C   0  0  0  0  0  0  0  0  0  0  0  0
    1.6449    0.1536    0.0880 C   0  0  0  0  0  0  0  0  0  0  0  0
    2.3281    0.3248    1.3054 C   0  0  0  0  0  0  0  0  0  0  0  0
    1.6360    0.3336    2.5189 C   0  0  0  0  0  0  0  0  0  0  0  0
    0.2473    0.1796    2.5377 C   0  0  0  0  0  0  0  0  0  0  0  0
   -0.4448    0.0092    1.3338 C   0  0  0  0  0  0  0  0  0  0  0  0
    2.3723    0.1640   -1.1993 C   0  0  0  0  0  0  0  0  0  0  0  0
    3.4673   -0.6349   -1.5020 C   0  0  0  0  0  0  0  0  0  0  0  0
    4.1253   -1.6363   -0.6450 C   0  0  0  0  0  0  0  0  0  0  0  0
    3.3632   -2.6537   -0.0424 C   0  0  0  0  0  0  0  0  0  0  0  0
    3.9540   -3.5905    0.8063 C   0  0  0  0  0  0  0  0  0  0  0  0
    5.3200   -3.5018    1.0417 C   0  0  0  0  0  0  0  0  0  0  0  0
    6.1145   -2.5205    0.4640 C   0  0  0  0  0  0  0  0  0  0  0  0
    5.5052   -1.5812   -0.3677 C   0  0  0  0  0  0  0  0  0  0  0  0
    5.9082   -4.4313    1.8428 F   0  0  0  0  0  0  0  0  0  0  0  0
    3.8609   -0.3469   -2.8040 N   0  0  0  0  0  0  0  0  0  0  0  0
    4.8374   -1.1456   -3.5397 C   0  0  0  0  0  0  0  0  0  0  0  0
    4.1941   -2.2307   -4.4158 C   0  0  0  0  0  0  0  0  0  0  0  0
    5.1302   -3.4266   -4.6183 C   0  0  2  0  0  0  0  0  0  0  0  0
    4.7299   -4.0312   -5.4617 H   0  0  0  0  0  0  0  0  0  0  0  0
    5.1721   -4.3504   -3.3909 C   0  0  0  0  0  0  0  0  0  0  0  0
    6.0988   -5.5572   -3.5850 C   0  0  1  0  0  0  0  0  0  0  0  0
    5.7994   -6.0816   -4.5081 H   0  0  0  0  0  0  0  0  0  0  0  0
    7.4487   -5.1510   -3.7934 O   0  0  0  0  0  0  0  0  0  0  0  0
    6.0170   -6.5681   -2.4310 C   0  0  0  0  0  0  0  0  0  0  0  0
    6.4725   -5.9648   -1.1237 C   0  0  0  0  0  0  0  0  0  0  0  0
    7.3678   -5.1445   -1.0378 O   0  0  0  0  0  0  0  0  0  0  0  0
    5.8005   -6.4160   -0.0676 O   0  0  0  0  0  0  0  0  0  0  0  0
    6.4062   -2.9154   -4.9431 O   0  0  0  0  0  0  0  0  0  0  0  0
    3.0331    0.6107   -3.3494 C   0  0  0  0  0  0  0  0  0  0  0  0
    2.0995    0.9662   -2.3658 C   0  0  0  0  0  0  0  0  0  0  0  0
    1.0677    2.0283   -2.4912 C   0  0  0  0  0  0  0  0  0  0  0  0
    0.5241    2.3231   -3.5500 O   0  0  0  0  0  0  0  0  0  0  0  0
    0.7769    2.6665   -1.3048 N   0  0  0  0  0  0  0  0  0  0  0  0
   -0.2824    3.5340   -1.0024 C   0  0  0  0  0  0  0  0  0  0  0  0
   -1.0915    4.1425   -1.9779 C   0  0  0  0  0  0  0  0  0  0  0  0
   -2.1280    4.9890   -1.5781 C   0  0  0  0  0  0  0  0  0  0  0  0
   -2.3743    5.2471   -0.2273 C   0  0  0  0  0  0  0  0  0  0  0  0
   -1.5674    4.6401    0.7403 C   0  0  0  0  0  0  0  0  0  0  0  0
   -0.5332    3.7881    0.3595 C   0  0  0  0  0  0  0  0  0  0  0  0
    3.2293    1.1079   -4.7622 C   0  0  0  0  0  0  0  0  0  0  0  0
    2.1004    0.6403   -5.6986 C   0  0  0  0  0  0  0  0  0  0  0  0
    3.4239    2.6319   -4.8277 C   0  0  0  0  0  0  0  0  0  0  0  0
   -0.2964   -0.1416   -0.8149 H   0  0  0  0  0  0  0  0  0  0  0  0
    3.4113    0.4599    1.2919 H   0  0  0  0  0  0  0  0  0  0  0  0
    2.1849    0.4698    3.4539 H   0  0  0  0  0  0  0  0  0  0  0  0
   -0.2952    0.1950    3.4858 H   0  0  0  0  0  0  0  0  0  0  0  0
   -1.5309   -0.1087    1.3381 H   0  0  0  0  0  0  0  0  0  0  0  0
    2.2927   -2.7064   -0.2448 H   0  0  0  0  0  0  0  0  0  0  0  0
    3.3732   -4.3869    1.2739 H   0  0  0  0  0  0  0  0  0  0  0  0
    7.1857   -2.5042    0.6661 H   0  0  0  0  0  0  0  0  0  0  0  0
    6.1098   -0.7818   -0.7999 H   0  0  0  0  0  0  0  0  0  0  0  0
    5.5027   -1.6091   -2.8076 H   0  0  0  0  0  0  0  0  0  0  0  0
    5.4735   -0.4888   -4.1440 H   0  0  0  0  0  0  0  0  0  0  0  0
    3.9275   -1.8050   -5.3946 H   0  0  0  0  0  0  0  0  0  0  0  0
    3.2558   -2.5715   -3.9502 H   0  0  0  0  0  0  0  0  0  0  0  0
    4.1503   -4.7129   -3.1886 H   0  0  0  0  0  0  0  0  0  0  0  0
    5.4943   -3.7841   -2.5010 H   0  0  0  0  0  0  0  0  0  0  0  0
    7.7836   -4.8916   -2.9125 H   0  0  0  0  0  0  0  0  0  0  0  0
    6.6916   -7.4122   -2.6538 H   0  0  0  0  0  0  0  0  0  0  0  0
    5.0023   -6.9744   -2.3187 H   0  0  0  0  0  0  0  0  0  0  0  0
    6.1148   -5.9379    0.7266 H   0  0  0  0  0  0  0  0  0  0  0  0
    7.0551   -3.6169   -4.7472 H   0  0  0  0  0  0  0  0  0  0  0  0
    1.3028    2.3529   -0.4986 H   0  0  0  0  0  0  0  0  0  0  0  0
   -0.8980    3.9380   -3.0274 H   0  0  0  0  0  0  0  0  0  0  0  0
   -2.7517    5.4571   -2.3440 H   0  0  0  0  0  0  0  0  0  0  0  0
   -3.1865    5.9142    0.0699 H   0  0  0  0  0  0  0  0  0  0  0  0
   -1.7468    4.8256    1.8022 H   0  0  0  0  0  0  0  0  0  0  0  0
    0.0852    3.3002    1.1182 H   0  0  0  0  0  0  0  0  0  0  0  0
    4.1646    0.6568   -5.1260 H   0  0  0  0  0  0  0  0  0  0  0  0
    1.1487    1.0880   -5.3848 H   0  0  0  0  0  0  0  0  0  0  0  0
    1.9951   -0.4554   -5.6800 H   0  0  0  0  0  0  0  0  0  0  0  0
    2.3173    0.9446   -6.7353 H   0  0  0  0  0  0  0  0  0  0  0  0
    2.5041    3.1584   -4.5411 H   0  0  0  0  0  0  0  0  0  0  0  0
    3.6800    2.9322   -5.8562 H   0  0  0  0  0  0  0  0  0  0  0  0
    4.2401    2.9572   -4.1638 H   0  0  0  0  0  0  0  0  0  0  0  0
  1  2  2  0
  1  6  1  0
  1 44  1  0
  2  3  1  0
  2  7  1  0
  3  4  2  0
  3 45  1  0
  4  5  1  0
  4 46  1  0
  5  6  2  0
  5 47  1  0
  6 48  1  0
  7  8  2  0
  7 31  1  0
  8  9  1  0
  8 16  1  0
  9 10  2  0
  9 14  1  0
 10 11  1  0
 10 49  1  0
 11 12  2  0
 11 50  1  0
 12 13  1  0
 12 15  1  0
 13 14  2  0
 13 51  1  0
 14 52  1  0
 16 17  1  0
 16 30  1  0
 17 18  1  0
 17 53  1  0
 17 54  1  0
 18 19  1  0
 18 55  1  0
 18 56  1  0
 19 20  1  6
 19 21  1  0
 19 29  1  0
 21 22  1  0
 21 57  1  0
 21 58  1  0
 22 23  1  6
 22 24  1  0
 22 25  1  0
 24 59  1  0
 25 26  1  0
 25 60  1  0
 25 61  1  0
 26 27  2  0
 26 28  1  0
 28 62  1  0
 29 63  1  0
 30 31  2  0
 30 41  1  0
 31 32  1  0
 32 33  2  0
 32 34  1  0
 34 35  1  0
 34 64  1  0
 35 36  2  0
 35 40  1  0
 36 37  1  0
 36 65  1  0
 37 38  2  0
 37 66  1  0
 38 39  1  0
 38 67  1  0
 39 40  2  0
 39 68  1  0
 40 69  1  0
 41 42  1  0
 41 43  1  0
 41 70  1  0
 42 71  1  0
 42 72  1  0
 42 73  1  0
 43 74  1  0
 43 75  1  0
 43 76  1  0
M  END

