rmsd64.gzmat
 OpenBabel08211713423D

 76 79  0  0  1  0  0  0  0  0999 V2000
    0.0000    0.0000    0.0000 C   0  0  0  0  0  0  0  0  0  0  0  0
    1.3979    0.0000    0.0000 C   0  0  0  0  0  0  0  0  0  0  0  0
    2.0957    0.0000    1.2126 C   0  0  0  0  0  0  0  0  0  0  0  0
    1.3964    0.0063    2.4155 C   0  0  0  0  0  0  0  0  0  0  0  0
    0.0022    0.0091    2.4136 C   0  0  0  0  0  0  0  0  0  0  0  0
   -0.6941    0.0042    1.2066 C   0  0  0  0  0  0  0  0  0  0  0  0
    2.1273   -0.0122   -1.2526 C   0  0  0  0  0  0  0  0  0  0  0  0
    1.9221   -0.8889   -2.3194 C   0  0  0  0  0  0  0  0  0  0  0  0
    0.9402   -1.9544   -2.4204 C   0  0  0  0  0  0  0  0  0  0  0  0
   -0.0725   -1.8937   -3.3822 C   0  0  0  0  0  0  0  0  0  0  0  0
   -1.0277   -2.9029   -3.4567 C   0  0  0  0  0  0  0  0  0  0  0  0
   -0.9407   -3.9547   -2.5455 C   0  0  0  0  0  0  0  0  0  0  0  0
    0.0520   -4.0370   -1.5696 C   0  0  0  0  0  0  0  0  0  0  0  0
    0.9971   -3.0187   -1.5123 C   0  0  0  0  0  0  0  0  0  0  0  0
   -1.8460   -4.9195   -2.6097 F   0  0  0  0  0  0  0  0  0  0  0  0
    2.8501   -0.5773   -3.3205 N   0  0  0  0  0  0  0  0  0  0  0  0
    3.0640   -1.3935   -4.5114 C   0  0  0  0  0  0  0  0  0  0  0  0
    4.3286   -2.2578   -4.3959 C   0  0  0  0  0  0  0  0  0  0  0  0
    4.2446   -3.2961   -3.2645 C   0  0  2  0  0  0  0  0  0  0  0  0
    3.2360   -3.3158   -2.7878 H   0  0  0  0  0  0  0  0  0  0  0  0
    5.3495   -3.1387   -2.2064 C   0  0  0  0  0  0  0  0  0  0  0  0
    4.7973   -2.4686   -0.9410 C   0  0  1  0  0  0  0  0  0  0  0  0
    4.0941   -1.6329   -1.1790 H   0  0  0  0  0  0  0  0  0  0  0  0
    3.9795   -3.3764   -0.2491 O   0  0  0  0  0  0  0  0  0  0  0  0
    5.9241   -1.9574   -0.0214 C   0  0  0  0  0  0  0  0  0  0  0  0
    6.7486   -3.0947    0.4700 C   0  0  0  0  0  0  0  0  0  0  0  0
    6.3947   -4.2330    0.6717 O   0  0  0  0  0  0  0  0  0  0  0  0
    8.0302   -2.7220    0.6923 O   0  0  0  0  0  0  0  0  0  0  0  0
    4.4198   -4.5333   -3.9412 O   0  0  0  0  0  0  0  0  0  0  0  0
    3.6504    0.4732   -2.8927 C   0  0  0  0  0  0  0  0  0  0  0  0
    3.2129    0.8418   -1.6138 C   0  0  0  0  0  0  0  0  0  0  0  0
    3.7657    1.8942   -0.7602 C   0  0  0  0  0  0  0  0  0  0  0  0
    4.9360    1.9874   -0.4541 O   0  0  0  0  0  0  0  0  0  0  0  0
    2.8086    2.8051   -0.3058 N   0  0  0  0  0  0  0  0  0  0  0  0
    3.0436    3.8565    0.6047 C   0  0  0  0  0  0  0  0  0  0  0  0
    4.3273    4.3182    0.9224 C   0  0  0  0  0  0  0  0  0  0  0  0
    4.4698    5.3781    1.8131 C   0  0  0  0  0  0  0  0  0  0  0  0
    3.3533    5.9831    2.3864 C   0  0  0  0  0  0  0  0  0  0  0  0
    2.0768    5.5204    2.0686 C   0  0  0  0  0  0  0  0  0  0  0  0
    1.9122    4.4619    1.1844 C   0  0  0  0  0  0  0  0  0  0  0  0
    4.7289    1.0733   -3.7315 C   0  0  0  0  0  0  0  0  0  0  0  0
    4.5123    2.5877   -3.8486 C   0  0  0  0  0  0  0  0  0  0  0  0
    6.0987    0.7717   -3.1115 C   0  0  0  0  0  0  0  0  0  0  0  0
   -0.5406   -0.0115   -0.9446 H   0  0  0  0  0  0  0  0  0  0  0  0
    3.1854   -0.0079    1.2110 H   0  0  0  0  0  0  0  0  0  0  0  0
    1.9400    0.0076    3.3582 H   0  0  0  0  0  0  0  0  0  0  0  0
   -0.5422    0.0110    3.3549 H   0  0  0  0  0  0  0  0  0  0  0  0
   -1.7818   -0.0002    1.2057 H   0  0  0  0  0  0  0  0  0  0  0  0
   -0.1206   -1.0476   -4.0674 H   0  0  0  0  0  0  0  0  0  0  0  0
   -1.8204   -2.8653   -4.2000 H   0  0  0  0  0  0  0  0  0  0  0  0
    0.0893   -4.8686   -0.8672 H   0  0  0  0  0  0  0  0  0  0  0  0
    1.7876   -3.0438   -0.7505 H   0  0  0  0  0  0  0  0  0  0  0  0
    3.1327   -0.7290   -5.4046 H   0  0  0  0  0  0  0  0  0  0  0  0
    2.1722   -2.0474   -4.6767 H   0  0  0  0  0  0  0  0  0  0  0  0
    5.2244   -1.6206   -4.2842 H   0  0  0  0  0  0  0  0  0  0  0  0
    4.4821   -2.8048   -5.3556 H   0  0  0  0  0  0  0  0  0  0  0  0
    6.2119   -2.5819   -2.6099 H   0  0  0  0  0  0  0  0  0  0  0  0
    5.7559   -4.1399   -1.9512 H   0  0  0  0  0  0  0  0  0  0  0  0
    4.5176   -4.0837    0.1767 H   0  0  0  0  0  0  0  0  0  0  0  0
    5.4739   -1.4226    0.8503 H   0  0  0  0  0  0  0  0  0  0  0  0
    6.5356   -1.1824   -0.5325 H   0  0  0  0  0  0  0  0  0  0  0  0
    8.6068   -3.4508    1.0347 H   0  0  0  0  0  0  0  0  0  0  0  0
    4.3044   -5.2834   -3.3271 H   0  0  0  0  0  0  0  0  0  0  0  0
    1.8337    2.6240   -0.5467 H   0  0  0  0  0  0  0  0  0  0  0  0
    5.2130    3.8577    0.4821 H   0  0  0  0  0  0  0  0  0  0  0  0
    5.4677    5.7367    2.0626 H   0  0  0  0  0  0  0  0  0  0  0  0
    3.4761    6.8112    3.0783 H   0  0  0  0  0  0  0  0  0  0  0  0
    1.2028    5.9904    2.5172 H   0  0  0  0  0  0  0  0  0  0  0  0
    0.9148    4.1009    0.9489 H   0  0  0  0  0  0  0  0  0  0  0  0
    4.7029    0.6409   -4.7648 H   0  0  0  0  0  0  0  0  0  0  0  0
    4.6494    3.0899   -2.8805 H   0  0  0  0  0  0  0  0  0  0  0  0
    3.5039    2.8259   -4.2030 H   0  0  0  0  0  0  0  0  0  0  0  0
    5.2281    3.0365   -4.5450 H   0  0  0  0  0  0  0  0  0  0  0  0
    6.1878    1.2226   -2.1081 H   0  0  0  0  0  0  0  0  0  0  0  0
    6.9091    1.1835   -3.7207 H   0  0  0  0  0  0  0  0  0  0  0  0
    6.2694   -0.3026   -2.9976 H   0  0  0  0  0  0  0  0  0  0  0  0
  1  2  2  0  0  0  0
  1  6  1  0  0  0  0
  2  3  1  0  0  0  0
  3  4  2  0  0  0  0
  4 46  1  0  0  0  0
  5  4  1  0  0  0  0
  5 47  1  0  0  0  0
  6  5  2  0  0  0  0
  7  2  1  0  0  0  0
  8  7  2  0  0  0  0
  9  8  1  0  0  0  0
  9 14  2  0  0  0  0
 10  9  1  0  0  0  0
 11 10  2  0  0  0  0
 11 12  1  0  0  0  0
 12 13  2  0  0  0  0
 13 14  1  0  0  0  0
 13 51  1  0  0  0  0
 14 52  1  0  0  0  0
 15 12  1  0  0  0  0
 16 30  1  0  0  0  0
 16  8  1  0  0  0  0
 17 18  1  0  0  0  0
 17 16  1  0  0  0  0
 18 55  1  0  0  0  0
 18 19  1  0  0  0  0
 19 20  1  1  0  0  0
 19 21  1  0  0  0  0
 21 58  1  0  0  0  0
 21 22  1  0  0  0  0
 22 23  1  6  0  0  0
 22 24  1  0  0  0  0
 22 25  1  0  0  0  0
 24 59  1  0  0  0  0
 25 26  1  0  0  0  0
 25 60  1  0  0  0  0
 26 27  2  0  0  0  0
 26 28  1  0  0  0  0
 28 62  1  0  0  0  0
 29 63  1  0  0  0  0
 29 19  1  0  0  0  0
 30 31  2  0  0  0  0
 31  7  1  0  0  0  0
 31 32  1  0  0  0  0
 32 33  2  0  0  0  0
 32 34  1  0  0  0  0
 34 35  1  0  0  0  0
 35 36  2  0  0  0  0
 35 40  1  0  0  0  0
 36 37  1  0  0  0  0
 37 66  1  0  0  0  0
 37 38  2  0  0  0  0
 38 67  1  0  0  0  0
 39 38  1  0  0  0  0
 39 68  1  0  0  0  0
 40 39  2  0  0  0  0
 41 43  1  0  0  0  0
 41 30  1  0  0  0  0
 42 41  1  0  0  0  0
 42 71  1  0  0  0  0
 43 76  1  0  0  0  0
 43 74  1  0  0  0  0
 44  1  1  0  0  0  0
 45  3  1  0  0  0  0
 48  6  1  0  0  0  0
 49 10  1  0  0  0  0
 50 11  1  0  0  0  0
 53 17  1  0  0  0  0
 54 17  1  0  0  0  0
 56 18  1  0  0  0  0
 57 21  1  0  0  0  0
 61 25  1  0  0  0  0
 64 34  1  0  0  0  0
 65 36  1  0  0  0  0
 69 40  1  0  0  0  0
 70 41  1  0  0  0  0
 72 42  1  0  0  0  0
 73 42  1  0  0  0  0
 75 43  1  0  0  0  0
M  END
$$$$
