76
rmsd131.gzmat
C          0.00000        0.00000        0.00000
C          1.39830        0.00000        0.00000
C          2.09720        0.00000        1.21050
C          1.39920        0.00190        2.41510
C          0.00530        0.00910        2.41440
C         -0.69280        0.00820        1.20720
C          2.12200       -0.00130       -1.25810
C          3.01030       -0.98930       -1.68110
C          3.41660       -2.19700       -0.98070
C          2.72430       -3.39090       -1.20610
C          3.07660       -4.54470       -0.51250
C          4.12850       -4.46520        0.39930
C          4.83450       -3.28850        0.64700
C          4.46360       -2.14560       -0.05480
F          4.47350       -5.55880        1.06270
N          3.45750       -0.65270       -2.96410
C          4.42610       -1.45910       -3.69260
C          5.84440       -1.23610       -3.14160
C          6.84720       -2.03040       -3.98540
H          6.54690       -3.10140       -4.07530
C          8.26390       -1.87650       -3.43090
C          9.28570       -2.62210       -4.30360
H          9.18680       -2.33350       -5.37840
O         10.57810       -2.18750       -3.97550
C          9.19700       -4.15590       -4.14780
C          9.49290       -4.55410       -2.74310
O         10.19350       -3.98060       -1.94350
O          8.86040       -5.70400       -2.41420
O          6.78830       -1.60120       -5.32780
C          2.87840        0.54040       -3.35330
C          2.04110        0.96510       -2.30440
C          1.21310        2.17040       -2.33350
O          0.67990        2.59170       -3.33960
N          1.09180        2.82830       -1.10600
C          0.27400        3.94590       -0.84490
C          0.17440        4.35620        0.49950
C         -0.60540        5.45810        0.82710
C         -1.29080        6.15880       -0.16410
C         -1.19120        5.74830       -1.49220
C         -0.41510        4.64820       -1.84250
C          3.10010        1.24630       -4.64850
C          4.56800        1.64590       -4.83220
C          2.58750        0.42020       -5.83270
H         -0.54070       -0.00180       -0.94640
H          3.18480       -0.00540        1.20730
H          1.94370       -0.00420        3.35670
H         -0.53810        0.01430        3.35640
H         -1.78140        0.01650        1.20700
H          1.89740       -3.40930       -1.91800
H          2.53850       -5.47720       -0.67340
H          5.64510       -3.25880        1.37250
H          4.98400       -1.20350        0.12330
H          4.39330       -1.21290       -4.78280
H          4.14180       -2.53570       -3.60590
H          5.89930       -1.55120       -2.08090
H          6.09190       -0.15750       -3.14340
H          8.31460       -2.22240       -2.38120
H          8.55680       -0.80680       -3.39010
H         10.83230       -2.48700       -3.07070
H          9.94110       -4.63520       -4.82670
H          8.21010       -4.53410       -4.48760
H          9.04510       -6.01470       -1.49090
H          7.12630       -0.69010       -5.43070
H          1.56160        2.41780       -0.29830
H          0.70040        3.81420        1.27990
H         -0.68130        5.77520        1.86580
H         -1.89900        7.01900        0.09770
H         -1.72630        6.29350       -2.26870
H         -0.35090        4.34280       -2.88880
H          2.48620        2.19910       -4.62020
H          5.20710        0.78670       -5.05400
H          4.95780        2.14020       -3.93420
H          4.67370        2.35200       -5.66520
H          3.17450       -0.48580       -6.00570
H          2.61660        1.00930       -6.75750
H          1.54260        0.11950       -5.67360
