rmsd84.gzmat
 OpenBabel08211713423D

 76 79  0  0  1  0  0  0  0  0999 V2000
    0.0000    0.0000    0.0000 C   0  0  0  0  0  0  0  0  0  0  0  0
    1.3987    0.0000    0.0000 C   0  0  0  0  0  0  0  0  0  0  0  0
    2.0943    0.0000    1.2136 C   0  0  0  0  0  0  0  0  0  0  0  0
    1.3936    0.0116    2.4161 C   0  0  0  0  0  0  0  0  0  0  0  0
   -0.0006    0.0175    2.4134 C   0  0  0  0  0  0  0  0  0  0  0  0
   -0.6955    0.0084    1.2055 C   0  0  0  0  0  0  0  0  0  0  0  0
    2.1218    0.0110   -1.2564 C   0  0  0  0  0  0  0  0  0  0  0  0
    1.8861   -0.8170   -2.3576 C   0  0  0  0  0  0  0  0  0  0  0  0
    0.9009   -1.8774   -2.4799 C   0  0  0  0  0  0  0  0  0  0  0  0
   -0.0965   -1.8161   -3.4580 C   0  0  0  0  0  0  0  0  0  0  0  0
   -1.0362   -2.8370   -3.5647 C   0  0  0  0  0  0  0  0  0  0  0  0
   -0.9509   -3.9018   -2.6691 C   0  0  0  0  0  0  0  0  0  0  0  0
    0.0211   -3.9827   -1.6723 C   0  0  0  0  0  0  0  0  0  0  0  0
    0.9496   -2.9514   -1.5821 C   0  0  0  0  0  0  0  0  0  0  0  0
   -1.8398   -4.8796   -2.7643 F   0  0  0  0  0  0  0  0  0  0  0  0
    2.7870   -0.4605   -3.3664 N   0  0  0  0  0  0  0  0  0  0  0  0
    2.9306   -1.1652   -4.6368 C   0  0  0  0  0  0  0  0  0  0  0  0
    4.1320   -2.1238   -4.6157 C   0  0  0  0  0  0  0  0  0  0  0  0
    3.7853   -3.3959   -3.8278 C   0  0  2  0  0  0  0  0  0  0  0  0
    3.2092   -3.1585   -2.9023 H   0  0  0  0  0  0  0  0  0  0  0  0
    5.0448   -4.2132   -3.4948 C   0  0  0  0  0  0  0  0  0  0  0  0
    4.6593   -5.4640   -2.6952 C   0  0  1  0  0  0  0  0  0  0  0  0
    3.9448   -5.2265   -1.8700 H   0  0  0  0  0  0  0  0  0  0  0  0
    3.9099   -6.3394   -3.5057 O   0  0  0  0  0  0  0  0  0  0  0  0
    5.9008   -6.1918   -2.1392 C   0  0  0  0  0  0  0  0  0  0  0  0
    6.7369   -6.7366   -3.2473 C   0  0  0  0  0  0  0  0  0  0  0  0
    6.3808   -7.0657   -4.3538 O   0  0  0  0  0  0  0  0  0  0  0  0
    8.0314   -6.8506   -2.8721 O   0  0  0  0  0  0  0  0  0  0  0  0
    2.9204   -4.1220   -4.6760 O   0  0  0  0  0  0  0  0  0  0  0  0
    3.6067    0.5606   -2.9089 C   0  0  0  0  0  0  0  0  0  0  0  0
    3.2017    0.8754   -1.6046 C   0  0  0  0  0  0  0  0  0  0  0  0
    3.7857    1.8959   -0.7325 C   0  0  0  0  0  0  0  0  0  0  0  0
    4.9641    1.9729   -0.4582 O   0  0  0  0  0  0  0  0  0  0  0  0
    2.8503    2.8100   -0.2356 N   0  0  0  0  0  0  0  0  0  0  0  0
    3.1200    3.8711    0.6518 C   0  0  0  0  0  0  0  0  0  0  0  0
    2.0181    4.6434    1.0703 C   0  0  0  0  0  0  0  0  0  0  0  0
    2.2171    5.7201    1.9249 C   0  0  0  0  0  0  0  0  0  0  0  0
    3.4980    6.0392    2.3741 C   0  0  0  0  0  0  0  0  0  0  0  0
    4.5836    5.2674    1.9652 C   0  0  0  0  0  0  0  0  0  0  0  0
    4.4070    4.1854    1.1084 C   0  0  0  0  0  0  0  0  0  0  0  0
    4.6844    1.1736   -3.7399 C   0  0  0  0  0  0  0  0  0  0  0  0
    4.5295    2.6996   -3.7620 C   0  0  0  0  0  0  0  0  0  0  0  0
    6.0533    0.7778   -3.1726 C   0  0  0  0  0  0  0  0  0  0  0  0
   -0.5400   -0.0086   -0.9454 H   0  0  0  0  0  0  0  0  0  0  0  0
    3.1845   -0.0033    1.2130 H   0  0  0  0  0  0  0  0  0  0  0  0
    1.9362    0.0203    3.3595 H   0  0  0  0  0  0  0  0  0  0  0  0
   -0.5457    0.0305    3.3542 H   0  0  0  0  0  0  0  0  0  0  0  0
   -1.7832    0.0081    1.2025 H   0  0  0  0  0  0  0  0  0  0  0  0
   -0.1419   -0.9625   -4.1343 H   0  0  0  0  0  0  0  0  0  0  0  0
   -1.8106   -2.8024   -4.3281 H   0  0  0  0  0  0  0  0  0  0  0  0
    0.0563   -4.8265   -0.9859 H   0  0  0  0  0  0  0  0  0  0  0  0
    1.7151   -2.9696   -0.8048 H   0  0  0  0  0  0  0  0  0  0  0  0
    3.0328   -0.4229   -5.4611 H   0  0  0  0  0  0  0  0  0  0  0  0
    1.9998   -1.7501   -4.8542 H   0  0  0  0  0  0  0  0  0  0  0  0
    5.0235   -1.6298   -4.1889 H   0  0  0  0  0  0  0  0  0  0  0  0
    4.3920   -2.4058   -5.6571 H   0  0  0  0  0  0  0  0  0  0  0  0
    5.7633   -3.5925   -2.9311 H   0  0  0  0  0  0  0  0  0  0  0  0
    5.5541   -4.5042   -4.4356 H   0  0  0  0  0  0  0  0  0  0  0  0
    4.4831   -6.7531   -4.1989 H   0  0  0  0  0  0  0  0  0  0  0  0
    5.5751   -7.0356   -1.4860 H   0  0  0  0  0  0  0  0  0  0  0  0
    6.4898   -5.5227   -1.4761 H   0  0  0  0  0  0  0  0  0  0  0  0
    8.6208   -7.2301   -3.5739 H   0  0  0  0  0  0  0  0  0  0  0  0
    2.9553   -5.0802   -4.4462 H   0  0  0  0  0  0  0  0  0  0  0  0
    1.8697    2.6522   -0.4687 H   0  0  0  0  0  0  0  0  0  0  0  0
    1.0160    4.3987    0.7308 H   0  0  0  0  0  0  0  0  0  0  0  0
    1.3664    6.3189    2.2465 H   0  0  0  0  0  0  0  0  0  0  0  0
    3.6472    6.8826    3.0411 H   0  0  0  0  0  0  0  0  0  0  0  0
    5.5851    5.5112    2.3178 H   0  0  0  0  0  0  0  0  0  0  0  0
    5.2716    3.5928    0.8042 H   0  0  0  0  0  0  0  0  0  0  0  0
    4.6178    0.8050   -4.7962 H   0  0  0  0  0  0  0  0  0  0  0  0
    4.7354    3.1392   -2.7754 H   0  0  0  0  0  0  0  0  0  0  0  0
    3.5171    2.9998   -4.0516 H   0  0  0  0  0  0  0  0  0  0  0  0
    5.2320    3.1571   -4.4664 H   0  0  0  0  0  0  0  0  0  0  0  0
    6.1693    1.1362   -2.1347 H   0  0  0  0  0  0  0  0  0  0  0  0
    6.8677    1.2149   -3.7572 H   0  0  0  0  0  0  0  0  0  0  0  0
    6.1900   -0.3065   -3.1482 H   0  0  0  0  0  0  0  0  0  0  0  0
  1  2  2  0  0  0  0
  1  6  1  0  0  0  0
  2  3  1  0  0  0  0
  3  4  2  0  0  0  0
  4 46  1  0  0  0  0
  5  4  1  0  0  0  0
  5 47  1  0  0  0  0
  6  5  2  0  0  0  0
  7  2  1  0  0  0  0
  8  7  2  0  0  0  0
  9  8  1  0  0  0  0
  9 14  2  0  0  0  0
 10  9  1  0  0  0  0
 11 10  2  0  0  0  0
 11 12  1  0  0  0  0
 12 13  2  0  0  0  0
 13 14  1  0  0  0  0
 13 51  1  0  0  0  0
 14 52  1  0  0  0  0
 15 12  1  0  0  0  0
 16 30  1  0  0  0  0
 16  8  1  0  0  0  0
 17 18  1  0  0  0  0
 17 16  1  0  0  0  0
 18 55  1  0  0  0  0
 18 19  1  0  0  0  0
 19 21  1  0  0  0  0
 19 20  1  1  0  0  0
 21 57  1  0  0  0  0
 21 22  1  0  0  0  0
 22 25  1  0  0  0  0
 22 23  1  1  0  0  0
 24 22  1  0  0  0  0
 25 60  1  0  0  0  0
 25 61  1  0  0  0  0
 26 28  1  0  0  0  0
 26 25  1  0  0  0  0
 27 26  2  0  0  0  0
 29 63  1  0  0  0  0
 29 19  1  0  0  0  0
 30 31  2  0  0  0  0
 31  7  1  0  0  0  0
 31 32  1  0  0  0  0
 32 33  2  0  0  0  0
 32 34  1  0  0  0  0
 34 35  1  0  0  0  0
 35 36  2  0  0  0  0
 35 40  1  0  0  0  0
 36 37  1  0  0  0  0
 37 66  1  0  0  0  0
 37 38  2  0  0  0  0
 38 67  1  0  0  0  0
 39 68  1  0  0  0  0
 39 38  1  0  0  0  0
 40 39  2  0  0  0  0
 41 43  1  0  0  0  0
 41 30  1  0  0  0  0
 42 41  1  0  0  0  0
 42 71  1  0  0  0  0
 43 76  1  0  0  0  0
 43 74  1  0  0  0  0
 44  1  1  0  0  0  0
 45  3  1  0  0  0  0
 48  6  1  0  0  0  0
 49 10  1  0  0  0  0
 50 11  1  0  0  0  0
 53 17  1  0  0  0  0
 54 17  1  0  0  0  0
 56 18  1  0  0  0  0
 58 21  1  0  0  0  0
 59 24  1  0  0  0  0
 62 28  1  0  0  0  0
 64 34  1  0  0  0  0
 65 36  1  0  0  0  0
 69 40  1  0  0  0  0
 70 41  1  0  0  0  0
 72 42  1  0  0  0  0
 73 42  1  0  0  0  0
 75 43  1  0  0  0  0
M  END
$$$$
