76

C          0.08640        0.43660        0.01970
C          1.46610        0.15630        0.04980
C          2.07290       -0.07250        1.29510
C          1.32160       -0.03410        2.47250
C         -0.04610        0.24530        2.42820
C         -0.66110        0.48590        1.19550
C          2.23070        0.15530       -1.21780
C          2.92880       -0.90930       -1.76750
C          3.12710       -2.26920       -1.22520
C          2.43360       -3.36390       -1.77280
C          2.59520       -4.65100       -1.26100
C          3.45530       -4.84170       -0.18140
C          4.15420       -3.78230        0.39030
C          3.98720       -2.50210       -0.13930
F          3.61280       -6.07460        0.31770
N          3.32040       -0.54430       -3.05630
C          4.20010       -1.35750       -3.89520
C          5.66940       -0.92290       -3.93030
C          6.34170       -0.73410       -2.56720
H          5.90260       -1.46230       -1.85430
C          6.12780        0.67950       -2.01090
C          6.67880        0.89950       -0.60320
H          6.17390        0.20990        0.09210
O          8.06560        0.57050       -0.50420
C          6.44520        2.33490       -0.10220
C          4.97070        2.65500       -0.05190
O          4.19620        2.09710        0.69860
O          4.59920        3.56830       -0.94900
O          7.71920       -1.00610       -2.74890
C          2.89210        0.73380       -3.34120
C          2.21000        1.19960       -2.21260
C          1.59470        2.53490       -2.04110
O          1.03690        3.15950       -2.93160
N          1.75820        3.04910       -0.75530
C          0.98190        4.05140       -0.13000
C          0.90540        4.01360        1.27280
C          0.17230        4.97940        1.95940
C         -0.49820        5.98710        1.25860
C         -0.42270        6.01730       -0.13600
C          0.31510        5.06180       -0.83940
C          3.17630        1.39880       -4.66640
C          1.90810        1.44850       -5.53820
C          3.81380        2.78900       -4.51180
H         -0.39680        0.62240       -0.94220
H          3.14880       -0.22670        1.34350
H          1.81450       -0.20850        3.43200
H         -0.63010        0.28460        3.35080
H         -1.72860        0.71350        1.14960
H          1.74720       -3.19740       -2.60590
H          2.05810       -5.50560       -1.67580
H          4.82010       -3.97120        1.23380
H          4.53920       -1.66660        0.29180
H          3.79270       -1.37870       -4.91650
H          4.13710       -2.38230       -3.51030
H          5.79660       -0.00490       -4.52620
H          6.23030       -1.71310       -4.45320
H          5.05480        0.91670       -2.00490
H          6.60560        1.39490       -2.70540
H          8.56020        1.20880       -1.03970
H          6.95950        3.05150       -0.76040
H          6.85820        2.41900        0.91370
H          3.61550        3.64700       -0.92170
H          8.15050       -0.78220       -1.90770
H          2.19500        2.40910       -0.09190
H          1.41720        3.21480        1.81520
H          0.11880        4.93800        3.04990
H         -1.07560        6.74220        1.79670
H         -0.94380        6.79970       -0.69340
H          0.37330        5.07780       -1.92490
H          3.90920        0.77020       -5.19200
H          1.14430        2.06800       -5.04900
H          1.49440        0.43920       -5.69230
H          2.13950        1.87840       -6.52620
H          3.09700        3.50480       -4.08820
H          4.12610        3.17000       -5.49690
H          4.69760        2.75730       -3.85760
