76
rmsd226.gzmat
C          0.00000        0.00000        0.00000
C          1.39870        0.00000        0.00000
C          2.09560        0.00000        1.21240
C          1.39610        0.00990        2.41570
C          0.00200        0.01980        2.41400
C         -0.69440        0.01260        1.20610
C          2.12720        0.00660       -1.25370
C          3.16620       -0.85520       -1.60850
C          3.73210       -1.95050       -0.84140
C          2.91800       -3.04200       -0.51810
C          3.43080       -4.10360        0.22020
C          4.76370       -4.03610        0.62180
C          5.59610       -2.95880        0.32360
C          5.06220       -1.90490       -0.41120
F          5.26590       -5.04990        1.31240
N          3.60090       -0.50460       -2.89180
C          4.58520       -1.28010       -3.63720
C          3.94880       -2.56690       -4.19390
C          5.02840       -3.63890       -4.41170
H          4.71070       -4.36540       -5.19480
C          5.38830       -4.36920       -3.10380
C          6.46760       -5.42680       -3.35810
H          6.23540       -6.04530       -4.25880
O          7.67670       -4.80000       -3.72540
C          6.69240       -6.33460       -2.13240
C          7.36160       -5.60710       -1.01430
O          7.92730       -4.53840       -1.04870
O          7.29820       -6.32420        0.12720
O          6.14500       -2.94640       -4.92960
C          2.83440        0.54810       -3.36410
C          1.92110        0.89020       -2.35600
C          0.90360        1.94110       -2.40710
O          0.09680        2.07930       -3.30060
N          0.93730        2.79780       -1.29980
C          0.00940        3.81630       -1.00740
C         -1.05570        4.15690       -1.85200
C         -1.92460        5.17720       -1.47830
C         -1.74770        5.86330       -0.27890
C         -0.68580        5.52440        0.55910
C          0.19150        4.50680        0.20770
C          3.03880        1.15630       -4.71130
C          1.87920        0.74600       -5.62680
C          3.13270        2.68230       -4.59620
H         -0.54120       -0.00400       -0.94660
H          3.18410       -0.00920        1.20960
H          1.93950        0.01000        3.35770
H         -0.54260        0.03390        3.35510
H         -1.78280        0.02170        1.20450
H          1.87440       -3.04920       -0.83940
H          2.80390       -4.95350        0.48270
H          6.63660       -2.93710        0.64770
H          5.68030       -1.03660       -0.64550
H          5.44680       -1.52320       -2.97010
H          5.01770       -0.67410       -4.46770
H          3.43820       -2.34570       -5.15060
H          3.16280       -2.94590       -3.51310
H          4.48400       -4.82600       -2.66370
H          5.74720       -3.63680       -2.34980
H          8.07340       -4.32880       -2.94920
H          7.33090       -7.20250       -2.42390
H          5.73480       -6.78600       -1.79270
H          7.75870       -5.89720        0.89720
H          6.97070       -3.44440       -4.71900
H          1.63290        2.60190       -0.57900
H         -1.21290        3.63150       -2.79540
H         -2.75360        5.44020       -2.13430
H         -2.43230        6.65740        0.00200
H         -0.54260        6.06010        1.49610
H          1.01110        4.24460        0.87040
H          3.99620        0.78520       -5.16410
H          0.91300        1.08410       -5.21460
H          1.81860       -0.33980       -5.74200
H          1.98120        1.19030       -6.62120
H          2.16180        3.12660       -4.33270
H          3.44150        3.13070       -5.54630
H          3.85310        2.98680       -3.82950
