rmsd154.gzmat
 OpenBabel08211713423D

 23 22  0  0  1  0  0  0  0  0999 V2000
    0.0000    0.0000    0.0000 N   0  0  0  0  0  0  0  0  0  0  0  0
    1.3904    0.0000    0.0000 C   0  0  0  0  0  0  0  0  0  0  0  0
    2.0321    0.0000    1.0330 O   0  0  0  0  0  0  0  0  0  0  0  0
    1.9915   -0.0297   -1.2696 N   0  0  0  0  0  0  0  0  0  0  0  0
    3.4483    0.1610   -1.2982 C   0  0  2  0  0  0  0  0  0  0  0  0
    3.9110   -0.5291   -0.5298 H   0  0  0  0  0  0  0  0  0  0  0  0
    3.8963    1.6163   -0.9880 C   0  0  0  0  0  0  0  0  0  0  0  0
    5.4232    1.6886   -0.9772 C   0  0  0  0  0  0  0  0  0  0  0  0
    3.3169    2.6245   -1.9787 C   0  0  0  0  0  0  0  0  0  0  0  0
    3.8887   -0.2460   -2.6947 C   0  0  0  0  0  0  0  0  0  0  0  0
    3.3173   -0.0636   -3.7371 O   0  0  0  0  0  0  0  0  0  0  0  0
    5.0816   -0.8842   -2.6435 O   0  0  0  0  0  0  0  0  0  0  0  0
   -0.5368   -0.1594   -0.8231 H   0  0  0  0  0  0  0  0  0  0  0  0
   -0.4700   -0.1160    0.8775 H   0  0  0  0  0  0  0  0  0  0  0  0
    1.4960    0.3421   -2.0746 H   0  0  0  0  0  0  0  0  0  0  0  0
    3.5157    1.8566    0.0416 H   0  0  0  0  0  0  0  0  0  0  0  0
    5.8503    1.4914   -1.9678 H   0  0  0  0  0  0  0  0  0  0  0  0
    5.8596    0.9587   -0.2838 H   0  0  0  0  0  0  0  0  0  0  0  0
    5.7693    2.6806   -0.6640 H   0  0  0  0  0  0  0  0  0  0  0  0
    3.6190    2.4081   -3.0116 H   0  0  0  0  0  0  0  0  0  0  0  0
    3.6597    3.6410   -1.7491 H   0  0  0  0  0  0  0  0  0  0  0  0
    2.2226    2.6435   -1.9531 H   0  0  0  0  0  0  0  0  0  0  0  0
    5.4107   -1.1852   -3.5270 H   0  0  0  0  0  0  0  0  0  0  0  0
  1  2  1  0  0  0  0
  1 14  1  0  0  0  0
  2  3  2  0  0  0  0
  4  2  1  0  0  0  0
  5  4  1  0  0  0  0
  5  7  1  0  0  0  0
  5  6  1  1  0  0  0
  7  8  1  0  0  0  0
  7 16  1  0  0  0  0
  8 19  1  0  0  0  0
  8 18  1  0  0  0  0
  9 22  1  0  0  0  0
  9 21  1  0  0  0  0
  9  7  1  0  0  0  0
 10 12  1  0  0  0  0
 10  5  1  0  0  0  0
 11 10  2  0  0  0  0
 13  1  1  0  0  0  0
 15  4  1  0  0  0  0
 17  8  1  0  0  0  0
 20  9  1  0  0  0  0
 23 12  1  0  0  0  0
M  END
$$$$
