rmsd119.gzmat
 OpenBabel08211713423D

 23 22  0  0  1  0  0  0  0  0999 V2000
    0.0000    0.0000    0.0000 N   0  0  0  0  0  0  0  0  0  0  0  0
    1.3903    0.0000    0.0000 C   0  0  0  0  0  0  0  0  0  0  0  0
    2.0318    0.0000    1.0331 O   0  0  0  0  0  0  0  0  0  0  0  0
    1.9909   -0.0282   -1.2702 N   0  0  0  0  0  0  0  0  0  0  0  0
    3.4498    0.1423   -1.2959 C   0  0  2  0  0  0  0  0  0  0  0  0
    3.9026   -0.5493   -0.5231 H   0  0  0  0  0  0  0  0  0  0  0  0
    3.9207    1.5930   -0.9962 C   0  0  0  0  0  0  0  0  0  0  0  0
    5.4455    1.6622   -1.0830 C   0  0  0  0  0  0  0  0  0  0  0  0
    3.2742    2.6151   -1.9300 C   0  0  0  0  0  0  0  0  0  0  0  0
    3.8880   -0.2779   -2.6893 C   0  0  0  0  0  0  0  0  0  0  0  0
    3.3342   -0.0717   -3.7367 O   0  0  0  0  0  0  0  0  0  0  0  0
    5.0579   -0.9563   -2.6279 O   0  0  0  0  0  0  0  0  0  0  0  0
   -0.5371   -0.1674   -0.8214 H   0  0  0  0  0  0  0  0  0  0  0  0
   -0.4684   -0.1196    0.8778 H   0  0  0  0  0  0  0  0  0  0  0  0
    1.5015    0.3661   -2.0687 H   0  0  0  0  0  0  0  0  0  0  0  0
    3.6100    1.8188    0.0597 H   0  0  0  0  0  0  0  0  0  0  0  0
    5.8067    1.5341   -2.1104 H   0  0  0  0  0  0  0  0  0  0  0  0
    5.9212    0.8853   -0.4704 H   0  0  0  0  0  0  0  0  0  0  0  0
    5.8181    2.6295   -0.7254 H   0  0  0  0  0  0  0  0  0  0  0  0
    3.3850    2.3403   -2.9866 H   0  0  0  0  0  0  0  0  0  0  0  0
    3.7315    3.6046   -1.8062 H   0  0  0  0  0  0  0  0  0  0  0  0
    2.2040    2.7320   -1.7286 H   0  0  0  0  0  0  0  0  0  0  0  0
    5.3884   -1.2611   -3.5100 H   0  0  0  0  0  0  0  0  0  0  0  0
  1  2  1  0  0  0  0
  1 14  1  0  0  0  0
  2  3  2  0  0  0  0
  4  2  1  0  0  0  0
  5  4  1  0  0  0  0
  5  7  1  0  0  0  0
  5  6  1  1  0  0  0
  7 16  1  0  0  0  0
  8  7  1  0  0  0  0
  8 19  1  0  0  0  0
  8 18  1  0  0  0  0
  9 21  1  0  0  0  0
  9 22  1  0  0  0  0
  9  7  1  0  0  0  0
 10 12  1  0  0  0  0
 10  5  1  0  0  0  0
 11 10  2  0  0  0  0
 13  1  1  0  0  0  0
 15  4  1  0  0  0  0
 17  8  1  0  0  0  0
 20  9  1  0  0  0  0
 23 12  1  0  0  0  0
M  END
$$$$
