rmsd155.gzmat
 OpenBabel08211713423D

 23 22  0  0  1  0  0  0  0  0999 V2000
    0.0000    0.0000    0.0000 N   0  0  0  0  0  0  0  0  0  0  0  0
    1.3903    0.0000    0.0000 C   0  0  0  0  0  0  0  0  0  0  0  0
    2.0309    0.0000    1.0339 O   0  0  0  0  0  0  0  0  0  0  0  0
    1.9939   -0.0277   -1.2675 N   0  0  0  0  0  0  0  0  0  0  0  0
    3.4490    0.1749   -1.2943 C   0  0  2  0  0  0  0  0  0  0  0  0
    3.9143   -0.4951   -0.5095 H   0  0  0  0  0  0  0  0  0  0  0  0
    3.8769    1.6412   -1.0086 C   0  0  0  0  0  0  0  0  0  0  0  0
    5.3970    1.7114   -0.8652 C   0  0  0  0  0  0  0  0  0  0  0  0
    3.3859    2.6071   -2.0849 C   0  0  0  0  0  0  0  0  0  0  0  0
    3.9008   -0.2510   -2.6816 C   0  0  0  0  0  0  0  0  0  0  0  0
    3.3250   -0.1076   -3.7275 O   0  0  0  0  0  0  0  0  0  0  0  0
    5.1135   -0.8505   -2.6194 O   0  0  0  0  0  0  0  0  0  0  0  0
   -0.5382   -0.1585   -0.8216 H   0  0  0  0  0  0  0  0  0  0  0  0
   -0.4692   -0.1129    0.8788 H   0  0  0  0  0  0  0  0  0  0  0  0
    1.4944    0.3217   -2.0795 H   0  0  0  0  0  0  0  0  0  0  0  0
    3.4133    1.9259   -0.0252 H   0  0  0  0  0  0  0  0  0  0  0  0
    5.9135    1.3845   -1.7759 H   0  0  0  0  0  0  0  0  0  0  0  0
    5.7533    1.0783   -0.0424 H   0  0  0  0  0  0  0  0  0  0  0  0
    5.7264    2.7349   -0.6507 H   0  0  0  0  0  0  0  0  0  0  0  0
    3.8040    2.3737   -3.0723 H   0  0  0  0  0  0  0  0  0  0  0  0
    3.6755    3.6381   -1.8469 H   0  0  0  0  0  0  0  0  0  0  0  0
    2.2952    2.5950   -2.1810 H   0  0  0  0  0  0  0  0  0  0  0  0
    5.4518   -1.1549   -3.4989 H   0  0  0  0  0  0  0  0  0  0  0  0
  1  2  1  0  0  0  0
  1 14  1  0  0  0  0
  2  3  2  0  0  0  0
  4  2  1  0  0  0  0
  5  4  1  0  0  0  0
  5  7  1  0  0  0  0
  5  6  1  1  0  0  0
  7  8  1  0  0  0  0
  7 16  1  0  0  0  0
  8 19  1  0  0  0  0
  8 18  1  0  0  0  0
  9 21  1  0  0  0  0
  9  7  1  0  0  0  0
 10 12  1  0  0  0  0
 10  5  1  0  0  0  0
 11 10  2  0  0  0  0
 13  1  1  0  0  0  0
 15  4  1  0  0  0  0
 17  8  1  0  0  0  0
 20  9  1  0  0  0  0
 22  9  1  0  0  0  0
 23 12  1  0  0  0  0
M  END
$$$$
