rmsd231.gzmat
 OpenBabel08211713423D

 23 22  0  0  1  0  0  0  0  0999 V2000
    0.0000    0.0000    0.0000 N   0  0  0  0  0  0  0  0  0  0  0  0
    1.3874    0.0000    0.0000 C   0  0  0  0  0  0  0  0  0  0  0  0
    2.0274    0.0000    1.0343 O   0  0  0  0  0  0  0  0  0  0  0  0
    1.9940    0.0536   -1.2672 N   0  0  0  0  0  0  0  0  0  0  0  0
    3.4390   -0.1858   -1.3223 C   0  0  2  0  0  0  0  0  0  0  0  0
    3.8815   -0.1205   -0.2812 H   0  0  0  0  0  0  0  0  0  0  0  0
    4.1074    0.8916   -2.2221 C   0  0  0  0  0  0  0  0  0  0  0  0
    5.6144    0.9019   -1.9657 C   0  0  0  0  0  0  0  0  0  0  0  0
    3.8103    0.6701   -3.7055 C   0  0  0  0  0  0  0  0  0  0  0  0
    3.6776   -1.5784   -1.8886 C   0  0  0  0  0  0  0  0  0  0  0  0
    2.9338   -2.2207   -2.5831 O   0  0  0  0  0  0  0  0  0  0  0  0
    4.8794   -2.0642   -1.5040 O   0  0  0  0  0  0  0  0  0  0  0  0
   -0.5465    0.0959   -0.8241 H   0  0  0  0  0  0  0  0  0  0  0  0
   -0.4758    0.0754    0.8781 H   0  0  0  0  0  0  0  0  0  0  0  0
    1.4803   -0.2516   -2.0877 H   0  0  0  0  0  0  0  0  0  0  0  0
    3.6802    1.8821   -1.9146 H   0  0  0  0  0  0  0  0  0  0  0  0
    6.0731   -0.0730   -2.1778 H   0  0  0  0  0  0  0  0  0  0  0  0
    5.8471    1.1493   -0.9227 H   0  0  0  0  0  0  0  0  0  0  0  0
    6.1172    1.6433   -2.5968 H   0  0  0  0  0  0  0  0  0  0  0  0
    4.2527   -0.2594   -4.0833 H   0  0  0  0  0  0  0  0  0  0  0  0
    4.2142    1.4884   -4.3136 H   0  0  0  0  0  0  0  0  0  0  0  0
    2.7336    0.6252   -3.9040 H   0  0  0  0  0  0  0  0  0  0  0  0
    5.0670   -2.9770   -1.8409 H   0  0  0  0  0  0  0  0  0  0  0  0
  1  2  1  0  0  0  0
  1 14  1  0  0  0  0
  2  3  2  0  0  0  0
  4  2  1  0  0  0  0
  5  4  1  0  0  0  0
  5  6  1  1  0  0  0
  7  8  1  0  0  0  0
  7 16  1  0  0  0  0
  7  5  1  0  0  0  0
  8 18  1  0  0  0  0
  9  7  1  0  0  0  0
 10 12  1  0  0  0  0
 10  5  1  0  0  0  0
 11 10  2  0  0  0  0
 13  1  1  0  0  0  0
 15  4  1  0  0  0  0
 17  8  1  0  0  0  0
 19  8  1  0  0  0  0
 20  9  1  0  0  0  0
 21  9  1  0  0  0  0
 22  9  1  0  0  0  0
 23 12  1  0  0  0  0
M  END
$$$$
