rmsd129.gzmat
 OpenBabel08211713423D

 23 22  0  0  1  0  0  0  0  0999 V2000
    0.0000    0.0000    0.0000 N   0  0  0  0  0  0  0  0  0  0  0  0
    1.3904    0.0000    0.0000 C   0  0  0  0  0  0  0  0  0  0  0  0
    2.0303    0.0000    1.0341 O   0  0  0  0  0  0  0  0  0  0  0  0
    1.9941   -0.0265   -1.2664 N   0  0  0  0  0  0  0  0  0  0  0  0
    3.4486    0.1596   -1.2986 C   0  0  2  0  0  0  0  0  0  0  0  0
    3.9052   -0.4012   -0.4258 H   0  0  0  0  0  0  0  0  0  0  0  0
    3.8866    1.6476   -1.2106 C   0  0  0  0  0  0  0  0  0  0  0  0
    5.4089    1.7178   -1.0886 C   0  0  0  0  0  0  0  0  0  0  0  0
    3.4009    2.4705   -2.4028 C   0  0  0  0  0  0  0  0  0  0  0  0
    3.9112   -0.4592   -2.6081 C   0  0  0  0  0  0  0  0  0  0  0  0
    3.3763   -0.4178   -3.6838 O   0  0  0  0  0  0  0  0  0  0  0  0
    5.0834   -1.1131   -2.4261 O   0  0  0  0  0  0  0  0  0  0  0  0
   -0.5386   -0.1678   -0.8197 H   0  0  0  0  0  0  0  0  0  0  0  0
   -0.4668   -0.1158    0.8796 H   0  0  0  0  0  0  0  0  0  0  0  0
    1.4936    0.3146   -2.0802 H   0  0  0  0  0  0  0  0  0  0  0  0
    3.4304    2.0636   -0.2731 H   0  0  0  0  0  0  0  0  0  0  0  0
    5.9112    1.2788   -1.9594 H   0  0  0  0  0  0  0  0  0  0  0  0
    5.7685    1.1818   -0.2014 H   0  0  0  0  0  0  0  0  0  0  0  0
    5.7520    2.7550   -1.0025 H   0  0  0  0  0  0  0  0  0  0  0  0
    3.7689    2.0741   -3.3580 H   0  0  0  0  0  0  0  0  0  0  0  0
    3.7499    3.5083   -2.3319 H   0  0  0  0  0  0  0  0  0  0  0  0
    2.3079    2.5028   -2.4623 H   0  0  0  0  0  0  0  0  0  0  0  0
    5.4255   -1.5532   -3.2436 H   0  0  0  0  0  0  0  0  0  0  0  0
  1  2  1  0  0  0  0
  1 14  1  0  0  0  0
  2  3  2  0  0  0  0
  4  2  1  0  0  0  0
  5  4  1  0  0  0  0
  5  7  1  0  0  0  0
  5  6  1  1  0  0  0
  7  8  1  0  0  0  0
  7 16  1  0  0  0  0
  8 19  1  0  0  0  0
  8 18  1  0  0  0  0
  9 21  1  0  0  0  0
  9  7  1  0  0  0  0
 10 12  1  0  0  0  0
 10  5  1  0  0  0  0
 11 10  2  0  0  0  0
 13  1  1  0  0  0  0
 15  4  1  0  0  0  0
 17  8  1  0  0  0  0
 20  9  1  0  0  0  0
 22  9  1  0  0  0  0
 23 12  1  0  0  0  0
M  END
$$$$
