
     RDKit          3D

 23 22  0  0  0  0  0  0  0  0999 V2000
    0.0668    0.2173   -0.1143 N   0  0  0  0  0  0  0  0  0  0  0  0
    1.4405    0.3437   -0.1950 C   0  0  0  0  0  0  0  0  0  0  0  0
    2.0891    1.0350    0.5748 O   0  0  0  0  0  0  0  0  0  0  0  0
    2.0213   -0.3901   -1.2041 N   0  0  0  0  0  0  0  0  0  0  0  0
    3.4626   -0.4689   -1.2963 C   0  0  2  0  0  0  0  0  0  0  0  0
    3.8961   -0.4608   -0.2818 H   0  0  0  0  0  0  0  0  0  0  0  0
    4.0576    0.7522   -2.0594 C   0  0  0  0  0  0  0  0  0  0  0  0
    5.5626    0.9209   -1.8487 C   0  0  0  0  0  0  0  0  0  0  0  0
    3.6742    0.7324   -3.5393 C   0  0  0  0  0  0  0  0  0  0  0  0
    3.7961   -1.7977   -1.9499 C   0  0  0  0  0  0  0  0  0  0  0  0
    2.9844   -2.5242   -2.4746 O   0  0  0  0  0  0  0  0  0  0  0  0
    5.1043   -2.0905   -1.9030 O   0  0  0  0  0  0  0  0  0  0  0  0
   -0.4590   -0.0526   -0.9372 H   0  0  0  0  0  0  0  0  0  0  0  0
   -0.3794    0.8953    0.4917 H   0  0  0  0  0  0  0  0  0  0  0  0
    1.5151   -1.1424   -1.6606 H   0  0  0  0  0  0  0  0  0  0  0  0
    3.5587    1.6074   -1.5762 H   0  0  0  0  0  0  0  0  0  0  0  0
    6.1364    0.1082   -2.3170 H   0  0  0  0  0  0  0  0  0  0  0  0
    5.8143    0.9378   -0.7764 H   0  0  0  0  0  0  0  0  0  0  0  0
    5.9004    1.8732   -2.2871 H   0  0  0  0  0  0  0  0  0  0  0  0
    4.1968   -0.0752   -4.0804 H   0  0  0  0  0  0  0  0  0  0  0  0
    3.9444    1.6821   -4.0265 H   0  0  0  0  0  0  0  0  0  0  0  0
    2.5913    0.5815   -3.6652 H   0  0  0  0  0  0  0  0  0  0  0  0
    5.2208   -2.9384   -2.3664 H   0  0  0  0  0  0  0  0  0  0  0  0
  1  2  1  0
  1 13  1  0
  1 14  1  0
  2  3  2  0
  2  4  1  0
  4  5  1  0
  4 15  1  0
  5  6  1  1
  5  7  1  0
  5 10  1  0
  7  8  1  0
  7  9  1  0
  7 16  1  0
  8 17  1  0
  8 18  1  0
  8 19  1  0
  9 20  1  0
  9 21  1  0
  9 22  1  0
 10 11  2  0
 10 12  1  0
 12 23  1  0
M  END

