23
rmsd171.gzmat
N          0.00000        0.00000        0.00000
C          1.39010        0.00000        0.00000
O          2.02980        0.00000        1.03450
N          1.99400       -0.02790       -1.26750
C          3.44730        0.18950       -1.29260
H          3.91990       -0.48990       -0.52080
C          3.86070        1.65500       -0.98130
C          5.38280        1.74340       -0.87410
C          3.32670        2.63900       -2.02050
C          3.90120       -0.20730       -2.68740
O          3.31900       -0.05420       -3.72850
O          5.12150       -0.79160       -2.64060
H         -0.53970       -0.15600       -0.82080
H         -0.46830       -0.11430        0.87860
H          1.49320        0.32240       -2.07860
H          3.41760        1.90900        0.01970
H          5.87930        1.47850       -1.81520
H          5.77170        1.06900       -0.10050
H          5.70270        2.75760       -0.60820
H          3.71120        2.42890       -3.02630
H          3.61760        3.66720       -1.77210
H          2.23330        2.62070       -2.07870
H          5.46100       -1.07370       -3.52750
