23
rmsd129.gzmat
N          0.00000        0.00000        0.00000
C          1.39040        0.00000        0.00000
O          2.03030        0.00000        1.03410
N          1.99410       -0.02650       -1.26640
C          3.44860        0.15960       -1.29860
H          3.90520       -0.40120       -0.42580
C          3.88660        1.64760       -1.21060
C          5.40890        1.71780       -1.08860
C          3.40090        2.47050       -2.40280
C          3.91120       -0.45920       -2.60810
O          3.37630       -0.41780       -3.68380
O          5.08340       -1.11310       -2.42610
H         -0.53860       -0.16780       -0.81970
H         -0.46680       -0.11580        0.87960
H          1.49360        0.31460       -2.08020
H          3.43040        2.06360       -0.27310
H          5.91120        1.27880       -1.95940
H          5.76850        1.18180       -0.20140
H          5.75200        2.75500       -1.00250
H          3.76890        2.07410       -3.35800
H          3.74990        3.50830       -2.33190
H          2.30790        2.50280       -2.46230
H          5.42550       -1.55320       -3.24360
