rmsd185.gzmat
 OpenBabel08211713423D

 23 22  0  0  1  0  0  0  0  0999 V2000
    0.0000    0.0000    0.0000 N   0  0  0  0  0  0  0  0  0  0  0  0
    1.3873    0.0000    0.0000 C   0  0  0  0  0  0  0  0  0  0  0  0
    2.0276    0.0000    1.0340 O   0  0  0  0  0  0  0  0  0  0  0  0
    1.9942    0.0550   -1.2690 N   0  0  0  0  0  0  0  0  0  0  0  0
    3.4420   -0.1711   -1.3163 C   0  0  2  0  0  0  0  0  0  0  0  0
    3.8905   -0.0030   -0.2894 H   0  0  0  0  0  0  0  0  0  0  0  0
    4.0838    0.8273   -2.3199 C   0  0  0  0  0  0  0  0  0  0  0  0
    5.5920    0.8908   -2.0797 C   0  0  0  0  0  0  0  0  0  0  0  0
    3.7849    0.4597   -3.7738 C   0  0  0  0  0  0  0  0  0  0  0  0
    3.6977   -1.6071   -1.7516 C   0  0  0  0  0  0  0  0  0  0  0  0
    2.9636   -2.3169   -2.3883 O   0  0  0  0  0  0  0  0  0  0  0  0
    4.9035   -2.0426   -1.3218 O   0  0  0  0  0  0  0  0  0  0  0  0
   -0.5460    0.1082   -0.8228 H   0  0  0  0  0  0  0  0  0  0  0  0
   -0.4751    0.0755    0.8784 H   0  0  0  0  0  0  0  0  0  0  0  0
    1.4876   -0.2850   -2.0807 H   0  0  0  0  0  0  0  0  0  0  0  0
    3.6393    1.8345   -2.1048 H   0  0  0  0  0  0  0  0  0  0  0  0
    6.0697   -0.0884   -2.2178 H   0  0  0  0  0  0  0  0  0  0  0  0
    5.8275    1.2277   -1.0626 H   0  0  0  0  0  0  0  0  0  0  0  0
    6.0725    1.5904   -2.7732 H   0  0  0  0  0  0  0  0  0  0  0  0
    4.2050   -0.5150   -4.0506 H   0  0  0  0  0  0  0  0  0  0  0  0
    4.2150    1.1985   -4.4611 H   0  0  0  0  0  0  0  0  0  0  0  0
    2.7082    0.4240   -3.9734 H   0  0  0  0  0  0  0  0  0  0  0  0
    5.0978   -2.9822   -1.5699 H   0  0  0  0  0  0  0  0  0  0  0  0
  1  2  1  0  0  0  0
  1 14  1  0  0  0  0
  2  3  2  0  0  0  0
  4  2  1  0  0  0  0
  5  4  1  0  0  0  0
  5  6  1  1  0  0  0
  7 16  1  0  0  0  0
  7  8  1  0  0  0  0
  7  5  1  0  0  0  0
  8 18  1  0  0  0  0
  9  7  1  0  0  0  0
 10 12  1  0  0  0  0
 10  5  1  0  0  0  0
 11 10  2  0  0  0  0
 13  1  1  0  0  0  0
 15  4  1  0  0  0  0
 17  8  1  0  0  0  0
 19  8  1  0  0  0  0
 20  9  1  0  0  0  0
 21  9  1  0  0  0  0
 22  9  1  0  0  0  0
 23 12  1  0  0  0  0
M  END
$$$$
