rmsd163.gzmat
 OpenBabel08211713423D

 23 22  0  0  1  0  0  0  0  0999 V2000
    0.0000    0.0000    0.0000 N   0  0  0  0  0  0  0  0  0  0  0  0
    1.3905    0.0000    0.0000 C   0  0  0  0  0  0  0  0  0  0  0  0
    2.0320    0.0000    1.0329 O   0  0  0  0  0  0  0  0  0  0  0  0
    1.9914   -0.0303   -1.2686 N   0  0  0  0  0  0  0  0  0  0  0  0
    3.4510    0.1263   -1.2994 C   0  0  2  0  0  0  0  0  0  0  0  0
    3.8957   -0.5013   -0.4683 H   0  0  0  0  0  0  0  0  0  0  0  0
    3.9205    1.5960   -1.1155 C   0  0  0  0  0  0  0  0  0  0  0  0
    5.4394    1.6277   -0.9455 C   0  0  0  0  0  0  0  0  0  0  0  0
    3.4806    2.4959   -2.2691 C   0  0  0  0  0  0  0  0  0  0  0  0
    3.8923   -0.4126   -2.6507 C   0  0  0  0  0  0  0  0  0  0  0  0
    3.3309   -0.3172   -3.7093 O   0  0  0  0  0  0  0  0  0  0  0  0
    5.0767   -1.0594   -2.5343 O   0  0  0  0  0  0  0  0  0  0  0  0
   -0.5363   -0.1686   -0.8215 H   0  0  0  0  0  0  0  0  0  0  0  0
   -0.4681   -0.1198    0.8781 H   0  0  0  0  0  0  0  0  0  0  0  0
    1.5004    0.3379   -2.0762 H   0  0  0  0  0  0  0  0  0  0  0  0
    3.4471    1.9678   -0.1672 H   0  0  0  0  0  0  0  0  0  0  0  0
    5.9605    1.1751   -1.7980 H   0  0  0  0  0  0  0  0  0  0  0  0
    5.7547    1.0847   -0.0454 H   0  0  0  0  0  0  0  0  0  0  0  0
    5.8068    2.6557   -0.8473 H   0  0  0  0  0  0  0  0  0  0  0  0
    3.8959    2.1719   -3.2318 H   0  0  0  0  0  0  0  0  0  0  0  0
    3.8126    3.5290   -2.1077 H   0  0  0  0  0  0  0  0  0  0  0  0
    2.3912    2.5220   -2.3767 H   0  0  0  0  0  0  0  0  0  0  0  0
    5.4065   -1.4438   -3.3847 H   0  0  0  0  0  0  0  0  0  0  0  0
  1  2  1  0  0  0  0
  1 14  1  0  0  0  0
  2  3  2  0  0  0  0
  4  2  1  0  0  0  0
  5  4  1  0  0  0  0
  5  7  1  0  0  0  0
  5  6  1  1  0  0  0
  7  8  1  0  0  0  0
  7 16  1  0  0  0  0
  8 19  1  0  0  0  0
  8 18  1  0  0  0  0
  9 21  1  0  0  0  0
  9  7  1  0  0  0  0
 10 12  1  0  0  0  0
 10  5  1  0  0  0  0
 11 10  2  0  0  0  0
 13  1  1  0  0  0  0
 15  4  1  0  0  0  0
 17  8  1  0  0  0  0
 20  9  1  0  0  0  0
 22  9  1  0  0  0  0
 23 12  1  0  0  0  0
M  END
$$$$
