49

N         -0.08340        0.10790        0.08270
C          1.36810        0.10280        0.01060
C          2.15490        0.05810        1.33540
C          2.19930        1.37010        2.12680
N          0.89000        1.92380        2.42610
C          0.30000        2.95790        1.74940
C         -1.02160        3.11460        2.14670
C         -1.26360        2.08310        3.14200
C         -0.04050        1.36630        3.28900
C          0.10220        0.30160        4.18910
C         -1.00470       -0.04050        4.96020
C         -2.22290        0.66040        4.83490
C         -2.36370        1.71440        3.93820
C         -1.90220        4.15300        1.65100
C         -1.59420        5.41350        1.20380
C         -2.83250        6.00220        0.57470
O         -2.96150        7.07050        0.01910
N         -3.83660        5.05780        0.75020
C         -3.36700        3.91360        1.39440
O         -4.03800        2.94270        1.65860
C         -0.37490        6.18970        1.27870
C          0.68520        6.15590        2.27360
C          0.89630        5.44790        3.47180
C          2.05330        5.69270        4.20760
C          3.00660        6.63980        3.78200
C          2.81180        7.37760        2.61670
C          1.64830        7.12930        1.88120
N          1.18360        7.72780        0.72360
H          1.64950        8.47410        0.22560
C         -0.02320        7.18560        0.37410
H         -0.42530       -0.63300        0.69380
H         -0.44860        0.98390        0.45090
H          1.68810        0.98550       -0.57270
H          1.68050       -0.77220       -0.58670
H          3.20100       -0.22830        1.12700
H          1.73750       -0.74440        1.96740
H          2.74810        2.13670        1.55890
H          2.74410        1.22580        3.07450
H          0.86140        3.53120        1.01640
H          1.04610       -0.23660        4.28980
H         -0.92840       -0.86490        5.67290
H         -3.07460        0.36340        5.45120
H         -3.31520        2.23240        3.82880
H         -4.79150        5.17660        0.43350
H          0.16080        4.72830        3.82800
H          2.22200        5.14450        5.13730
H          3.90430        6.80830        4.38120
H          3.53610        8.12940        2.29440
H         -0.57860        7.53430       -0.49170
