rmsd6.gzmat
 OpenBabel08211713423D

 49 53  0  0  0  0  0  0  0  0999 V2000
    0.0000    0.0000    0.0000 N   0  0  0  0  0  0  0  0  0  0  0  0
    1.4751    0.0000    0.0000 C   0  0  0  0  0  0  0  0  0  0  0  0
    2.1179    0.0000    1.4046 C   0  0  0  0  0  0  0  0  0  0  0  0
    2.3445    1.4129    1.9764 C   0  0  0  0  0  0  0  0  0  0  0  0
    1.1163    2.1903    2.0423 N   0  0  0  0  0  0  0  0  0  0  0  0
    0.7568    3.1671    1.1243 C   0  0  0  0  0  0  0  0  0  0  0  0
   -0.5883    3.4962    1.2937 C   0  0  0  0  0  0  0  0  0  0  0  0
   -1.0919    2.6808    2.3713 C   0  0  0  0  0  0  0  0  0  0  0  0
   -0.0073    1.8557    2.8101 C   0  0  0  0  0  0  0  0  0  0  0  0
   -0.1542    0.9327    3.8520 C   0  0  0  0  0  0  0  0  0  0  0  0
   -1.3990    0.8407    4.4474 C   0  0  0  0  0  0  0  0  0  0  0  0
   -2.4723    1.6574    4.0368 C   0  0  0  0  0  0  0  0  0  0  0  0
   -2.3261    2.5823    3.0192 C   0  0  0  0  0  0  0  0  0  0  0  0
   -1.2974    4.4739    0.5472 C   0  0  0  0  0  0  0  0  0  0  0  0
   -2.5973    4.5313    0.1593 C   0  0  0  0  0  0  0  0  0  0  0  0
   -2.8473    5.8630   -0.5104 C   0  0  0  0  0  0  0  0  0  0  0  0
   -3.8454    6.3536   -0.9518 O   0  0  0  0  0  0  0  0  0  0  0  0
   -1.5839    6.5217   -0.5461 N   0  0  0  0  0  0  0  0  0  0  0  0
   -0.5859    5.7178    0.0569 C   0  0  0  0  0  0  0  0  0  0  0  0
    0.5741    6.0148    0.1064 O   0  0  0  0  0  0  0  0  0  0  0  0
   -3.6123    3.5406    0.2561 C   0  0  0  0  0  0  0  0  0  0  0  0
   -4.9952    3.7285    0.6148 C   0  0  0  0  0  0  0  0  0  0  0  0
   -5.7697    4.8409    0.9558 C   0  0  0  0  0  0  0  0  0  0  0  0
   -7.1021    4.6478    1.2740 C   0  0  0  0  0  0  0  0  0  0  0  0
   -7.6849    3.3629    1.2592 C   0  0  0  0  0  0  0  0  0  0  0  0
   -6.9505    2.2397    0.9248 C   0  0  0  0  0  0  0  0  0  0  0  0
   -5.6025    2.4331    0.6024 C   0  0  0  0  0  0  0  0  0  0  0  0
   -4.6253    1.5020    0.2306 N   0  0  0  0  0  0  0  0  0  0  0  0
   -4.7670    0.5235    0.1400 H   0  0  0  0  0  0  0  0  0  0  0  0
   -3.4291    2.1758    0.0263 C   0  0  0  0  0  0  0  0  0  0  0  0
   -0.3734   -0.8062    0.4738 H   0  0  0  0  0  0  0  0  0  0  0  0
   -0.3613    0.8283    0.4499 H   0  0  0  0  0  0  0  0  0  0  0  0
    1.8164    0.8830   -0.5848 H   0  0  0  0  0  0  0  0  0  0  0  0
    1.8129   -0.8965   -0.5661 H   0  0  0  0  0  0  0  0  0  0  0  0
    3.0916   -0.5250    1.3654 H   0  0  0  0  0  0  0  0  0  0  0  0
    1.4929   -0.5927    2.0995 H   0  0  0  0  0  0  0  0  0  0  0  0
    3.0926    1.9638    1.3587 H   0  0  0  0  0  0  0  0  0  0  0  0
    2.7759    1.3374    3.0045 H   0  0  0  0  0  0  0  0  0  0  0  0
    1.4651    3.5901    0.4286 H   0  0  0  0  0  0  0  0  0  0  0  0
    0.6794    0.3255    4.1852 H   0  0  0  0  0  0  0  0  0  0  0  0
   -1.5600    0.1314    5.2588 H   0  0  0  0  0  0  0  0  0  0  0  0
   -3.4308    1.5580    4.5435 H   0  0  0  0  0  0  0  0  0  0  0  0
   -3.1526    3.2296    2.7198 H   0  0  0  0  0  0  0  0  0  0  0  0
   -1.4228    7.4175   -0.9617 H   0  0  0  0  0  0  0  0  0  0  0  0
   -5.3261    5.8363    0.9529 H   0  0  0  0  0  0  0  0  0  0  0  0
   -7.7260    5.5003    1.5360 H   0  0  0  0  0  0  0  0  0  0  0  0
   -8.7387    3.2640    1.5154 H   0  0  0  0  0  0  0  0  0  0  0  0
   -7.3965    1.2527    0.9090 H   0  0  0  0  0  0  0  0  0  0  0  0
   -2.5316    1.6572   -0.2714 H   0  0  0  0  0  0  0  0  0  0  0  0
  1  2  1  0  0  0  0
  1 32  1  0  0  0  0
  1 31  1  0  0  0  0
  2  3  1  0  0  0  0
  3  4  1  0  0  0  0
  3 36  1  0  0  0  0
  4  5  1  0  0  0  0
  4 38  1  0  0  0  0
  5  9  1  0  0  0  0
  6  7  2  0  0  0  0
  6  5  1  0  0  0  0
  7  8  1  0  0  0  0
  8  9  2  0  0  0  0
  8 13  1  0  0  0  0
  9 10  1  0  0  0  0
 10 40  1  0  0  0  0
 10 11  2  0  0  0  0
 11 41  1  0  0  0  0
 12 11  1  0  0  0  0
 12 42  1  0  0  0  0
 13 12  2  0  0  0  0
 14  7  1  0  0  0  0
 15 21  1  0  0  0  0
 15 14  2  0  0  0  0
 16 15  1  0  0  0  0
 17 16  2  0  0  0  0
 18 16  1  0  0  0  0
 18 19  1  0  0  0  0
 19 20  2  0  0  0  0
 19 14  1  0  0  0  0
 21 22  1  0  0  0  0
 22 23  1  0  0  0  0
 23 24  2  0  0  0  0
 24 46  1  0  0  0  0
 25 24  1  0  0  0  0
 25 47  1  0  0  0  0
 26 25  2  0  0  0  0
 27 22  2  0  0  0  0
 27 26  1  0  0  0  0
 28 27  1  0  0  0  0
 29 28  1  0  0  0  0
 30 28  1  0  0  0  0
 30 21  2  0  0  0  0
 33  2  1  0  0  0  0
 34  2  1  0  0  0  0
 35  3  1  0  0  0  0
 37  4  1  0  0  0  0
 39  6  1  0  0  0  0
 43 13  1  0  0  0  0
 44 18  1  0  0  0  0
 45 23  1  0  0  0  0
 48 26  1  0  0  0  0
 49 30  1  0  0  0  0
M  END
$$$$
