49

N         -0.19550        0.02230        0.19670
C          1.24750        0.03160        0.01260
C          2.12940        0.16830        1.26550
C          2.00600        1.47600        2.05600
N          0.76060        1.61350        2.79730
C          0.45540        0.90020        3.92350
C         -0.83800        1.17780        4.35130
C         -1.37330        2.13450        3.39380
C         -0.34170        2.37450        2.43870
C         -0.51590        3.23720        1.34770
C         -1.75330        3.85980        1.20800
C         -2.78910        3.63050        2.13640
C         -2.61140        2.78180        3.22460
C         -1.42380        0.60680        5.54730
C         -1.10590       -0.56320        6.19270
C         -1.79800       -0.57290        7.52810
O         -1.72110       -1.39870        8.41050
N         -2.56200        0.58820        7.57000
C         -2.40320        1.35690        6.41890
O         -2.95160        2.41570        6.21710
C         -0.29340       -1.69250        5.78880
C         -0.13380       -2.27660        4.46940
C         -0.69400       -2.01680        3.20570
C         -0.34460       -2.83220        2.13060
C          0.56220       -3.90050        2.28780
C          1.11550       -4.19590        3.53170
C          0.74940       -3.38500        4.61150
N          1.09010       -3.47130        5.94890
H          1.68630       -4.17990        6.35440
C          0.45540       -2.48110        6.65280
H         -0.44730       -0.51940        1.01990
H         -0.56690        0.95840        0.34150
H          1.49810        0.83920       -0.69830
H          1.54880       -0.90630       -0.48910
H          3.18550        0.06960        0.95750
H          1.92750       -0.67850        1.94480
H          2.09870        2.34530        1.38850
H          2.83400        1.54660        2.77980
H          1.19050        0.23960        4.37550
H          0.28410        3.41520        0.62670
H         -1.92130        4.53660        0.36720
H         -3.74840        4.13510        2.00150
H         -3.40700        2.63340        3.95200
H         -3.15210        0.85550        8.34890
H         -1.40340       -1.19820        3.07950
H         -0.77670       -2.64250        1.14550
H          0.82160       -4.51610        1.42360
H          1.79800       -5.03890        3.66160
H          0.55950       -2.39030        7.73030
