rmsd129.gzmat
 OpenBabel08211713423D

 49 53  0  0  0  0  0  0  0  0999 V2000
    0.0000    0.0000    0.0000 N   0  0  0  0  0  0  0  0  0  0  0  0
    1.4726    0.0000    0.0000 C   0  0  0  0  0  0  0  0  0  0  0  0
    2.1176    0.0000    1.4017 C   0  0  0  0  0  0  0  0  0  0  0  0
    2.0472    1.3733    2.0941 C   0  0  0  0  0  0  0  0  0  0  0  0
    0.8109    1.5468    2.8437 N   0  0  0  0  0  0  0  0  0  0  0  0
    0.4914    0.8390    3.9858 C   0  0  0  0  0  0  0  0  0  0  0  0
   -0.8064    1.1657    4.3995 C   0  0  0  0  0  0  0  0  0  0  0  0
   -1.3226    2.1117    3.4436 C   0  0  0  0  0  0  0  0  0  0  0  0
   -0.2909    2.3281    2.4729 C   0  0  0  0  0  0  0  0  0  0  0  0
   -0.4617    3.1957    1.3871 C   0  0  0  0  0  0  0  0  0  0  0  0
   -1.6811    3.8368    1.2735 C   0  0  0  0  0  0  0  0  0  0  0  0
   -2.7104    3.6277    2.2145 C   0  0  0  0  0  0  0  0  0  0  0  0
   -2.5435    2.7763    3.2915 C   0  0  0  0  0  0  0  0  0  0  0  0
   -1.4095    0.6344    5.5685 C   0  0  0  0  0  0  0  0  0  0  0  0
   -1.1461   -0.5455    6.1919 C   0  0  0  0  0  0  0  0  0  0  0  0
   -1.8999   -0.5991    7.4961 C   0  0  0  0  0  0  0  0  0  0  0  0
   -1.9032   -1.4280    8.3613 O   0  0  0  0  0  0  0  0  0  0  0  0
   -2.6560    0.6009    7.5531 N   0  0  0  0  0  0  0  0  0  0  0  0
   -2.4177    1.4003    6.4010 C   0  0  0  0  0  0  0  0  0  0  0  0
   -2.9520    2.4574    6.2277 O   0  0  0  0  0  0  0  0  0  0  0  0
   -0.3254   -1.6358    5.7879 C   0  0  0  0  0  0  0  0  0  0  0  0
   -0.2510   -2.2058    4.4651 C   0  0  0  0  0  0  0  0  0  0  0  0
   -0.9286   -1.9647    3.2667 C   0  0  0  0  0  0  0  0  0  0  0  0
   -0.6222   -2.7425    2.1650 C   0  0  0  0  0  0  0  0  0  0  0  0
    0.3633   -3.7503    2.2278 C   0  0  0  0  0  0  0  0  0  0  0  0
    1.0432   -4.0256    3.4001 C   0  0  0  0  0  0  0  0  0  0  0  0
    0.7157   -3.2585    4.5244 C   0  0  0  0  0  0  0  0  0  0  0  0
    1.1968   -3.3270    5.8359 N   0  0  0  0  0  0  0  0  0  0  0  0
    1.8505   -3.9926    6.1758 H   0  0  0  0  0  0  0  0  0  0  0  0
    0.5454   -2.3602    6.5967 C   0  0  0  0  0  0  0  0  0  0  0  0
   -0.3710   -0.8354    0.4277 H   0  0  0  0  0  0  0  0  0  0  0  0
   -0.3678    0.7944    0.5024 H   0  0  0  0  0  0  0  0  0  0  0  0
    1.8143    0.8807   -0.5872 H   0  0  0  0  0  0  0  0  0  0  0  0
    1.8145   -0.8963   -0.5653 H   0  0  0  0  0  0  0  0  0  0  0  0
    3.1763   -0.3099    1.3169 H   0  0  0  0  0  0  0  0  0  0  0  0
    1.6379   -0.7758    2.0331 H   0  0  0  0  0  0  0  0  0  0  0  0
    2.1475    2.1958    1.3481 H   0  0  0  0  0  0  0  0  0  0  0  0
    2.9072    1.4849    2.7990 H   0  0  0  0  0  0  0  0  0  0  0  0
    1.1860    0.1573    4.4503 H   0  0  0  0  0  0  0  0  0  0  0  0
    0.3290    3.3547    0.6627 H   0  0  0  0  0  0  0  0  0  0  0  0
   -1.8593    4.5164    0.4409 H   0  0  0  0  0  0  0  0  0  0  0  0
   -3.6537    4.1556    2.0836 H   0  0  0  0  0  0  0  0  0  0  0  0
   -3.3434    2.6258    4.0178 H   0  0  0  0  0  0  0  0  0  0  0  0
   -3.2641    0.8565    8.3060 H   0  0  0  0  0  0  0  0  0  0  0  0
   -1.6879   -1.1832    3.2218 H   0  0  0  0  0  0  0  0  0  0  0  0
   -1.1616   -2.5995    1.2297 H   0  0  0  0  0  0  0  0  0  0  0  0
    0.5779   -4.3287    1.3296 H   0  0  0  0  0  0  0  0  0  0  0  0
    1.7895   -4.8096    3.4535 H   0  0  0  0  0  0  0  0  0  0  0  0
    0.7337   -2.2488    7.6518 H   0  0  0  0  0  0  0  0  0  0  0  0
  1 31  1  0  0  0  0
  1 32  1  0  0  0  0
  2  1  1  0  0  0  0
  2  3  1  0  0  0  0
  3 36  1  0  0  0  0
  3  4  1  0  0  0  0
  4 38  1  0  0  0  0
  4  5  1  0  0  0  0
  5  6  1  0  0  0  0
  6  7  2  0  0  0  0
  6 39  1  0  0  0  0
  7 14  1  0  0  0  0
  8  7  1  0  0  0  0
  9  5  1  0  0  0  0
  9  8  2  0  0  0  0
 10  9  1  0  0  0  0
 11 10  2  0  0  0  0
 11 12  1  0  0  0  0
 12 13  2  0  0  0  0
 13  8  1  0  0  0  0
 13 43  1  0  0  0  0
 14 15  2  0  0  0  0
 14 19  1  0  0  0  0
 15 16  1  0  0  0  0
 16 18  1  0  0  0  0
 16 17  2  0  0  0  0
 18 44  1  0  0  0  0
 19 18  1  0  0  0  0
 20 19  2  0  0  0  0
 21 15  1  0  0  0  0
 21 30  2  0  0  0  0
 22 27  1  0  0  0  0
 22 21  1  0  0  0  0
 23 22  2  0  0  0  0
 24 25  2  0  0  0  0
 24 23  1  0  0  0  0
 25 26  1  0  0  0  0
 26 48  1  0  0  0  0
 26 27  2  0  0  0  0
 27 28  1  0  0  0  0
 28 29  1  0  0  0  0
 28 30  1  0  0  0  0
 30 49  1  0  0  0  0
 33  2  1  0  0  0  0
 34  2  1  0  0  0  0
 35  3  1  0  0  0  0
 37  4  1  0  0  0  0
 40 10  1  0  0  0  0
 41 11  1  0  0  0  0
 42 12  1  0  0  0  0
 45 23  1  0  0  0  0
 46 24  1  0  0  0  0
 47 25  1  0  0  0  0
M  END
$$$$
