49
rmsd131.gzmat
N          0.00000        0.00000        0.00000
C          1.47250        0.00000        0.00000
C          2.12910        0.00000        1.39910
C          2.29760        1.40930        1.99610
N          1.01800        2.05450        2.25610
C          0.05910        1.54800        3.12270
C         -1.14930        2.21570        2.92600
C         -0.94700        3.15010        1.84730
C          0.41920        3.02360        1.43920
C          0.95540        3.80010        0.40500
C          0.10520        4.68590       -0.23090
C         -1.25080        4.79900        0.13930
C         -1.78280        4.03910        1.16440
C         -2.35270        1.95680        3.63490
C         -3.36280        2.77670        4.02680
C         -4.44180        1.93560        4.67370
O         -5.50630        2.22750        5.13600
N         -3.95330        0.59730        4.66150
C         -2.67820        0.53920        4.05040
O         -2.03600       -0.46640        3.92790
C         -3.44740        4.19190        3.94270
C         -4.61570        5.01030        3.73180
C         -5.97600        4.74490        3.55100
C         -6.83850        5.80610        3.33940
C         -6.37600        7.13790        3.30560
C         -5.03790        7.44080        3.48180
C         -4.16530        6.36810        3.69350
N         -2.77830        6.36940        3.89050
H         -2.20080        7.17730        3.90200
C         -2.35340        5.05780        4.03180
H         -0.38070       -0.76200        0.53970
H         -0.36980        0.85800        0.38090
H          1.81570        0.87860       -0.58860
H          1.80430       -0.90090       -0.56470
H          3.12550       -0.47800        1.33580
H          1.53990       -0.63770        2.08650
H          2.90140        2.04970        1.31250
H          2.86650        1.34870        2.95560
H          0.28310        0.76360        3.82810
H          1.99420        3.70520        0.11120
H          0.48120        5.30710       -1.04310
H         -1.88580        5.49710       -0.40340
H         -2.83540        4.11780        1.44110
H         -4.44840       -0.19160        5.02780
H         -6.34490        3.71960        3.58730
H         -7.90130        5.61820        3.19810
H         -7.09440        7.93860        3.13710
H         -4.67780        8.46220        3.45800
H         -1.31470        4.80940        4.18200
