49
rmsd73.gzmat
N          0.00000        0.00000        0.00000
C          1.47230        0.00000        0.00000
C          2.13910        0.00000        1.39360
C          2.03840        1.34710        2.13080
N          0.67600        1.65530        2.54610
C         -0.16630        0.75860        3.18400
C         -1.45890        1.28350        3.23400
C         -1.42180        2.56310        2.57480
C         -0.07240        2.76890        2.14250
C          0.31500        3.93280        1.46720
C         -0.66240        4.87890        1.22080
C         -1.99920        4.68190        1.62650
C         -2.38630        3.53660        2.29610
C         -2.58760        0.60820        3.76810
C         -3.70550        1.03390        4.40780
C         -4.62790       -0.15610        4.60110
O         -5.73450       -0.21000        5.05740
N         -3.92730       -1.28700        4.10590
C         -2.67120       -0.89390        3.58080
O         -1.87950       -1.65480        3.09820
C         -4.10450        2.30460        4.89930
C         -3.26130        3.37090        5.38490
C         -1.88290        3.52310        5.56290
C         -1.40310        4.72260        6.05790
C         -2.27290        5.77970        6.39730
C         -3.64400        5.65750        6.26010
C         -4.12850        4.44510        5.75720
N         -5.44760        4.03580        5.51960
H         -6.25830        4.57730        5.70810
C         -5.42530        2.74290        5.01920
H         -0.38440       -0.73710        0.57340
H         -0.36810        0.87310        0.34640
H          1.81900        0.87390       -0.59330
H          1.80230       -0.90640       -0.55960
H          3.21000       -0.25990        1.28000
H          1.70630       -0.81200        2.00920
H          2.42220        2.16890        1.48270
H          2.68890        1.32820        3.03970
H          0.18400       -0.18570        3.56850
H          1.34040        4.08610        1.15220
H         -0.40410        5.80050        0.70060
H         -2.73230        5.45560        1.40730
H         -3.41710        3.38570        2.61690
H         -4.28380       -2.22220        4.09670
H         -1.20720        2.70740        5.30630
H         -0.33160        4.86240        6.18750
H         -1.84750        6.70670        6.77940
H         -4.31670        6.46260        6.53080
H         -6.33380        2.20880        4.78400
