
     RDKit          3D

 49 53  0  0  0  0  0  0  0  0999 V2000
   -0.0981   -0.1053    0.3214 N   0  0  0  0  0  0  0  0  0  0  0  0
    1.3411   -0.2787    0.2218 C   0  0  0  0  0  0  0  0  0  0  0  0
    2.1941   -0.0268    1.4817 C   0  0  0  0  0  0  0  0  0  0  0  0
    2.3373    1.4341    1.9216 C   0  0  0  0  0  0  0  0  0  0  0  0
    1.0600    2.0941    2.1567 N   0  0  0  0  0  0  0  0  0  0  0  0
    0.1079    1.6244    3.0220 C   0  0  0  0  0  0  0  0  0  0  0  0
   -1.0912    2.3014    2.8503 C   0  0  0  0  0  0  0  0  0  0  0  0
   -0.8657    3.2476    1.7742 C   0  0  0  0  0  0  0  0  0  0  0  0
    0.4893    3.0809    1.3619 C   0  0  0  0  0  0  0  0  0  0  0  0
    1.0375    3.8180    0.3045 C   0  0  0  0  0  0  0  0  0  0  0  0
    0.2111    4.7316   -0.3460 C   0  0  0  0  0  0  0  0  0  0  0  0
   -1.1346    4.9001    0.0388 C   0  0  0  0  0  0  0  0  0  0  0  0
   -1.6814    4.1658    1.0877 C   0  0  0  0  0  0  0  0  0  0  0  0
   -2.3186    1.9749    3.5429 C   0  0  0  0  0  0  0  0  0  0  0  0
   -3.3905    2.7424    3.9213 C   0  0  0  0  0  0  0  0  0  0  0  0
   -4.4340    1.8191    4.4990 C   0  0  0  0  0  0  0  0  0  0  0  0
   -5.5308    2.0813    4.9343 O   0  0  0  0  0  0  0  0  0  0  0  0
   -3.8809    0.5376    4.4576 N   0  0  0  0  0  0  0  0  0  0  0  0
   -2.6154    0.5397    3.8875 C   0  0  0  0  0  0  0  0  0  0  0  0
   -1.9218   -0.4379    3.7019 O   0  0  0  0  0  0  0  0  0  0  0  0
   -3.5195    4.1855    3.9230 C   0  0  0  0  0  0  0  0  0  0  0  0
   -4.7004    5.0224    3.7667 C   0  0  0  0  0  0  0  0  0  0  0  0
   -6.0731    4.7782    3.5732 C   0  0  0  0  0  0  0  0  0  0  0  0
   -6.9362    5.8589    3.4220 C   0  0  0  0  0  0  0  0  0  0  0  0
   -6.4661    7.1884    3.4612 C   0  0  0  0  0  0  0  0  0  0  0  0
   -5.1154    7.4639    3.6500 C   0  0  0  0  0  0  0  0  0  0  0  0
   -4.2497    6.3739    3.7970 C   0  0  0  0  0  0  0  0  0  0  0  0
   -2.8788    6.3498    3.9788 N   0  0  0  0  0  0  0  0  0  0  0  0
   -2.2845    7.1653    4.0401 H   0  0  0  0  0  0  0  0  0  0  0  0
   -2.4436    5.0560    4.0458 C   0  0  0  0  0  0  0  0  0  0  0  0
   -0.4789   -0.5523    1.1558 H   0  0  0  0  0  0  0  0  0  0  0  0
   -0.3632    0.8756    0.3686 H   0  0  0  0  0  0  0  0  0  0  0  0
    1.7086    0.3643   -0.5980 H   0  0  0  0  0  0  0  0  0  0  0  0
    1.5458   -1.3152   -0.1015 H   0  0  0  0  0  0  0  0  0  0  0  0
    3.2136   -0.4140    1.3075 H   0  0  0  0  0  0  0  0  0  0  0  0
    1.7831   -0.6237    2.3151 H   0  0  0  0  0  0  0  0  0  0  0  0
    2.8675    2.0111    1.1514 H   0  0  0  0  0  0  0  0  0  0  0  0
    2.9469    1.4945    2.8390 H   0  0  0  0  0  0  0  0  0  0  0  0
    0.3239    0.8061    3.7025 H   0  0  0  0  0  0  0  0  0  0  0  0
    2.0735    3.6825   -0.0104 H   0  0  0  0  0  0  0  0  0  0  0  0
    0.6120    5.3193   -1.1750 H   0  0  0  0  0  0  0  0  0  0  0  0
   -1.7606    5.6140   -0.5013 H   0  0  0  0  0  0  0  0  0  0  0  0
   -2.7276    4.2903    1.3655 H   0  0  0  0  0  0  0  0  0  0  0  0
   -4.3681   -0.2962    4.7640 H   0  0  0  0  0  0  0  0  0  0  0  0
   -6.4509    3.7573    3.5692 H   0  0  0  0  0  0  0  0  0  0  0  0
   -8.0031    5.6752    3.2762 H   0  0  0  0  0  0  0  0  0  0  0  0
   -7.1720    8.0138    3.3427 H   0  0  0  0  0  0  0  0  0  0  0  0
   -4.7432    8.4906    3.6790 H   0  0  0  0  0  0  0  0  0  0  0  0
   -1.3911    4.8207    4.1781 H   0  0  0  0  0  0  0  0  0  0  0  0
  1  2  1  0
  1 31  1  0
  1 32  1  0
  2  3  1  0
  2 33  1  0
  2 34  1  0
  3  4  1  0
  3 35  1  0
  3 36  1  0
  4  5  1  0
  4 37  1  0
  4 38  1  0
  5  6  1  0
  5  9  1  0
  6  7  2  0
  6 39  1  0
  7  8  1  0
  7 14  1  0
  8  9  2  0
  8 13  1  0
  9 10  1  0
 10 11  2  0
 10 40  1  0
 11 12  1  0
 11 41  1  0
 12 13  2  0
 12 42  1  0
 13 43  1  0
 14 15  2  0
 14 19  1  0
 15 16  1  0
 15 21  1  0
 16 17  2  0
 16 18  1  0
 18 19  1  0
 18 44  1  0
 19 20  2  0
 21 22  1  0
 21 30  2  0
 22 23  2  0
 22 27  1  0
 23 24  1  0
 23 45  1  0
 24 25  2  0
 24 46  1  0
 25 26  1  0
 25 47  1  0
 26 27  2  0
 26 48  1  0
 27 28  1  0
 28 29  1  0
 28 30  1  0
 30 49  1  0
M  END

