49
rmsd144.gzmat
N          0.00000        0.00000        0.00000
C          1.47250        0.00000        0.00000
C          2.13240        0.00000        1.39660
C          2.22820        1.40090        2.02760
N          0.92090        1.95990        2.33560
C          0.31760        2.99840        1.64770
C         -0.99380        3.16310        2.10430
C         -1.22200        2.15610        3.10790
C         -0.00110        1.41910        3.23950
C          0.13940        0.37240        4.15870
C         -0.96330        0.05530        4.92940
C         -2.17770        0.76140        4.80120
C         -2.31530        1.80720        3.90690
C         -1.88180        4.17080        1.64320
C         -1.60290        5.43910        1.24330
C         -2.86610        6.06660        0.69580
O         -3.04080        7.14010        0.19170
N         -3.88830        5.10200        0.87360
C         -3.35980        3.91380        1.45370
O         -4.03430        2.95590        1.69770
C         -0.40020        6.19460        1.28400
C          0.62940        6.15100        2.29430
C          0.79160        5.44920        3.49230
C          1.93060        5.67100        4.24530
C          2.91440        6.59470        3.83580
C          2.77960        7.32220        2.66700
C          1.62760        7.09830        1.90510
N          1.21180        7.69570        0.70840
H          1.69730        8.41570        0.22710
C         -0.01920        7.16110        0.35290
H         -0.37940       -0.81860        0.44760
H         -0.37650        0.81290        0.46240
H          1.81450        0.87970       -0.58910
H          1.80740       -0.89990       -0.56560
H          3.15310       -0.42190        1.31970
H          1.58040       -0.68440        2.06890
H          2.77380        2.09580        1.34690
H          2.82530        1.34940        2.97120
H          0.83750        3.56770        0.89440
H          1.07710       -0.16030        4.26160
H         -0.90140       -0.75550        5.65380
H         -3.02060        0.46830        5.42490
H         -3.25780        2.34790        3.81010
H         -4.84380        5.22760        0.60460
H          0.02600        4.74480        3.82040
H          2.07550        5.13070        5.17900
H          3.79200        6.73920        4.46410
H          3.52800        8.04130        2.35580
H         -0.55140        7.49460       -0.52450
