rmsd131.gzmat
 OpenBabel08211713423D

 49 53  0  0  0  0  0  0  0  0999 V2000
    0.0000    0.0000    0.0000 N   0  0  0  0  0  0  0  0  0  0  0  0
    1.4725    0.0000    0.0000 C   0  0  0  0  0  0  0  0  0  0  0  0
    2.1291    0.0000    1.3991 C   0  0  0  0  0  0  0  0  0  0  0  0
    2.2976    1.4093    1.9961 C   0  0  0  0  0  0  0  0  0  0  0  0
    1.0180    2.0545    2.2561 N   0  0  0  0  0  0  0  0  0  0  0  0
    0.0591    1.5480    3.1227 C   0  0  0  0  0  0  0  0  0  0  0  0
   -1.1493    2.2157    2.9260 C   0  0  0  0  0  0  0  0  0  0  0  0
   -0.9470    3.1501    1.8473 C   0  0  0  0  0  0  0  0  0  0  0  0
    0.4192    3.0236    1.4392 C   0  0  0  0  0  0  0  0  0  0  0  0
    0.9554    3.8001    0.4050 C   0  0  0  0  0  0  0  0  0  0  0  0
    0.1052    4.6859   -0.2309 C   0  0  0  0  0  0  0  0  0  0  0  0
   -1.2508    4.7990    0.1393 C   0  0  0  0  0  0  0  0  0  0  0  0
   -1.7828    4.0391    1.1644 C   0  0  0  0  0  0  0  0  0  0  0  0
   -2.3527    1.9568    3.6349 C   0  0  0  0  0  0  0  0  0  0  0  0
   -3.3628    2.7767    4.0268 C   0  0  0  0  0  0  0  0  0  0  0  0
   -4.4418    1.9356    4.6737 C   0  0  0  0  0  0  0  0  0  0  0  0
   -5.5063    2.2275    5.1360 O   0  0  0  0  0  0  0  0  0  0  0  0
   -3.9533    0.5973    4.6615 N   0  0  0  0  0  0  0  0  0  0  0  0
   -2.6782    0.5392    4.0504 C   0  0  0  0  0  0  0  0  0  0  0  0
   -2.0360   -0.4664    3.9279 O   0  0  0  0  0  0  0  0  0  0  0  0
   -3.4474    4.1919    3.9427 C   0  0  0  0  0  0  0  0  0  0  0  0
   -4.6157    5.0103    3.7318 C   0  0  0  0  0  0  0  0  0  0  0  0
   -5.9760    4.7449    3.5510 C   0  0  0  0  0  0  0  0  0  0  0  0
   -6.8385    5.8061    3.3394 C   0  0  0  0  0  0  0  0  0  0  0  0
   -6.3760    7.1379    3.3056 C   0  0  0  0  0  0  0  0  0  0  0  0
   -5.0379    7.4408    3.4818 C   0  0  0  0  0  0  0  0  0  0  0  0
   -4.1653    6.3681    3.6935 C   0  0  0  0  0  0  0  0  0  0  0  0
   -2.7783    6.3694    3.8905 N   0  0  0  0  0  0  0  0  0  0  0  0
   -2.2008    7.1773    3.9020 H   0  0  0  0  0  0  0  0  0  0  0  0
   -2.3534    5.0578    4.0318 C   0  0  0  0  0  0  0  0  0  0  0  0
   -0.3807   -0.7620    0.5397 H   0  0  0  0  0  0  0  0  0  0  0  0
   -0.3698    0.8580    0.3809 H   0  0  0  0  0  0  0  0  0  0  0  0
    1.8157    0.8786   -0.5886 H   0  0  0  0  0  0  0  0  0  0  0  0
    1.8043   -0.9009   -0.5647 H   0  0  0  0  0  0  0  0  0  0  0  0
    3.1255   -0.4780    1.3358 H   0  0  0  0  0  0  0  0  0  0  0  0
    1.5399   -0.6377    2.0865 H   0  0  0  0  0  0  0  0  0  0  0  0
    2.9014    2.0497    1.3125 H   0  0  0  0  0  0  0  0  0  0  0  0
    2.8665    1.3487    2.9556 H   0  0  0  0  0  0  0  0  0  0  0  0
    0.2831    0.7636    3.8281 H   0  0  0  0  0  0  0  0  0  0  0  0
    1.9942    3.7052    0.1112 H   0  0  0  0  0  0  0  0  0  0  0  0
    0.4812    5.3071   -1.0431 H   0  0  0  0  0  0  0  0  0  0  0  0
   -1.8858    5.4971   -0.4034 H   0  0  0  0  0  0  0  0  0  0  0  0
   -2.8354    4.1178    1.4411 H   0  0  0  0  0  0  0  0  0  0  0  0
   -4.4484   -0.1916    5.0278 H   0  0  0  0  0  0  0  0  0  0  0  0
   -6.3449    3.7196    3.5873 H   0  0  0  0  0  0  0  0  0  0  0  0
   -7.9013    5.6182    3.1981 H   0  0  0  0  0  0  0  0  0  0  0  0
   -7.0944    7.9386    3.1371 H   0  0  0  0  0  0  0  0  0  0  0  0
   -4.6778    8.4622    3.4580 H   0  0  0  0  0  0  0  0  0  0  0  0
   -1.3147    4.8094    4.1820 H   0  0  0  0  0  0  0  0  0  0  0  0
  1 32  1  0  0  0  0
  1 31  1  0  0  0  0
  2  1  1  0  0  0  0
  2  3  1  0  0  0  0
  3  4  1  0  0  0  0
  3 36  1  0  0  0  0
  4  5  1  0  0  0  0
  4 38  1  0  0  0  0
  5  6  1  0  0  0  0
  6 39  1  0  0  0  0
  7  6  2  0  0  0  0
  7 14  1  0  0  0  0
  8  7  1  0  0  0  0
  9  8  1  0  0  0  0
  9  5  1  0  0  0  0
 10  9  2  0  0  0  0
 11 12  2  0  0  0  0
 11 10  1  0  0  0  0
 12 13  1  0  0  0  0
 13 43  1  0  0  0  0
 13  8  2  0  0  0  0
 14 15  2  0  0  0  0
 14 19  1  0  0  0  0
 15 16  1  0  0  0  0
 16 17  2  0  0  0  0
 18 16  1  0  0  0  0
 18 44  1  0  0  0  0
 19 18  1  0  0  0  0
 20 19  2  0  0  0  0
 21 15  1  0  0  0  0
 21 30  2  0  0  0  0
 22 21  1  0  0  0  0
 23 45  1  0  0  0  0
 23 22  2  0  0  0  0
 24 23  1  0  0  0  0
 25 24  2  0  0  0  0
 25 26  1  0  0  0  0
 26 27  2  0  0  0  0
 27 22  1  0  0  0  0
 27 28  1  0  0  0  0
 28 29  1  0  0  0  0
 28 30  1  0  0  0  0
 30 49  1  0  0  0  0
 33  2  1  0  0  0  0
 34  2  1  0  0  0  0
 35  3  1  0  0  0  0
 37  4  1  0  0  0  0
 40 10  1  0  0  0  0
 41 11  1  0  0  0  0
 42 12  1  0  0  0  0
 46 24  1  0  0  0  0
 47 25  1  0  0  0  0
 48 26  1  0  0  0  0
M  END
$$$$
