49
rmsd6.gzmat
N          0.00000        0.00000        0.00000
C          1.47510        0.00000        0.00000
C          2.11790        0.00000        1.40460
C          2.34450        1.41290        1.97640
N          1.11630        2.19030        2.04230
C          0.75680        3.16710        1.12430
C         -0.58830        3.49620        1.29370
C         -1.09190        2.68080        2.37130
C         -0.00730        1.85570        2.81010
C         -0.15420        0.93270        3.85200
C         -1.39900        0.84070        4.44740
C         -2.47230        1.65740        4.03680
C         -2.32610        2.58230        3.01920
C         -1.29740        4.47390        0.54720
C         -2.59730        4.53130        0.15930
C         -2.84730        5.86300       -0.51040
O         -3.84540        6.35360       -0.95180
N         -1.58390        6.52170       -0.54610
C         -0.58590        5.71780        0.05690
O          0.57410        6.01480        0.10640
C         -3.61230        3.54060        0.25610
C         -4.99520        3.72850        0.61480
C         -5.76970        4.84090        0.95580
C         -7.10210        4.64780        1.27400
C         -7.68490        3.36290        1.25920
C         -6.95050        2.23970        0.92480
C         -5.60250        2.43310        0.60240
N         -4.62530        1.50200        0.23060
H         -4.76700        0.52350        0.14000
C         -3.42910        2.17580        0.02630
H         -0.37340       -0.80620        0.47380
H         -0.36130        0.82830        0.44990
H          1.81640        0.88300       -0.58480
H          1.81290       -0.89650       -0.56610
H          3.09160       -0.52500        1.36540
H          1.49290       -0.59270        2.09950
H          3.09260        1.96380        1.35870
H          2.77590        1.33740        3.00450
H          1.46510        3.59010        0.42860
H          0.67940        0.32550        4.18520
H         -1.56000        0.13140        5.25880
H         -3.43080        1.55800        4.54350
H         -3.15260        3.22960        2.71980
H         -1.42280        7.41750       -0.96170
H         -5.32610        5.83630        0.95290
H         -7.72600        5.50030        1.53600
H         -8.73870        3.26400        1.51540
H         -7.39650        1.25270        0.90900
H         -2.53160        1.65720       -0.27140
