rmsd119.gzmat
 OpenBabel08211713423D

 49 53  0  0  0  0  0  0  0  0999 V2000
    0.0000    0.0000    0.0000 N   0  0  0  0  0  0  0  0  0  0  0  0
    1.4728    0.0000    0.0000 C   0  0  0  0  0  0  0  0  0  0  0  0
    2.1264    0.0000    1.3992 C   0  0  0  0  0  0  0  0  0  0  0  0
    2.1742    1.3927    2.0520 C   0  0  0  0  0  0  0  0  0  0  0  0
    0.8532    1.8656    2.4404 N   0  0  0  0  0  0  0  0  0  0  0  0
    0.0288    1.2176    3.3465 C   0  0  0  0  0  0  0  0  0  0  0  0
   -1.2347    1.8118    3.3383 C   0  0  0  0  0  0  0  0  0  0  0  0
   -1.2041    2.8548    2.3444 C   0  0  0  0  0  0  0  0  0  0  0  0
    0.1167    2.8662    1.7931 C   0  0  0  0  0  0  0  0  0  0  0  0
    0.4975    3.7846    0.8067 C   0  0  0  0  0  0  0  0  0  0  0  0
   -0.4595    4.6827    0.3728 C   0  0  0  0  0  0  0  0  0  0  0  0
   -1.7726    4.6663    0.8881 C   0  0  0  0  0  0  0  0  0  0  0  0
   -2.1528    3.7609    1.8608 C   0  0  0  0  0  0  0  0  0  0  0  0
   -2.3276    1.4106    4.1513 C   0  0  0  0  0  0  0  0  0  0  0  0
   -3.3527    2.0955    4.7187 C   0  0  0  0  0  0  0  0  0  0  0  0
   -4.2889    1.1011    5.3787 C   0  0  0  0  0  0  0  0  0  0  0  0
   -5.3357    1.2760    5.9354 O   0  0  0  0  0  0  0  0  0  0  0  0
   -3.6912   -0.1751    5.2141 N   0  0  0  0  0  0  0  0  0  0  0  0
   -2.4835   -0.0609    4.4799 C   0  0  0  0  0  0  0  0  0  0  0  0
   -1.7741   -0.9902    4.2142 O   0  0  0  0  0  0  0  0  0  0  0  0
   -3.6503    3.4817    4.7969 C   0  0  0  0  0  0  0  0  0  0  0  0
   -2.7209    4.5855    4.8285 C   0  0  0  0  0  0  0  0  0  0  0  0
   -1.3268    4.6887    4.8528 C   0  0  0  0  0  0  0  0  0  0  0  0
   -0.7520    5.9469    4.8526 C   0  0  0  0  0  0  0  0  0  0  0  0
   -1.5406    7.1161    4.8398 C   0  0  0  0  0  0  0  0  0  0  0  0
   -2.9223    7.0541    4.8515 C   0  0  0  0  0  0  0  0  0  0  0  0
   -3.5031    5.7814    4.8578 C   0  0  0  0  0  0  0  0  0  0  0  0
   -4.8549    5.4121    4.8742 N   0  0  0  0  0  0  0  0  0  0  0  0
   -5.6195    6.0427    4.9329 H   0  0  0  0  0  0  0  0  0  0  0  0
   -4.9341    4.0276    4.8559 C   0  0  0  0  0  0  0  0  0  0  0  0
   -0.3779   -0.7486    0.5600 H   0  0  0  0  0  0  0  0  0  0  0  0
   -0.3679    0.8669    0.3630 H   0  0  0  0  0  0  0  0  0  0  0  0
    1.8193    0.8760   -0.5902 H   0  0  0  0  0  0  0  0  0  0  0  0
    1.8046   -0.9040   -0.5613 H   0  0  0  0  0  0  0  0  0  0  0  0
    3.1597   -0.3898    1.3201 H   0  0  0  0  0  0  0  0  0  0  0  0
    1.5937   -0.7139    2.0575 H   0  0  0  0  0  0  0  0  0  0  0  0
    2.6422    2.1299    1.3595 H   0  0  0  0  0  0  0  0  0  0  0  0
    2.8212    1.3588    2.9625 H   0  0  0  0  0  0  0  0  0  0  0  0
    0.3742    0.3907    3.9463 H   0  0  0  0  0  0  0  0  0  0  0  0
    1.5019    3.7897    0.4002 H   0  0  0  0  0  0  0  0  0  0  0  0
   -0.2036    5.4228   -0.3844 H   0  0  0  0  0  0  0  0  0  0  0  0
   -2.4923    5.3899    0.5105 H   0  0  0  0  0  0  0  0  0  0  0  0
   -3.1666    3.7496    2.2612 H   0  0  0  0  0  0  0  0  0  0  0  0
   -4.0762   -1.0345    5.5528 H   0  0  0  0  0  0  0  0  0  0  0  0
   -0.7142    3.7876    4.8621 H   0  0  0  0  0  0  0  0  0  0  0  0
    0.3316    6.0457    4.8556 H   0  0  0  0  0  0  0  0  0  0  0  0
   -1.0417    8.0839    4.8238 H   0  0  0  0  0  0  0  0  0  0  0  0
   -3.5319    7.9495    4.8537 H   0  0  0  0  0  0  0  0  0  0  0  0
   -5.8814    3.5114    4.8895 H   0  0  0  0  0  0  0  0  0  0  0  0
  1 32  1  0  0  0  0
  1 31  1  0  0  0  0
  2  1  1  0  0  0  0
  2  3  1  0  0  0  0
  3  4  1  0  0  0  0
  3 36  1  0  0  0  0
  4  5  1  0  0  0  0
  4 38  1  0  0  0  0
  5  6  1  0  0  0  0
  6 39  1  0  0  0  0
  7  6  2  0  0  0  0
  7 14  1  0  0  0  0
  8  7  1  0  0  0  0
  9  8  2  0  0  0  0
  9  5  1  0  0  0  0
 10  9  1  0  0  0  0
 11 10  2  0  0  0  0
 11 12  1  0  0  0  0
 12 13  2  0  0  0  0
 13 43  1  0  0  0  0
 13  8  1  0  0  0  0
 14 19  1  0  0  0  0
 14 15  2  0  0  0  0
 15 21  1  0  0  0  0
 15 16  1  0  0  0  0
 16 17  2  0  0  0  0
 18 16  1  0  0  0  0
 18 44  1  0  0  0  0
 19 18  1  0  0  0  0
 20 19  2  0  0  0  0
 21 22  1  0  0  0  0
 21 30  2  0  0  0  0
 22 23  2  0  0  0  0
 22 27  1  0  0  0  0
 23 45  1  0  0  0  0
 24 23  1  0  0  0  0
 24 46  1  0  0  0  0
 25 26  1  0  0  0  0
 25 24  2  0  0  0  0
 26 48  1  0  0  0  0
 26 27  2  0  0  0  0
 27 28  1  0  0  0  0
 28 29  1  0  0  0  0
 30 28  1  0  0  0  0
 30 49  1  0  0  0  0
 33  2  1  0  0  0  0
 34  2  1  0  0  0  0
 35  3  1  0  0  0  0
 37  4  1  0  0  0  0
 40 10  1  0  0  0  0
 41 11  1  0  0  0  0
 42 12  1  0  0  0  0
 47 25  1  0  0  0  0
M  END
$$$$
