49
rmsd33.gzmat
N          0.00000        0.00000        0.00000
C          1.46960        0.00000        0.00000
C          2.14530        0.00000        1.38910
C          2.24160       -1.39560        2.02970
N          0.97310       -1.81920        2.60510
C          0.05880       -2.64790        1.97350
C         -1.15040       -2.62950        2.67140
C         -0.99420       -1.70670        3.76620
C          0.34520       -1.20520        3.69650
C          0.83720       -0.27710        4.62200
C         -0.03200        0.16100        5.60420
C         -1.36310       -0.30100        5.66770
C         -1.85020       -1.22410        4.76080
C         -2.31730       -3.34070        2.28590
C         -3.32750       -3.90710        2.99680
C         -4.35430       -4.44360        2.02150
O         -5.40680       -4.98700        2.19390
N         -3.82930       -4.19460        0.72080
C         -2.58330       -3.53160        0.80910
O         -1.91120       -3.22060       -0.13430
C         -3.44530       -4.09150        4.39970
C         -4.63930       -4.17640        5.20560
C         -6.00930       -4.08140        4.94380
C         -6.90000       -4.21280        5.99480
C         -6.45760       -4.43250        7.31540
C         -5.11050       -4.52110        7.61680
C         -4.21030       -4.38910        6.55400
N         -2.80970       -4.43150        6.56180
H         -2.24380       -4.56030        7.36780
C         -2.35760       -4.24750        5.26540
H         -0.39550       -0.90720        0.19200
H         -0.38560        0.66600        0.64700
H          1.78980        0.91730       -0.55070
H          1.82350       -0.86180       -0.60590
H          1.60650        0.69270        2.06500
H          3.16490        0.42030        1.29230
H          3.01310       -1.38960        2.83730
H          2.57590       -2.14820        1.27810
H          0.31090       -3.20780        1.08570
H          1.85880        0.08060        4.56680
H          0.30820        0.88340        6.34530
H         -2.01460        0.08650        6.44900
H         -2.88320       -1.57260        4.80610
H         -4.29090       -4.43700       -0.13350
H         -6.36530       -3.91680        3.92650
H         -7.97030       -4.15030        5.80590
H         -7.19840       -4.53240        8.10750
H         -4.76410       -4.68710        8.62970
H         -1.30570       -4.23440        5.02650
