49
rmsd101.gzmat
N          0.00000        0.00000        0.00000
C          1.47110        0.00000        0.00000
C          2.13500        0.00000        1.39440
C          2.16710        1.38660        2.06020
N          0.84380        1.84310        2.46090
C          0.12170        2.84410        1.82590
C         -1.17330        2.88130        2.34170
C         -1.27850        1.81460        3.30470
C          0.00200        1.17930        3.36100
C          0.25200        0.10190        4.22050
C         -0.80180       -0.35490        4.99010
C         -2.07950        0.23850        4.91630
C         -2.32530        1.31580        4.08570
C         -2.20460        3.78000        1.95700
C         -3.18270        4.37750        2.68810
C         -4.08690        5.14110        1.74470
O         -5.08170        5.77750        1.94080
N         -3.52120        4.98210        0.44860
C         -2.35430        4.17880        0.50850
O         -1.66440        3.92440       -0.43750
C         -3.35330        4.38990        4.09780
C         -4.57310        4.45740        4.86430
C         -5.93150        4.53200        4.54260
C         -6.85860        4.56020        5.56990
C         -6.46450        4.51200        6.92300
C         -5.13070        4.43790        7.28160
C         -4.19310        4.41260        6.24370
N         -2.79530        4.33970        6.30710
H         -2.25990        4.28460        7.14210
C         -2.29830        4.31790        5.01440
H         -0.38240       -0.70980        0.60240
H         -0.38050        0.89250        0.27410
H          1.82080        0.87000       -0.59750
H          1.79800       -0.91010       -0.55620
H          3.17360       -0.37330        1.30310
H          1.61880       -0.72800        2.04970
H          2.62060        2.13550        1.36930
H          2.81900        1.35210        2.96750
H          0.55830        3.47250        1.06580
H          1.23550       -0.34950        4.27990
H         -0.65260       -1.19500        5.66780
H         -2.88260       -0.16910        5.52830
H         -3.31310        1.77600        4.02860
H         -3.90080        5.37770       -0.38830
H         -6.24760        4.57810        3.49980
H         -7.92020        4.62420        5.33880
H         -7.23240        4.53400        7.69470
H         -4.82150        4.40170        8.31910
H         -1.24090        4.25120        4.81210
