49
rmsd133.gzmat
N          0.00000        0.00000        0.00000
C          1.47470        0.00000        0.00000
C          2.11060        0.00000        1.40580
C          2.35190        1.41250        1.96980
N          1.13900        2.21270        2.05630
C          0.90130        3.37650        1.34860
C         -0.39070        3.84250        1.62190
C         -0.99630        2.88750        2.51730
C         -0.00870        1.88510        2.78810
C         -0.25080        0.81570        3.65910
C         -1.50910        0.72960        4.22450
C         -2.50630        1.68370        3.93760
C         -2.26180        2.75560        3.09820
C         -0.91120        5.07340        1.14140
C         -0.55960        5.79930        0.04580
C         -1.27470        7.13150        0.08450
O         -1.19750        8.07370       -0.65290
N         -2.09680        7.09870        1.23690
C         -1.92880        5.87000        1.93440
O         -2.51370        5.62960        2.95080
C          0.32160        5.53320       -1.03740
C          0.53650        4.28190       -1.72010
C         -0.02680        3.00730       -1.61600
C          0.41780        2.01320       -2.46920
C          1.41660        2.26100       -3.43280
C          1.97790        3.51670       -3.58340
C          1.52090        4.52540       -2.72870
N          1.87480        5.87930       -2.66670
H          2.51230        6.33440       -3.27670
C          1.13030        6.48330       -1.66260
H         -0.37820       -0.81770        0.45010
H         -0.35820        0.81770        0.47340
H          1.81510        0.88920       -0.57970
H          1.81650       -0.89110       -0.57100
H          3.08020       -0.53360        1.37220
H          1.47900       -0.58690        2.09930
H          3.09870        1.94990        1.33780
H          2.79710        1.33150        2.99290
H          1.64510        3.82080        0.70570
H          0.52270        0.09340        3.89030
H         -1.74190       -0.08630        4.90760
H         -3.48540        1.57210        4.40070
H         -3.04020        3.49240        2.89470
H         -2.69530        7.84380        1.53480
H         -0.80600        2.81240       -0.87900
H         -0.00970        1.00930       -2.39330
H          1.74130        1.44320       -4.07400
H          2.73160        3.71600       -4.33520
H          1.20820        7.53910       -1.45520
