rmsd73.gzmat
 OpenBabel08211713423D

 49 53  0  0  0  0  0  0  0  0999 V2000
    0.0000    0.0000    0.0000 N   0  0  0  0  0  0  0  0  0  0  0  0
    1.4723    0.0000    0.0000 C   0  0  0  0  0  0  0  0  0  0  0  0
    2.1391    0.0000    1.3936 C   0  0  0  0  0  0  0  0  0  0  0  0
    2.0384    1.3471    2.1308 C   0  0  0  0  0  0  0  0  0  0  0  0
    0.6760    1.6553    2.5461 N   0  0  0  0  0  0  0  0  0  0  0  0
   -0.1663    0.7586    3.1840 C   0  0  0  0  0  0  0  0  0  0  0  0
   -1.4589    1.2835    3.2340 C   0  0  0  0  0  0  0  0  0  0  0  0
   -1.4218    2.5631    2.5748 C   0  0  0  0  0  0  0  0  0  0  0  0
   -0.0724    2.7689    2.1425 C   0  0  0  0  0  0  0  0  0  0  0  0
    0.3150    3.9328    1.4672 C   0  0  0  0  0  0  0  0  0  0  0  0
   -0.6624    4.8789    1.2208 C   0  0  0  0  0  0  0  0  0  0  0  0
   -1.9992    4.6819    1.6265 C   0  0  0  0  0  0  0  0  0  0  0  0
   -2.3863    3.5366    2.2961 C   0  0  0  0  0  0  0  0  0  0  0  0
   -2.5876    0.6082    3.7681 C   0  0  0  0  0  0  0  0  0  0  0  0
   -3.7055    1.0339    4.4078 C   0  0  0  0  0  0  0  0  0  0  0  0
   -4.6279   -0.1561    4.6011 C   0  0  0  0  0  0  0  0  0  0  0  0
   -5.7345   -0.2100    5.0574 O   0  0  0  0  0  0  0  0  0  0  0  0
   -3.9273   -1.2870    4.1059 N   0  0  0  0  0  0  0  0  0  0  0  0
   -2.6712   -0.8939    3.5808 C   0  0  0  0  0  0  0  0  0  0  0  0
   -1.8795   -1.6548    3.0982 O   0  0  0  0  0  0  0  0  0  0  0  0
   -4.1045    2.3046    4.8993 C   0  0  0  0  0  0  0  0  0  0  0  0
   -3.2613    3.3709    5.3849 C   0  0  0  0  0  0  0  0  0  0  0  0
   -1.8829    3.5231    5.5629 C   0  0  0  0  0  0  0  0  0  0  0  0
   -1.4031    4.7226    6.0579 C   0  0  0  0  0  0  0  0  0  0  0  0
   -2.2729    5.7797    6.3973 C   0  0  0  0  0  0  0  0  0  0  0  0
   -3.6440    5.6575    6.2601 C   0  0  0  0  0  0  0  0  0  0  0  0
   -4.1285    4.4451    5.7572 C   0  0  0  0  0  0  0  0  0  0  0  0
   -5.4476    4.0358    5.5196 N   0  0  0  0  0  0  0  0  0  0  0  0
   -6.2583    4.5773    5.7081 H   0  0  0  0  0  0  0  0  0  0  0  0
   -5.4253    2.7429    5.0192 C   0  0  0  0  0  0  0  0  0  0  0  0
   -0.3844   -0.7371    0.5734 H   0  0  0  0  0  0  0  0  0  0  0  0
   -0.3681    0.8731    0.3464 H   0  0  0  0  0  0  0  0  0  0  0  0
    1.8190    0.8739   -0.5933 H   0  0  0  0  0  0  0  0  0  0  0  0
    1.8023   -0.9064   -0.5596 H   0  0  0  0  0  0  0  0  0  0  0  0
    3.2100   -0.2599    1.2800 H   0  0  0  0  0  0  0  0  0  0  0  0
    1.7063   -0.8120    2.0092 H   0  0  0  0  0  0  0  0  0  0  0  0
    2.4222    2.1689    1.4827 H   0  0  0  0  0  0  0  0  0  0  0  0
    2.6889    1.3282    3.0397 H   0  0  0  0  0  0  0  0  0  0  0  0
    0.1840   -0.1857    3.5685 H   0  0  0  0  0  0  0  0  0  0  0  0
    1.3404    4.0861    1.1522 H   0  0  0  0  0  0  0  0  0  0  0  0
   -0.4041    5.8005    0.7006 H   0  0  0  0  0  0  0  0  0  0  0  0
   -2.7323    5.4556    1.4073 H   0  0  0  0  0  0  0  0  0  0  0  0
   -3.4171    3.3857    2.6169 H   0  0  0  0  0  0  0  0  0  0  0  0
   -4.2838   -2.2222    4.0967 H   0  0  0  0  0  0  0  0  0  0  0  0
   -1.2072    2.7074    5.3063 H   0  0  0  0  0  0  0  0  0  0  0  0
   -0.3316    4.8624    6.1875 H   0  0  0  0  0  0  0  0  0  0  0  0
   -1.8475    6.7067    6.7794 H   0  0  0  0  0  0  0  0  0  0  0  0
   -4.3167    6.4626    6.5308 H   0  0  0  0  0  0  0  0  0  0  0  0
   -6.3338    2.2088    4.7840 H   0  0  0  0  0  0  0  0  0  0  0  0
  1 32  1  0  0  0  0
  1 31  1  0  0  0  0
  2  1  1  0  0  0  0
  2  3  1  0  0  0  0
  3 36  1  0  0  0  0
  3  4  1  0  0  0  0
  4  5  1  0  0  0  0
  4 38  1  0  0  0  0
  5  6  1  0  0  0  0
  6  7  2  0  0  0  0
  6 39  1  0  0  0  0
  7 14  1  0  0  0  0
  8  7  1  0  0  0  0
  9  5  1  0  0  0  0
  9  8  2  0  0  0  0
 10  9  1  0  0  0  0
 11 10  2  0  0  0  0
 11 12  1  0  0  0  0
 12 13  2  0  0  0  0
 13  8  1  0  0  0  0
 13 43  1  0  0  0  0
 14 15  2  0  0  0  0
 15 16  1  0  0  0  0
 15 21  1  0  0  0  0
 16 17  2  0  0  0  0
 18 16  1  0  0  0  0
 19 14  1  0  0  0  0
 19 18  1  0  0  0  0
 20 19  2  0  0  0  0
 21 30  2  0  0  0  0
 21 22  1  0  0  0  0
 22 23  2  0  0  0  0
 22 27  1  0  0  0  0
 23 24  1  0  0  0  0
 24 46  1  0  0  0  0
 24 25  2  0  0  0  0
 25 47  1  0  0  0  0
 26 25  1  0  0  0  0
 26 48  1  0  0  0  0
 27 26  2  0  0  0  0
 28 29  1  0  0  0  0
 28 27  1  0  0  0  0
 30 28  1  0  0  0  0
 33  2  1  0  0  0  0
 34  2  1  0  0  0  0
 35  3  1  0  0  0  0
 37  4  1  0  0  0  0
 40 10  1  0  0  0  0
 41 11  1  0  0  0  0
 42 12  1  0  0  0  0
 44 18  1  0  0  0  0
 45 23  1  0  0  0  0
 49 30  1  0  0  0  0
M  END
$$$$
