
     RDKit          3D

 49 53  0  0  0  0  0  0  0  0999 V2000
   -0.1427   -0.0196    0.2271 N   0  0  0  0  0  0  0  0  0  0  0  0
    1.2979    0.0502    0.0524 C   0  0  0  0  0  0  0  0  0  0  0  0
    2.1868   -0.0162    1.3096 C   0  0  0  0  0  0  0  0  0  0  0  0
    2.2552   -1.3617    2.0403 C   0  0  0  0  0  0  0  0  0  0  0  0
    0.9888   -1.7902    2.6119 N   0  0  0  0  0  0  0  0  0  0  0  0
    0.1018   -2.6322    1.9981 C   0  0  0  0  0  0  0  0  0  0  0  0
   -1.1091   -2.6553    2.6786 C   0  0  0  0  0  0  0  0  0  0  0  0
   -0.9614   -1.7270    3.7845 C   0  0  0  0  0  0  0  0  0  0  0  0
    0.3626   -1.2054    3.7037 C   0  0  0  0  0  0  0  0  0  0  0  0
    0.8468   -0.2544    4.6100 C   0  0  0  0  0  0  0  0  0  0  0  0
   -0.0180    0.1812    5.6123 C   0  0  0  0  0  0  0  0  0  0  0  0
   -1.3371   -0.3083    5.6983 C   0  0  0  0  0  0  0  0  0  0  0  0
   -1.8180   -1.2534    4.7948 C   0  0  0  0  0  0  0  0  0  0  0  0
   -2.2732   -3.3936    2.2425 C   0  0  0  0  0  0  0  0  0  0  0  0
   -3.3175   -3.9567    2.9310 C   0  0  0  0  0  0  0  0  0  0  0  0
   -4.2981   -4.4934    1.9193 C   0  0  0  0  0  0  0  0  0  0  0  0
   -5.3589   -5.0442    2.0995 O   0  0  0  0  0  0  0  0  0  0  0  0
   -3.7338   -4.2457    0.6654 N   0  0  0  0  0  0  0  0  0  0  0  0
   -2.5217   -3.5795    0.7692 C   0  0  0  0  0  0  0  0  0  0  0  0
   -1.8313   -3.2167   -0.1602 O   0  0  0  0  0  0  0  0  0  0  0  0
   -3.4619   -4.1629    4.3581 C   0  0  0  0  0  0  0  0  0  0  0  0
   -4.6611   -4.1992    5.1821 C   0  0  0  0  0  0  0  0  0  0  0  0
   -6.0402   -4.0638    4.9348 C   0  0  0  0  0  0  0  0  0  0  0  0
   -6.9261   -4.1175    6.0061 C   0  0  0  0  0  0  0  0  0  0  0  0
   -6.4724   -4.3069    7.3285 C   0  0  0  0  0  0  0  0  0  0  0  0
   -5.1160   -4.4437    7.6066 C   0  0  0  0  0  0  0  0  0  0  0  0
   -4.2274   -4.3845    6.5267 C   0  0  0  0  0  0  0  0  0  0  0  0
   -2.8473   -4.4728    6.5084 N   0  0  0  0  0  0  0  0  0  0  0  0
   -2.2608   -4.6064    7.3209 H   0  0  0  0  0  0  0  0  0  0  0  0
   -2.3917   -4.3342    5.2268 C   0  0  0  0  0  0  0  0  0  0  0  0
   -0.4964   -0.9721    0.2842 H   0  0  0  0  0  0  0  0  0  0  0  0
   -0.4531    0.4775    1.0604 H   0  0  0  0  0  0  0  0  0  0  0  0
    1.5523    0.9978   -0.4590 H   0  0  0  0  0  0  0  0  0  0  0  0
    1.5980   -0.7486   -0.6490 H   0  0  0  0  0  0  0  0  0  0  0  0
    1.8620    0.7645    2.0197 H   0  0  0  0  0  0  0  0  0  0  0  0
    3.2197    0.2476    1.0204 H   0  0  0  0  0  0  0  0  0  0  0  0
    3.0006   -1.3123    2.8505 H   0  0  0  0  0  0  0  0  0  0  0  0
    2.5862   -2.1535    1.3503 H   0  0  0  0  0  0  0  0  0  0  0  0
    0.3788   -3.1706    1.0958 H   0  0  0  0  0  0  0  0  0  0  0  0
    1.8618    0.1394    4.5348 H   0  0  0  0  0  0  0  0  0  0  0  0
    0.3296    0.9225    6.3356 H   0  0  0  0  0  0  0  0  0  0  0  0
   -1.9963    0.0658    6.4849 H   0  0  0  0  0  0  0  0  0  0  0  0
   -2.8447   -1.6116    4.8627 H   0  0  0  0  0  0  0  0  0  0  0  0
   -4.1832   -4.4810   -0.2116 H   0  0  0  0  0  0  0  0  0  0  0  0
   -6.4032   -3.9454    3.9153 H   0  0  0  0  0  0  0  0  0  0  0  0
   -7.9979   -4.0178    5.8198 H   0  0  0  0  0  0  0  0  0  0  0  0
   -7.1958   -4.3479    8.1461 H   0  0  0  0  0  0  0  0  0  0  0  0
   -4.7570   -4.5884    8.6283 H   0  0  0  0  0  0  0  0  0  0  0  0
   -1.3297   -4.3651    4.9989 H   0  0  0  0  0  0  0  0  0  0  0  0
  1  2  1  0
  1 31  1  0
  1 32  1  0
  2  3  1  0
  2 33  1  0
  2 34  1  0
  3  4  1  0
  3 35  1  0
  3 36  1  0
  4  5  1  0
  4 37  1  0
  4 38  1  0
  5  6  1  0
  5  9  1  0
  6  7  2  0
  6 39  1  0
  7  8  1  0
  7 14  1  0
  8  9  2  0
  8 13  1  0
  9 10  1  0
 10 11  2  0
 10 40  1  0
 11 12  1  0
 11 41  1  0
 12 13  2  0
 12 42  1  0
 13 43  1  0
 14 15  2  0
 14 19  1  0
 15 16  1  0
 15 21  1  0
 16 17  2  0
 16 18  1  0
 18 19  1  0
 18 44  1  0
 19 20  2  0
 21 22  1  0
 21 30  2  0
 22 23  2  0
 22 27  1  0
 23 24  1  0
 23 45  1  0
 24 25  2  0
 24 46  1  0
 25 26  1  0
 25 47  1  0
 26 27  2  0
 26 48  1  0
 27 28  1  0
 28 29  1  0
 28 30  1  0
 30 49  1  0
M  END

