49
rmsd121.gzmat
N          0.00000        0.00000        0.00000
C          1.47240        0.00000        0.00000
C          2.13140        0.00000        1.39730
C          2.24570        1.40350        2.01970
N          0.94340        1.98150        2.32270
C          0.01620        1.39830        3.17500
C         -1.21070        2.04990        3.04900
C         -1.04910        3.06600        2.04120
C          0.30710        2.99130        1.58870
C          0.79750        3.84170        0.58980
C         -0.08390        4.75810        0.04680
C         -1.42670        4.83230        0.47300
C         -1.91600        3.99400        1.45710
C         -2.40030        1.69410        3.73980
C         -3.42370        2.43850        4.23580
C         -4.46900        1.49770        4.79840
O         -5.52830        1.70400        5.31590
N         -3.95250        0.18300        4.61660
C         -2.68600        0.23010        3.98750
O         -2.02290       -0.73790        3.73770
C         -3.54560        3.85080        4.32120
C         -4.74120        4.65880        4.30580
C         -6.10840        4.38860        4.19360
C         -7.00150        5.44580        4.21050
C         -6.56430        6.78080        4.33260
C         -5.22020        7.09020        4.43680
C         -4.31820        6.02110        4.42130
N         -2.91990        6.03440        4.50980
H         -2.35770        6.84970        4.58820
C         -2.46320        4.72820        4.44320
H         -0.38180       -0.76760        0.53170
H         -0.36820        0.85390        0.39200
H          1.81520        0.87910       -0.58900
H          1.80500       -0.90120       -0.56400
H          3.14550       -0.43730        1.32090
H          1.57120       -0.67400        2.07400
H          2.80280        2.08520        1.33630
H          2.83900        1.35000        2.96510
H          0.27210        0.57400        3.82110
H          1.82460        3.77710        0.24970
H          0.25600        5.43630       -0.73520
H         -2.08490        5.56300        0.00620
H         -2.95750        4.04110        1.77880
H         -4.42160       -0.65600        4.89590
H         -6.46120        3.36070        4.10530
H         -8.06990        5.25170        4.13370
H         -7.30660        7.57740        4.34490
H         -4.87840        8.11390        4.53080
H         -1.41160        4.49090        4.48280
