49
rmsd129.gzmat
N          0.00000        0.00000        0.00000
C          1.47260        0.00000        0.00000
C          2.11760        0.00000        1.40170
C          2.04720        1.37330        2.09410
N          0.81090        1.54680        2.84370
C          0.49140        0.83900        3.98580
C         -0.80640        1.16570        4.39950
C         -1.32260        2.11170        3.44360
C         -0.29090        2.32810        2.47290
C         -0.46170        3.19570        1.38710
C         -1.68110        3.83680        1.27350
C         -2.71040        3.62770        2.21450
C         -2.54350        2.77630        3.29150
C         -1.40950        0.63440        5.56850
C         -1.14610       -0.54550        6.19190
C         -1.89990       -0.59910        7.49610
O         -1.90320       -1.42800        8.36130
N         -2.65600        0.60090        7.55310
C         -2.41770        1.40030        6.40100
O         -2.95200        2.45740        6.22770
C         -0.32540       -1.63580        5.78790
C         -0.25100       -2.20580        4.46510
C         -0.92860       -1.96470        3.26670
C         -0.62220       -2.74250        2.16500
C          0.36330       -3.75030        2.22780
C          1.04320       -4.02560        3.40010
C          0.71570       -3.25850        4.52440
N          1.19680       -3.32700        5.83590
H          1.85050       -3.99260        6.17580
C          0.54540       -2.36020        6.59670
H         -0.37100       -0.83540        0.42770
H         -0.36780        0.79440        0.50240
H          1.81430        0.88070       -0.58720
H          1.81450       -0.89630       -0.56530
H          3.17630       -0.30990        1.31690
H          1.63790       -0.77580        2.03310
H          2.14750        2.19580        1.34810
H          2.90720        1.48490        2.79900
H          1.18600        0.15730        4.45030
H          0.32900        3.35470        0.66270
H         -1.85930        4.51640        0.44090
H         -3.65370        4.15560        2.08360
H         -3.34340        2.62580        4.01780
H         -3.26410        0.85650        8.30600
H         -1.68790       -1.18320        3.22180
H         -1.16160       -2.59950        1.22970
H          0.57790       -4.32870        1.32960
H          1.78950       -4.80960        3.45350
H          0.73370       -2.24880        7.65180
