
     RDKit          3D

 49 53  0  0  0  0  0  0  0  0999 V2000
   -0.1539    0.0445    0.1158 N   0  0  0  0  0  0  0  0  0  0  0  0
    1.2911    0.1322   -0.0128 C   0  0  0  0  0  0  0  0  0  0  0  0
    2.1410    0.0524    1.2716 C   0  0  0  0  0  0  0  0  0  0  0  0
    2.0893    1.2746    2.1948 C   0  0  0  0  0  0  0  0  0  0  0  0
    0.7392    1.6247    2.6139 N   0  0  0  0  0  0  0  0  0  0  0  0
   -0.1047    0.7613    3.2619 C   0  0  0  0  0  0  0  0  0  0  0  0
   -1.3936    1.2738    3.3001 C   0  0  0  0  0  0  0  0  0  0  0  0
   -1.3442    2.5395    2.5946 C   0  0  0  0  0  0  0  0  0  0  0  0
    0.0051    2.7197    2.1737 C   0  0  0  0  0  0  0  0  0  0  0  0
    0.4046    3.8373    1.4288 C   0  0  0  0  0  0  0  0  0  0  0  0
   -0.5683    4.7788    1.1034 C   0  0  0  0  0  0  0  0  0  0  0  0
   -1.9107    4.6097    1.5016 C   0  0  0  0  0  0  0  0  0  0  0  0
   -2.3074    3.4997    2.2395 C   0  0  0  0  0  0  0  0  0  0  0  0
   -2.5444    0.5751    3.8255 C   0  0  0  0  0  0  0  0  0  0  0  0
   -3.7088    1.0174    4.3981 C   0  0  0  0  0  0  0  0  0  0  0  0
   -4.6323   -0.1686    4.5403 C   0  0  0  0  0  0  0  0  0  0  0  0
   -5.7729   -0.1942    4.9441 O   0  0  0  0  0  0  0  0  0  0  0  0
   -3.9094   -1.2765    4.1033 N   0  0  0  0  0  0  0  0  0  0  0  0
   -2.6461   -0.9171    3.6456 C   0  0  0  0  0  0  0  0  0  0  0  0
   -1.8248   -1.6770    3.1794 O   0  0  0  0  0  0  0  0  0  0  0  0
   -4.1061    2.3177    4.8860 C   0  0  0  0  0  0  0  0  0  0  0  0
   -3.2786    3.4005    5.3928 C   0  0  0  0  0  0  0  0  0  0  0  0
   -1.9016    3.5654    5.6255 C   0  0  0  0  0  0  0  0  0  0  0  0
   -1.4457    4.7676    6.1572 C   0  0  0  0  0  0  0  0  0  0  0  0
   -2.3361    5.8141    6.4737 C   0  0  0  0  0  0  0  0  0  0  0  0
   -3.7074    5.6717    6.2788 C   0  0  0  0  0  0  0  0  0  0  0  0
   -4.1607    4.4600    5.7465 C   0  0  0  0  0  0  0  0  0  0  0  0
   -5.4494    4.0310    5.4802 N   0  0  0  0  0  0  0  0  0  0  0  0
   -6.2886    4.5689    5.6488 H   0  0  0  0  0  0  0  0  0  0  0  0
   -5.4229    2.7556    4.9865 C   0  0  0  0  0  0  0  0  0  0  0  0
   -0.4338   -0.7110    0.7418 H   0  0  0  0  0  0  0  0  0  0  0  0
   -0.5554    0.8996    0.4934 H   0  0  0  0  0  0  0  0  0  0  0  0
    1.5317    1.0679   -0.5485 H   0  0  0  0  0  0  0  0  0  0  0  0
    1.6330   -0.6839   -0.6747 H   0  0  0  0  0  0  0  0  0  0  0  0
    3.1988   -0.0995    0.9930 H   0  0  0  0  0  0  0  0  0  0  0  0
    1.8454   -0.8488    1.8377 H   0  0  0  0  0  0  0  0  0  0  0  0
    2.5128    2.1519    1.6866 H   0  0  0  0  0  0  0  0  0  0  0  0
    2.7078    1.0978    3.0908 H   0  0  0  0  0  0  0  0  0  0  0  0
    0.2515   -0.1916    3.6421 H   0  0  0  0  0  0  0  0  0  0  0  0
    1.4386    3.9706    1.1065 H   0  0  0  0  0  0  0  0  0  0  0  0
   -0.2859    5.6610    0.5244 H   0  0  0  0  0  0  0  0  0  0  0  0
   -2.6496    5.3648    1.2245 H   0  0  0  0  0  0  0  0  0  0  0  0
   -3.3465    3.3741    2.5424 H   0  0  0  0  0  0  0  0  0  0  0  0
   -4.2812   -2.2184    4.0687 H   0  0  0  0  0  0  0  0  0  0  0  0
   -1.2019    2.7652    5.3894 H   0  0  0  0  0  0  0  0  0  0  0  0
   -0.3763    4.9057    6.3315 H   0  0  0  0  0  0  0  0  0  0  0  0
   -1.9461    6.7475    6.8859 H   0  0  0  0  0  0  0  0  0  0  0  0
   -4.4035    6.4727    6.5387 H   0  0  0  0  0  0  0  0  0  0  0  0
   -6.3328    2.2177    4.7371 H   0  0  0  0  0  0  0  0  0  0  0  0
  1  2  1  0
  1 31  1  0
  1 32  1  0
  2  3  1  0
  2 33  1  0
  2 34  1  0
  3  4  1  0
  3 35  1  0
  3 36  1  0
  4  5  1  0
  4 37  1  0
  4 38  1  0
  5  6  1  0
  5  9  1  0
  6  7  2  0
  6 39  1  0
  7  8  1  0
  7 14  1  0
  8  9  2  0
  8 13  1  0
  9 10  1  0
 10 11  2  0
 10 40  1  0
 11 12  1  0
 11 41  1  0
 12 13  2  0
 12 42  1  0
 13 43  1  0
 14 15  2  0
 14 19  1  0
 15 16  1  0
 15 21  1  0
 16 17  2  0
 16 18  1  0
 18 19  1  0
 18 44  1  0
 19 20  2  0
 21 22  1  0
 21 30  2  0
 22 23  2  0
 22 27  1  0
 23 24  1  0
 23 45  1  0
 24 25  2  0
 24 46  1  0
 25 26  1  0
 25 47  1  0
 26 27  2  0
 26 48  1  0
 27 28  1  0
 28 29  1  0
 28 30  1  0
 30 49  1  0
M  END

