49
rmsd119.gzmat
N          0.00000        0.00000        0.00000
C          1.47280        0.00000        0.00000
C          2.12640        0.00000        1.39920
C          2.17420        1.39270        2.05200
N          0.85320        1.86560        2.44040
C          0.02880        1.21760        3.34650
C         -1.23470        1.81180        3.33830
C         -1.20410        2.85480        2.34440
C          0.11670        2.86620        1.79310
C          0.49750        3.78460        0.80670
C         -0.45950        4.68270        0.37280
C         -1.77260        4.66630        0.88810
C         -2.15280        3.76090        1.86080
C         -2.32760        1.41060        4.15130
C         -3.35270        2.09550        4.71870
C         -4.28890        1.10110        5.37870
O         -5.33570        1.27600        5.93540
N         -3.69120       -0.17510        5.21410
C         -2.48350       -0.06090        4.47990
O         -1.77410       -0.99020        4.21420
C         -3.65030        3.48170        4.79690
C         -2.72090        4.58550        4.82850
C         -1.32680        4.68870        4.85280
C         -0.75200        5.94690        4.85260
C         -1.54060        7.11610        4.83980
C         -2.92230        7.05410        4.85150
C         -3.50310        5.78140        4.85780
N         -4.85490        5.41210        4.87420
H         -5.61950        6.04270        4.93290
C         -4.93410        4.02760        4.85590
H         -0.37790       -0.74860        0.56000
H         -0.36790        0.86690        0.36300
H          1.81930        0.87600       -0.59020
H          1.80460       -0.90400       -0.56130
H          3.15970       -0.38980        1.32010
H          1.59370       -0.71390        2.05750
H          2.64220        2.12990        1.35950
H          2.82120        1.35880        2.96250
H          0.37420        0.39070        3.94630
H          1.50190        3.78970        0.40020
H         -0.20360        5.42280       -0.38440
H         -2.49230        5.38990        0.51050
H         -3.16660        3.74960        2.26120
H         -4.07620       -1.03450        5.55280
H         -0.71420        3.78760        4.86210
H          0.33160        6.04570        4.85560
H         -1.04170        8.08390        4.82380
H         -3.53190        7.94950        4.85370
H         -5.88140        3.51140        4.88950
