30
rmsd4.gzmat
C          0.00000        0.00000        0.00000
C          1.53270        0.00000        0.00000
C          2.06030        0.00000        1.45130
C          1.52870       -1.23470        2.21010
C         -0.00360       -1.22930        2.20210
C         -0.54020       -1.21450        0.76550
N          3.54110       -0.04080        1.52440
C          4.19340        1.22280        1.10140
C          5.41200        1.46680        2.00330
S          4.92940        1.71180        3.71440
O          6.09390        2.09980        4.46490
O          3.72960        2.51080        3.74120
O          4.53780        0.17570        4.15270
H         -0.38070        0.93420        0.45540
H         -0.38020       -0.00650       -1.03850
H          1.91210        0.88150       -0.54570
H          1.90860       -0.88530       -0.54380
H          1.71380        0.92980        1.97800
H          1.91090       -2.16520        1.75390
H          1.90420       -1.22670        3.25200
H         -0.38620       -2.11550        2.74210
H         -0.38210       -0.34930        2.75720
H         -0.25260       -2.14760        0.24600
H         -1.64590       -1.19670        0.77220
H          3.91560       -0.83740        1.01250
H          3.47790        2.07770        1.17980
H          4.51300        1.18910        0.03730
H          5.97710        2.34770        1.64340
H          6.12280        0.62030        1.93420
H          3.91510       -0.26090        3.52360
