30
rmsd14.gzmat
C          0.00000        0.00000        0.00000
C          1.53230        0.00000        0.00000
C          2.05200        0.00000        1.45710
C          1.52750       -1.24300        2.20710
C         -0.00320       -1.24850        2.19630
C         -0.53900       -1.22040        0.75880
N          3.52510       -0.02630        1.54520
C          4.17420        1.28040        1.33760
C          4.26130        1.97830        2.70650
S          4.95720        0.90030        3.93940
O          3.97020        0.31230        4.80610
O          6.06720        0.13250        3.44180
O          5.63440        2.13460        4.84470
H         -0.37900        0.93100        0.46160
H         -0.38040       -0.00040       -1.03840
H          1.91380        0.87890       -0.54600
H          1.90910       -0.88660       -0.54100
H          1.67980        0.91790        1.97900
H          1.92460       -2.16650        1.75170
H          1.91230       -1.23150        3.24890
H         -0.37940       -2.14410        2.72480
H         -0.38920       -0.38000        2.76260
H         -0.24850       -2.14860        0.23200
H         -1.64420       -1.20470        0.76580
H          3.93280       -0.75940        0.97310
H          3.63430        1.93310        0.61760
H          5.19480        1.12500        0.91500
H          3.25410        2.30840        3.03240
H          4.86290        2.90610        2.62600
H          6.03950        1.90690        5.68270
