30

C         -0.02210        0.21790        0.32100
C          1.50190        0.19690        0.15790
C          2.21410       -0.10970        1.48720
C          1.69090       -1.41160        2.10160
C          0.16770       -1.39890        2.25700
C         -0.53580       -1.09070        0.93090
N          3.66630       -0.17440        1.39640
C          4.40770        1.04240        1.16330
C          4.36850        1.95600        2.38580
S          4.72530        1.00640        3.88450
O          3.51520        0.41840        4.46360
O          5.94020        0.23490        3.68040
O          5.09710        2.28360        4.87040
H         -0.30220        1.05910        0.98170
H         -0.50840        0.41070       -0.64950
H          1.85510        1.15700       -0.25510
H          1.78440       -0.58370       -0.57360
H          1.96820        0.69510        2.20220
H          1.98750       -2.25360        1.44690
H          2.19290       -1.55860        3.06880
H         -0.18020       -2.36290        2.66290
H         -0.11000       -0.63090        3.00170
H         -0.35000       -1.91700        0.22010
H         -1.62780       -1.04310        1.07550
H          3.96930       -0.92430        0.78060
H          4.07370        1.64610        0.29030
H          5.45650        0.76670        0.97940
H          3.38920        2.42120        2.56310
H          5.13290        2.74360        2.33990
H          4.52850        2.18910        5.65360
