30

C         -0.11980        0.06050        0.10670
C          1.40880        0.13920        0.03310
C          2.06430        0.00380        1.42200
C          1.58510       -1.27830        2.11230
C          0.05800       -1.36340        2.18660
C         -0.58190       -1.22410        0.80130
N          3.52120        0.02790        1.41160
C          4.13570        1.26930        0.99590
C          5.65340        1.19870        1.11130
S          6.42810        0.21380       -0.18300
O          7.86390        0.20240        0.02890
O          5.67790       -1.02990       -0.39740
O          6.11180        1.16710       -1.49080
H         -0.49940        0.93310        0.66980
H         -0.55470        0.13200       -0.90400
H          1.71590        1.08430       -0.44430
H          1.79320       -0.67760       -0.60650
H          1.73080        0.86300        2.03680
H          1.97350       -2.14380        1.54300
H          2.03950       -1.33360        3.11370
H         -0.24610       -2.31210        2.65840
H         -0.31830       -0.55610        2.84160
H         -0.29650       -2.09340        0.18100
H         -1.68140       -1.24400        0.88110
H          3.88520       -0.74260        0.84980
H          3.79320        2.07620        1.66730
H          3.88200        1.60330       -0.03330
H          5.95970        0.70900        2.04760
H          6.13890        2.18150        1.03490
H          5.59810        0.62430       -2.11320
