30

C          0.03480       -0.13900       -0.09900
C          1.55880       -0.04220        0.02820
C          2.01360       -0.01530        1.49880
C          1.45690       -1.22790        2.25260
C         -0.06590       -1.33660        2.12640
C         -0.51190       -1.35220        0.66030
N          3.46200        0.05910        1.67810
C          4.08840        1.32900        1.36350
C          4.04100        2.25580        2.58350
S          4.79730        3.83980        2.20290
O          6.23780        3.66010        2.01700
O          3.97860        4.52470        1.21530
O          4.59610        4.62620        3.63520
H         -0.42080        0.78160        0.30970
H         -0.25710       -0.18320       -1.16100
H          1.93210        0.84870       -0.50280
H          2.02530       -0.91980       -0.45830
H          1.58370        0.89030        1.96680
H          1.92650       -2.14050        1.83880
H          1.76880       -1.16710        3.30700
H         -0.42660       -2.23750        2.64920
H         -0.53230       -0.47390        2.63670
H         -0.14260       -2.27640        0.17890
H         -1.61190       -1.38370        0.59400
H          3.91630       -0.69940        1.17440
H          3.63000        1.85760        0.50510
H          5.14400        1.15990        1.10350
H          4.59190        1.82860        3.43230
H          3.01160        2.48540        2.89270
H          5.48260        4.72940        4.02160
