rmsd31.gzmat
 OpenBabel08211713423D

 30 30  0  0  0  0  0  0  0  0999 V2000
    0.0000    0.0000    0.0000 C   0  0  0  0  0  0  0  0  0  0  0  0
    1.5319    0.0000    0.0000 C   0  0  0  0  0  0  0  0  0  0  0  0
    2.0644    0.0000    1.4489 C   0  0  0  0  0  0  0  0  0  0  0  0
    1.5222   -1.2307    2.2106 C   0  0  0  0  0  0  0  0  0  0  0  0
   -0.0089   -1.2166    2.2097 C   0  0  0  0  0  0  0  0  0  0  0  0
   -0.5443   -1.2096    0.7718 C   0  0  0  0  0  0  0  0  0  0  0  0
    3.5450   -0.0938    1.4381 N   0  0  0  0  0  0  0  0  0  0  0  0
    4.1980    0.6207    2.5379 C   0  0  0  0  0  0  0  0  0  0  0  0
    4.2232    2.1645    2.4226 C   0  0  0  0  0  0  0  0  0  0  0  0
    5.1965    2.7447    1.0664 S   0  0  0  0  0  0  0  0  0  0  0  0
    6.5768    2.9094    1.4306 O   0  0  0  0  0  0  0  0  0  0  0  0
    4.8469    2.0589   -0.1528 O   0  0  0  0  0  0  0  0  0  0  0  0
    4.5435    4.2653    0.9641 O   0  0  0  0  0  0  0  0  0  0  0  0
   -0.3806    0.9363    0.4480 H   0  0  0  0  0  0  0  0  0  0  0  0
   -0.3756   -0.0145   -1.0403 H   0  0  0  0  0  0  0  0  0  0  0  0
    1.9163    0.8793   -0.5507 H   0  0  0  0  0  0  0  0  0  0  0  0
    1.9142   -0.8879   -0.5394 H   0  0  0  0  0  0  0  0  0  0  0  0
    1.7113    0.9290    1.9624 H   0  0  0  0  0  0  0  0  0  0  0  0
    1.9066   -2.1538    1.7373 H   0  0  0  0  0  0  0  0  0  0  0  0
    1.9127   -1.2434    3.2419 H   0  0  0  0  0  0  0  0  0  0  0  0
   -0.3964   -2.0964    2.7557 H   0  0  0  0  0  0  0  0  0  0  0  0
   -0.3828   -0.3308    2.7557 H   0  0  0  0  0  0  0  0  0  0  0  0
   -0.2528   -2.1457    0.2590 H   0  0  0  0  0  0  0  0  0  0  0  0
   -1.6494   -1.1923    0.7770 H   0  0  0  0  0  0  0  0  0  0  0  0
    3.9411    0.1598    0.5285 H   0  0  0  0  0  0  0  0  0  0  0  0
    5.2361    0.2153    2.6224 H   0  0  0  0  0  0  0  0  0  0  0  0
    3.6946    0.3444    3.4944 H   0  0  0  0  0  0  0  0  0  0  0  0
    4.5968    2.5953    3.3738 H   0  0  0  0  0  0  0  0  0  0  0  0
    3.1838    2.5455    2.3323 H   0  0  0  0  0  0  0  0  0  0  0  0
    4.8929    4.8704    0.3023 H   0  0  0  0  0  0  0  0  0  0  0  0
  1  2  1  0  0  0  0
  1 14  1  0  0  0  0
  1  6  1  0  0  0  0
  2  3  1  0  0  0  0
  3 18  1  0  0  0  0
  3  4  1  0  0  0  0
  4 20  1  0  0  0  0
  5  4  1  0  0  0  0
  5 22  1  0  0  0  0
  5 21  1  0  0  0  0
  6 24  1  0  0  0  0
  6  5  1  0  0  0  0
  7  3  1  0  0  0  0
  7  8  1  0  0  0  0
  8 26  1  0  0  0  0
  8 27  1  0  0  0  0
  9  8  1  0  0  0  0
  9 28  1  0  0  0  0
 10 11  1  0  0  0  0
 10  9  1  0  0  0  0
 12 10  1  0  0  0  0
 13 10  1  0  0  0  0
 15  1  1  0  0  0  0
 16  2  1  0  0  0  0
 17  2  1  0  0  0  0
 19  4  1  0  0  0  0
 23  6  1  0  0  0  0
 25  7  1  0  0  0  0
 29  9  1  0  0  0  0
 30 13  1  0  0  0  0
M  RAD  2  11   2  12   2
M  END
$$$$
