30
rmsd10.gzmat
C          0.00000        0.00000        0.00000
C          1.53160        0.00000        0.00000
C          2.06330        0.00000        1.45300
C          1.52570       -1.23500        2.20940
C         -0.00550       -1.22620        2.20600
C         -0.54120       -1.21330        0.76790
N          3.53920       -0.05630        1.52820
C          4.18050        1.23630        1.19540
C          5.70590        1.06010        1.12060
S          6.21910        0.25890       -0.37090
O          5.65960       -1.06590       -0.46640
O          6.13580        1.15130       -1.49420
O          7.82460        0.07670       -0.00760
H         -0.38060        0.93360        0.45430
H         -0.37740       -0.00890       -1.03970
H          1.91420        0.87760       -0.54960
H          1.91110       -0.88750       -0.54090
H          1.71550        0.92610        1.97490
H          1.90500       -2.16400        1.74540
H          1.91810       -1.23320        3.24350
H         -0.38870       -2.11150        2.74660
H         -0.38330       -0.34610        2.75880
H         -0.25130       -2.14670        0.24960
H         -1.64590       -1.19700        0.77500
H          3.90960       -0.82150        0.95710
H          3.93630        1.94370        2.02500
H          3.78180        1.70490        0.26710
H          6.04650        0.47960        2.01040
H          6.20170        2.04720        1.22120
H          8.36910       -0.44130       -0.61020
