30
rmsd25.gzmat
C          0.00000        0.00000        0.00000
C          1.53220        0.00000        0.00000
C          2.06340        0.00000        1.45310
C          1.52410       -1.23380        2.20950
C         -0.00730       -1.22120        2.20660
C         -0.54330       -1.21120        0.76910
N          3.53870       -0.04570        1.53540
C          4.19120        1.19630        1.06340
C          5.63990        1.16880        1.58350
S          6.49360        2.68960        1.30720
O          5.69560        3.83520        1.65950
O          7.85210        2.58300        1.76000
O          6.50040        2.66080       -0.35350
H         -0.37970        0.93550        0.45250
H         -0.37710       -0.00980       -1.03960
H          1.91070        0.88180       -0.54570
H          1.91170       -0.88400       -0.54220
H          1.71690        0.92940        1.97380
H          1.90130       -2.16360        1.74810
H          1.91260       -1.23110        3.24550
H         -0.39220       -2.10360        2.75030
H         -0.38080       -0.33760        2.75740
H         -0.25520       -2.14640        0.25350
H         -1.64860       -1.19350        0.77550
H          3.91040       -0.86250        1.05680
H          3.63810        2.07080        1.48330
H          4.17010        1.29930       -0.04480
H          6.19340        0.32580        1.11920
H          5.62360        0.91840        2.67000
H          6.60490        3.49850       -0.81480
