rmsd4.gzmat
 OpenBabel08211713423D

 30 29  0  0  0  0  0  0  0  0999 V2000
    0.0000    0.0000    0.0000 C   0  0  0  0  0  0  0  0  0  0  0  0
    1.5327    0.0000    0.0000 C   0  0  0  0  0  0  0  0  0  0  0  0
    2.0603    0.0000    1.4513 C   0  0  0  0  0  0  0  0  0  0  0  0
    1.5287   -1.2347    2.2101 C   0  0  0  0  0  0  0  0  0  0  0  0
   -0.0036   -1.2293    2.2021 C   0  0  0  0  0  0  0  0  0  0  0  0
   -0.5402   -1.2145    0.7655 C   0  0  0  0  0  0  0  0  0  0  0  0
    3.5411   -0.0408    1.5244 N   0  0  0  0  0  0  0  0  0  0  0  0
    4.1934    1.2228    1.1014 C   0  0  0  0  0  0  0  0  0  0  0  0
    5.4120    1.4668    2.0033 C   0  0  0  0  0  0  0  0  0  0  0  0
    4.9294    1.7118    3.7144 S   0  0  2  0  0  0  0  0  0  0  0  0
    6.0939    2.0998    4.4649 O   0  0  0  0  0  0  0  0  0  0  0  0
    3.7296    2.5108    3.7412 O   0  0  0  0  0  0  0  0  0  0  0  0
    4.5378    0.1757    4.1527 O   0  0  0  0  0  0  0  0  0  0  0  0
   -0.3807    0.9342    0.4554 H   0  0  0  0  0  0  0  0  0  0  0  0
   -0.3802   -0.0065   -1.0385 H   0  0  0  0  0  0  0  0  0  0  0  0
    1.9121    0.8815   -0.5457 H   0  0  0  0  0  0  0  0  0  0  0  0
    1.9086   -0.8853   -0.5438 H   0  0  0  0  0  0  0  0  0  0  0  0
    1.7138    0.9298    1.9780 H   0  0  0  0  0  0  0  0  0  0  0  0
    1.9109   -2.1652    1.7539 H   0  0  0  0  0  0  0  0  0  0  0  0
    1.9042   -1.2267    3.2520 H   0  0  0  0  0  0  0  0  0  0  0  0
   -0.3862   -2.1155    2.7421 H   0  0  0  0  0  0  0  0  0  0  0  0
   -0.3821   -0.3493    2.7572 H   0  0  0  0  0  0  0  0  0  0  0  0
   -0.2526   -2.1476    0.2460 H   0  0  0  0  0  0  0  0  0  0  0  0
   -1.6459   -1.1967    0.7722 H   0  0  0  0  0  0  0  0  0  0  0  0
    3.9156   -0.8374    1.0125 H   0  0  0  0  0  0  0  0  0  0  0  0
    3.4779    2.0777    1.1798 H   0  0  0  0  0  0  0  0  0  0  0  0
    4.5130    1.1891    0.0373 H   0  0  0  0  0  0  0  0  0  0  0  0
    5.9771    2.3477    1.6434 H   0  0  0  0  0  0  0  0  0  0  0  0
    6.1228    0.6203    1.9342 H   0  0  0  0  0  0  0  0  0  0  0  0
    3.9151   -0.2609    3.5236 H   0  0  0  0  0  0  0  0  0  0  0  0
  1  2  1  0  0  0  0
  1 14  1  0  0  0  0
  1  6  1  0  0  0  0
  2  3  1  0  0  0  0
  3  7  1  0  0  0  0
  3 18  1  0  0  0  0
  3  4  1  0  0  0  0
  4 20  1  0  0  0  0
  5  4  1  0  0  0  0
  5 21  1  0  0  0  0
  5 22  1  0  0  0  0
  6 24  1  0  0  0  0
  6  5  1  0  0  0  0
  8 26  1  0  0  0  0
  8  7  1  0  0  0  0
  8  9  1  0  0  0  0
 10 12  2  1  0  0  0
 10 13  1  0  0  0  0
 10 11  1  0  0  0  0
 15  1  1  0  0  0  0
 16  2  1  0  0  0  0
 17  2  1  0  0  0  0
 19  4  1  0  0  0  0
 23  6  1  0  0  0  0
 25  7  1  0  0  0  0
 27  8  1  0  0  0  0
 28  9  1  0  0  0  0
 29  9  1  0  0  0  0
 30 13  1  0  0  0  0
M  RAD  2   9   2  11   2
M  END
$$$$
