
     RDKit          3D

 30 30  0  0  0  0  0  0  0  0999 V2000
   -0.1054    0.0912    0.1238 C   0  0  0  0  0  0  0  0  0  0  0  0
    1.4233    0.1536    0.0372 C   0  0  0  0  0  0  0  0  0  0  0  0
    2.0881   -0.0083    1.4183 C   0  0  0  0  0  0  0  0  0  0  0  0
    1.6018   -1.2950    2.0950 C   0  0  0  0  0  0  0  0  0  0  0  0
    0.0745   -1.3649    2.1815 C   0  0  0  0  0  0  0  0  0  0  0  0
   -0.5758   -1.1982    0.8040 C   0  0  0  0  0  0  0  0  0  0  0  0
    3.5455    0.0029    1.3978 N   0  0  0  0  0  0  0  0  0  0  0  0
    4.1687    1.2491    1.0071 C   0  0  0  0  0  0  0  0  0  0  0  0
    5.6897    1.1430    1.0664 C   0  0  0  0  0  0  0  0  0  0  0  0
    6.3176    0.1657   -0.3125 S   0  0  0  0  0  0  0  0  0  0  0  0
    5.9099   -1.2350   -0.1556 O   0  0  0  0  0  0  0  0  0  0  0  0
    6.0745    0.8891   -1.5489 O   0  0  0  0  0  0  0  0  0  0  0  0
    7.9328    0.2207   -0.0169 O   0  0  0  0  0  0  0  0  0  0  0  0
   -0.4705    0.9596    0.7027 H   0  0  0  0  0  0  0  0  0  0  0  0
   -0.5477    0.1818   -0.8819 H   0  0  0  0  0  0  0  0  0  0  0  0
    1.7381    1.1004   -0.4310 H   0  0  0  0  0  0  0  0  0  0  0  0
    1.7925   -0.6580   -0.6173 H   0  0  0  0  0  0  0  0  0  0  0  0
    1.7690    0.8454    2.0484 H   0  0  0  0  0  0  0  0  0  0  0  0
    1.9758   -2.1563    1.5098 H   0  0  0  0  0  0  0  0  0  0  0  0
    2.0641   -1.3694    3.0917 H   0  0  0  0  0  0  0  0  0  0  0  0
   -0.2357   -2.3173    2.6421 H   0  0  0  0  0  0  0  0  0  0  0  0
   -0.2872   -0.5634    2.8515 H   0  0  0  0  0  0  0  0  0  0  0  0
   -0.3055   -2.0615    0.1687 H   0  0  0  0  0  0  0  0  0  0  0  0
   -1.6747   -1.2075    0.8936 H   0  0  0  0  0  0  0  0  0  0  0  0
    3.8994   -0.7680    0.8301 H   0  0  0  0  0  0  0  0  0  0  0  0
    3.8656    2.0367    1.7193 H   0  0  0  0  0  0  0  0  0  0  0  0
    3.8915    1.6214   -0.0018 H   0  0  0  0  0  0  0  0  0  0  0  0
    6.0203    0.6378    1.9847 H   0  0  0  0  0  0  0  0  0  0  0  0
    6.1815    2.1202    0.9658 H   0  0  0  0  0  0  0  0  0  0  0  0
    8.1987   -0.6743    0.2562 H   0  0  0  0  0  0  0  0  0  0  0  0
  1  2  1  0
  1  6  1  0
  1 14  1  0
  1 15  1  0
  2  3  1  0
  2 16  1  0
  2 17  1  0
  3  4  1  0
  3  7  1  0
  3 18  1  0
  4  5  1  0
  4 19  1  0
  4 20  1  0
  5  6  1  0
  5 21  1  0
  5 22  1  0
  6 23  1  0
  6 24  1  0
  7  8  1  0
  7 25  1  0
  8  9  1  0
  8 26  1  0
  8 27  1  0
  9 10  1  0
  9 28  1  0
  9 29  1  0
 10 11  2  0
 10 12  2  0
 10 13  1  0
 13 30  1  0
M  END

