30
rmsd8.gzmat
C          0.00000        0.00000        0.00000
C          1.53190        0.00000        0.00000
C          2.04540        0.00000        1.45660
C          1.53940       -1.26430        2.18420
C          0.00710       -1.28420        2.17810
C         -0.53880       -1.22830        0.74540
N          3.52480        0.01400        1.55000
C          4.12800        1.32840        1.21820
C          4.11720        2.23550        2.45610
S          5.13290        1.58260        3.78370
O          6.36740        1.10200        3.21740
O          5.13530        2.53630        4.86090
O          4.23760        0.29010        4.26230
H         -0.37960        0.92610        0.47130
H         -0.37880        0.01110       -1.03900
H          1.91230        0.87880       -0.54870
H          1.90950       -0.88680       -0.54090
H          1.65350        0.90640        1.98540
H          1.93700       -2.17480        1.70140
H          1.91820       -1.27960        3.22500
H         -0.36080       -2.19600        2.68620
H         -0.38350       -0.43240        2.76660
H         -0.26230       -2.15070        0.20110
H         -1.64430       -1.20310        0.76240
H          3.93560       -0.73010        0.98680
H          3.60140        1.83940        0.38170
H          5.17650        1.16270        0.86650
H          3.08200        2.38570        2.82040
H          4.47350        3.24740        2.18180
H          3.93760       -0.28010        3.51430
