30

C          0.00380       -0.16750       -0.09550
C          1.53150       -0.06740       -0.02190
C          2.02610        0.07120        1.42820
C          1.49020       -1.06940        2.29930
C         -0.03560       -1.17650        2.22450
C         -0.52220       -1.31210        0.77740
N          3.47170        0.14400        1.56960
C          4.16080        1.34760        1.16670
C          5.13570        1.78240        2.26020
S          4.24500        1.83450        3.83990
O          2.95540        2.48010        3.62480
O          4.35850        0.58960        4.59770
O          5.22860        2.91520        4.61650
H         -0.43600        0.78470        0.25350
H         -0.32270       -0.29610       -1.14080
H          1.89200        0.78390       -0.62470
H          1.98450       -0.97820       -0.45810
H          1.63030        1.01420        1.84480
H          1.94110       -2.02000        1.95420
H          1.83680       -0.90990        3.33160
H         -0.38690       -2.02770        2.83060
H         -0.48160       -0.27030        2.67300
H         -0.16780       -2.27430        0.36360
H         -1.62380       -1.34470        0.74350
H          3.93810       -0.71030        1.27710
H          3.42310        2.15220        1.02900
H          4.71900        1.26520        0.21280
H          5.54720        2.79030        2.10510
H          5.95640        1.06800        2.41790
H          5.43130        2.51590        5.47990
