
     RDKit          3D

 30 30  0  0  0  0  0  0  0  0999 V2000
    0.0348   -0.1390   -0.0990 C   0  0  0  0  0  0  0  0  0  0  0  0
    1.5588   -0.0422    0.0282 C   0  0  0  0  0  0  0  0  0  0  0  0
    2.0136   -0.0153    1.4988 C   0  0  0  0  0  0  0  0  0  0  0  0
    1.4569   -1.2279    2.2526 C   0  0  0  0  0  0  0  0  0  0  0  0
   -0.0659   -1.3366    2.1264 C   0  0  0  0  0  0  0  0  0  0  0  0
   -0.5119   -1.3522    0.6603 C   0  0  0  0  0  0  0  0  0  0  0  0
    3.4620    0.0591    1.6781 N   0  0  0  0  0  0  0  0  0  0  0  0
    4.0884    1.3290    1.3635 C   0  0  0  0  0  0  0  0  0  0  0  0
    4.0410    2.2558    2.5835 C   0  0  0  0  0  0  0  0  0  0  0  0
    4.7973    3.8398    2.2029 S   0  0  0  0  0  0  0  0  0  0  0  0
    6.2378    3.6601    2.0170 O   0  0  0  0  0  0  0  0  0  0  0  0
    3.9786    4.5247    1.2153 O   0  0  0  0  0  0  0  0  0  0  0  0
    4.5961    4.6262    3.6352 O   0  0  0  0  0  0  0  0  0  0  0  0
   -0.4208    0.7816    0.3097 H   0  0  0  0  0  0  0  0  0  0  0  0
   -0.2571   -0.1832   -1.1610 H   0  0  0  0  0  0  0  0  0  0  0  0
    1.9321    0.8487   -0.5028 H   0  0  0  0  0  0  0  0  0  0  0  0
    2.0253   -0.9198   -0.4583 H   0  0  0  0  0  0  0  0  0  0  0  0
    1.5837    0.8903    1.9668 H   0  0  0  0  0  0  0  0  0  0  0  0
    1.9265   -2.1405    1.8388 H   0  0  0  0  0  0  0  0  0  0  0  0
    1.7688   -1.1671    3.3070 H   0  0  0  0  0  0  0  0  0  0  0  0
   -0.4266   -2.2375    2.6492 H   0  0  0  0  0  0  0  0  0  0  0  0
   -0.5323   -0.4739    2.6367 H   0  0  0  0  0  0  0  0  0  0  0  0
   -0.1426   -2.2764    0.1789 H   0  0  0  0  0  0  0  0  0  0  0  0
   -1.6119   -1.3837    0.5940 H   0  0  0  0  0  0  0  0  0  0  0  0
    3.9163   -0.6994    1.1744 H   0  0  0  0  0  0  0  0  0  0  0  0
    3.6300    1.8576    0.5051 H   0  0  0  0  0  0  0  0  0  0  0  0
    5.1440    1.1599    1.1035 H   0  0  0  0  0  0  0  0  0  0  0  0
    4.5919    1.8286    3.4323 H   0  0  0  0  0  0  0  0  0  0  0  0
    3.0116    2.4854    2.8927 H   0  0  0  0  0  0  0  0  0  0  0  0
    5.4826    4.7294    4.0216 H   0  0  0  0  0  0  0  0  0  0  0  0
  1  2  1  0
  1  6  1  0
  1 14  1  0
  1 15  1  0
  2  3  1  0
  2 16  1  0
  2 17  1  0
  3  4  1  0
  3  7  1  0
  3 18  1  0
  4  5  1  0
  4 19  1  0
  4 20  1  0
  5  6  1  0
  5 21  1  0
  5 22  1  0
  6 23  1  0
  6 24  1  0
  7  8  1  0
  7 25  1  0
  8  9  1  0
  8 26  1  0
  8 27  1  0
  9 10  1  0
  9 28  1  0
  9 29  1  0
 10 11  2  0
 10 12  2  0
 10 13  1  0
 13 30  1  0
M  END

