
     RDKit          3D

 30 30  0  0  0  0  0  0  0  0999 V2000
   -0.1198    0.0605    0.1067 C   0  0  0  0  0  0  0  0  0  0  0  0
    1.4088    0.1392    0.0331 C   0  0  0  0  0  0  0  0  0  0  0  0
    2.0643    0.0038    1.4220 C   0  0  0  0  0  0  0  0  0  0  0  0
    1.5851   -1.2783    2.1123 C   0  0  0  0  0  0  0  0  0  0  0  0
    0.0580   -1.3634    2.1866 C   0  0  0  0  0  0  0  0  0  0  0  0
   -0.5819   -1.2241    0.8013 C   0  0  0  0  0  0  0  0  0  0  0  0
    3.5212    0.0279    1.4116 N   0  0  0  0  0  0  0  0  0  0  0  0
    4.1357    1.2693    0.9959 C   0  0  0  0  0  0  0  0  0  0  0  0
    5.6534    1.1987    1.1113 C   0  0  0  0  0  0  0  0  0  0  0  0
    6.4281    0.2138   -0.1830 S   0  0  0  0  0  0  0  0  0  0  0  0
    7.8639    0.2024    0.0289 O   0  0  0  0  0  0  0  0  0  0  0  0
    5.6779   -1.0299   -0.3974 O   0  0  0  0  0  0  0  0  0  0  0  0
    6.1118    1.1671   -1.4908 O   0  0  0  0  0  0  0  0  0  0  0  0
   -0.4994    0.9331    0.6698 H   0  0  0  0  0  0  0  0  0  0  0  0
   -0.5547    0.1320   -0.9040 H   0  0  0  0  0  0  0  0  0  0  0  0
    1.7159    1.0843   -0.4443 H   0  0  0  0  0  0  0  0  0  0  0  0
    1.7932   -0.6776   -0.6065 H   0  0  0  0  0  0  0  0  0  0  0  0
    1.7308    0.8630    2.0368 H   0  0  0  0  0  0  0  0  0  0  0  0
    1.9735   -2.1438    1.5430 H   0  0  0  0  0  0  0  0  0  0  0  0
    2.0395   -1.3336    3.1137 H   0  0  0  0  0  0  0  0  0  0  0  0
   -0.2461   -2.3121    2.6584 H   0  0  0  0  0  0  0  0  0  0  0  0
   -0.3183   -0.5561    2.8416 H   0  0  0  0  0  0  0  0  0  0  0  0
   -0.2965   -2.0934    0.1810 H   0  0  0  0  0  0  0  0  0  0  0  0
   -1.6814   -1.2440    0.8811 H   0  0  0  0  0  0  0  0  0  0  0  0
    3.8852   -0.7426    0.8498 H   0  0  0  0  0  0  0  0  0  0  0  0
    3.7932    2.0762    1.6673 H   0  0  0  0  0  0  0  0  0  0  0  0
    3.8820    1.6033   -0.0333 H   0  0  0  0  0  0  0  0  0  0  0  0
    5.9597    0.7090    2.0476 H   0  0  0  0  0  0  0  0  0  0  0  0
    6.1389    2.1815    1.0349 H   0  0  0  0  0  0  0  0  0  0  0  0
    5.5981    0.6243   -2.1132 H   0  0  0  0  0  0  0  0  0  0  0  0
  1  2  1  0
  1  6  1  0
  1 14  1  0
  1 15  1  0
  2  3  1  0
  2 16  1  0
  2 17  1  0
  3  4  1  0
  3  7  1  0
  3 18  1  0
  4  5  1  0
  4 19  1  0
  4 20  1  0
  5  6  1  0
  5 21  1  0
  5 22  1  0
  6 23  1  0
  6 24  1  0
  7  8  1  0
  7 25  1  0
  8  9  1  0
  8 26  1  0
  8 27  1  0
  9 10  1  0
  9 28  1  0
  9 29  1  0
 10 11  2  0
 10 12  2  0
 10 13  1  0
 13 30  1  0
M  END

