rmsd35.gzmat
 OpenBabel08211713423D

 30 30  0  0  0  0  0  0  0  0999 V2000
    0.0000    0.0000    0.0000 C   0  0  0  0  0  0  0  0  0  0  0  0
    1.5327    0.0000    0.0000 C   0  0  0  0  0  0  0  0  0  0  0  0
    2.0571    0.0000    1.4551 C   0  0  0  0  0  0  0  0  0  0  0  0
    1.5229   -1.2351    2.2119 C   0  0  0  0  0  0  0  0  0  0  0  0
   -0.0088   -1.2235    2.2050 C   0  0  0  0  0  0  0  0  0  0  0  0
   -0.5424   -1.2140    0.7669 C   0  0  0  0  0  0  0  0  0  0  0  0
    3.5327   -0.0452    1.5317 N   0  0  0  0  0  0  0  0  0  0  0  0
    4.2068    1.2229    1.1958 C   0  0  0  0  0  0  0  0  0  0  0  0
    5.1420    1.5672    2.3722 C   0  0  0  0  0  0  0  0  0  0  0  0
    4.2406    1.8282    3.8783 S   0  0  0  0  0  0  0  0  0  0  0  0
    2.9002    2.2979    3.6414 O   0  0  0  0  0  0  0  0  0  0  0  0
    4.5021    0.8297    4.8805 O   0  0  0  0  0  0  0  0  0  0  0  0
    5.1185    3.1624    4.3697 O   0  0  0  0  0  0  0  0  0  0  0  0
   -0.3770    0.9337    0.4599 H   0  0  0  0  0  0  0  0  0  0  0  0
   -0.3804   -0.0045   -1.0378 H   0  0  0  0  0  0  0  0  0  0  0  0
    1.9135    0.8824   -0.5418 H   0  0  0  0  0  0  0  0  0  0  0  0
    1.9103   -0.8847   -0.5417 H   0  0  0  0  0  0  0  0  0  0  0  0
    1.7035    0.9293    1.9813 H   0  0  0  0  0  0  0  0  0  0  0  0
    1.9066   -2.1651    1.7591 H   0  0  0  0  0  0  0  0  0  0  0  0
    1.9075   -1.2215    3.2513 H   0  0  0  0  0  0  0  0  0  0  0  0
   -0.3972   -2.1016    2.7520 H   0  0  0  0  0  0  0  0  0  0  0  0
   -0.3802   -0.3362    2.7534 H   0  0  0  0  0  0  0  0  0  0  0  0
   -0.2510   -2.1474    0.2511 H   0  0  0  0  0  0  0  0  0  0  0  0
   -1.6475   -1.1970    0.7700 H   0  0  0  0  0  0  0  0  0  0  0  0
    3.9155   -0.8304    1.0162 H   0  0  0  0  0  0  0  0  0  0  0  0
    3.4764    2.0473    1.0230 H   0  0  0  0  0  0  0  0  0  0  0  0
    4.8047    1.1425    0.2627 H   0  0  0  0  0  0  0  0  0  0  0  0
    5.7467    2.4645    2.1273 H   0  0  0  0  0  0  0  0  0  0  0  0
    5.8751    0.7449    2.5151 H   0  0  0  0  0  0  0  0  0  0  0  0
    4.9995    3.4677    5.2710 H   0  0  0  0  0  0  0  0  0  0  0  0
  1  2  1  0  0  0  0
  1 14  1  0  0  0  0
  1  6  1  0  0  0  0
  2  3  1  0  0  0  0
  3  7  1  0  0  0  0
  3 18  1  0  0  0  0
  3  4  1  0  0  0  0
  4 20  1  0  0  0  0
  5  4  1  0  0  0  0
  5 21  1  0  0  0  0
  5 22  1  0  0  0  0
  6 24  1  0  0  0  0
  6  5  1  0  0  0  0
  8  7  1  0  0  0  0
  8  9  1  0  0  0  0
  9 29  1  0  0  0  0
  9 10  1  0  0  0  0
 10 13  1  0  0  0  0
 10 12  1  0  0  0  0
 11 10  1  0  0  0  0
 13 30  1  0  0  0  0
 15  1  1  0  0  0  0
 16  2  1  0  0  0  0
 17  2  1  0  0  0  0
 19  4  1  0  0  0  0
 23  6  1  0  0  0  0
 25  7  1  0  0  0  0
 26  8  1  0  0  0  0
 27  8  1  0  0  0  0
 28  9  1  0  0  0  0
M  RAD  2  11   2  12   2
M  END
$$$$
