38
rmsd129.gzmat
N          0.00000        0.00000        0.00000
H          1.00920        0.00000        0.00000
H         -0.44420        0.00000       -0.91310
C         -0.74860        0.00860        1.12070
N         -0.16290        0.04590        2.33530
C         -2.21850       -0.02270        1.02380
C         -2.83520       -1.17800        0.47610
C         -4.20170       -1.24560        0.40740
C         -5.00630       -0.17010        0.87870
C         -6.42510       -0.24390        0.85450
C         -7.17050        0.80340        1.33380
C         -6.55350        1.97170        1.84470
C         -5.18580        2.06390        1.87630
C         -4.38340        0.98800        1.40390
C         -2.96790        1.04290        1.47030
C         -8.66330        0.65140        1.40010
O         -9.16290       -0.27780        1.99010
N         -9.38290        1.64060        0.75550
C        -10.80470        1.68570        0.70410
C        -11.61050        1.01560        1.62970
C        -12.99520        1.13930        1.53920
C        -13.57470        1.92410        0.54530
C        -12.76500        2.58520       -0.37810
C        -11.38090        2.47180       -0.30810
H          0.83590        0.06820        2.47640
H         -0.72850        0.01640        3.17820
H         -2.22040       -2.00870        0.12840
H         -4.69740       -2.13130       -0.00480
H         -6.91000       -1.14940        0.47330
H         -7.17890        2.78480        2.22730
H         -4.69600        2.95520        2.27070
H         -2.49780        1.94160        1.87680
H         -8.89270        2.34650        0.21650
H        -11.17580        0.39890        2.41760
H        -13.62780        0.61470        2.25710
H        -14.65790        2.02170        0.49050
H        -13.21810        3.19370       -1.16170
H        -10.75880        2.98450       -1.03610
