rmsd146.gzmat
 OpenBabel08211713363D

 38 40  0  0  0  0  0  0  0  0999 V2000
    0.0000    0.0000    0.0000 N   0  0  0  0  0  0  0  0  0  0  0  0
    1.0087    0.0000    0.0000 H   0  0  0  0  0  0  0  0  0  0  0  0
   -0.4437    0.0000   -0.9133 H   0  0  0  0  0  0  0  0  0  0  0  0
   -0.7501   -0.0096    1.1201 C   0  0  0  0  0  0  0  0  0  0  0  0
   -0.1675   -0.0461    2.3358 N   0  0  0  0  0  0  0  0  0  0  0  0
   -2.2191    0.0234    1.0160 C   0  0  0  0  0  0  0  0  0  0  0  0
   -2.8251    1.1698    0.4379 C   0  0  0  0  0  0  0  0  0  0  0  0
   -4.1897    1.2375    0.3445 C   0  0  0  0  0  0  0  0  0  0  0  0
   -5.0025    0.1681    0.8150 C   0  0  0  0  0  0  0  0  0  0  0  0
   -6.4194    0.2346    0.7433 C   0  0  0  0  0  0  0  0  0  0  0  0
   -7.1736   -0.8126    1.2080 C   0  0  0  0  0  0  0  0  0  0  0  0
   -6.5693   -1.9674    1.7622 C   0  0  0  0  0  0  0  0  0  0  0  0
   -5.2031   -2.0498    1.8449 C   0  0  0  0  0  0  0  0  0  0  0  0
   -4.3912   -0.9788    1.3772 C   0  0  0  0  0  0  0  0  0  0  0  0
   -2.9773   -1.0306    1.4746 C   0  0  0  0  0  0  0  0  0  0  0  0
   -8.6693   -0.6744    1.1986 C   0  0  0  0  0  0  0  0  0  0  0  0
   -9.2071    0.2289    1.7940 O   0  0  0  0  0  0  0  0  0  0  0  0
   -9.3356   -1.6375    0.4640 N   0  0  0  0  0  0  0  0  0  0  0  0
  -10.7465   -1.6925    0.2924 C   0  0  0  0  0  0  0  0  0  0  0  0
  -11.2295   -2.6238   -0.6437 C   0  0  0  0  0  0  0  0  0  0  0  0
  -12.5993   -2.7384   -0.8493 C   0  0  0  0  0  0  0  0  0  0  0  0
  -13.4896   -1.9375   -0.1348 C   0  0  0  0  0  0  0  0  0  0  0  0
  -13.0032   -1.0176    0.7903 C   0  0  0  0  0  0  0  0  0  0  0  0
  -11.6339   -0.8877    1.0130 C   0  0  0  0  0  0  0  0  0  0  0  0
    0.8309   -0.0688    2.4788 H   0  0  0  0  0  0  0  0  0  0  0  0
   -0.7348   -0.0078    3.1770 H   0  0  0  0  0  0  0  0  0  0  0  0
   -2.2031    1.9934    0.0869 H   0  0  0  0  0  0  0  0  0  0  0  0
   -4.6775    2.1171   -0.0895 H   0  0  0  0  0  0  0  0  0  0  0  0
   -6.8963    1.1314    0.3330 H   0  0  0  0  0  0  0  0  0  0  0  0
   -7.2040   -2.7774    2.1357 H   0  0  0  0  0  0  0  0  0  0  0  0
   -4.7225   -2.9308    2.2730 H   0  0  0  0  0  0  0  0  0  0  0  0
   -2.5157   -1.9197    1.9101 H   0  0  0  0  0  0  0  0  0  0  0  0
   -8.7979   -2.3379   -0.0378 H   0  0  0  0  0  0  0  0  0  0  0  0
  -10.5453   -3.2514   -1.2073 H   0  0  0  0  0  0  0  0  0  0  0  0
  -12.9782   -3.4596   -1.5744 H   0  0  0  0  0  0  0  0  0  0  0  0
  -14.5618   -2.0331   -0.2990 H   0  0  0  0  0  0  0  0  0  0  0  0
  -13.6979   -0.3902    1.3516 H   0  0  0  0  0  0  0  0  0  0  0  0
  -11.2784   -0.1610    1.7459 H   0  0  0  0  0  0  0  0  0  0  0  0
  1  2  1  0  0  0  0
  1  4  2  0  0  0  0
  3  1  1  0  0  0  0
  4  5  1  0  0  0  0
  5 25  1  0  0  0  0
  5 26  1  0  0  0  0
  6  4  1  0  0  0  0
  6 15  2  0  0  0  0
  7  6  1  0  0  0  0
  8  7  2  0  0  0  0
  8  9  1  0  0  0  0
  9 14  1  0  0  0  0
 10  9  2  0  0  0  0
 10 11  1  0  0  0  0
 11 12  2  0  0  0  0
 12 13  1  0  0  0  0
 12 30  1  0  0  0  0
 13 31  1  0  0  0  0
 14 15  1  0  0  0  0
 14 13  2  0  0  0  0
 15 32  1  0  0  0  0
 16 11  1  0  0  0  0
 16 17  2  0  0  0  0
 18 16  1  0  0  0  0
 19 18  1  0  0  0  0
 19 24  2  0  0  0  0
 20 19  1  0  0  0  0
 21 20  2  0  0  0  0
 21 22  1  0  0  0  0
 22 23  2  0  0  0  0
 23 24  1  0  0  0  0
 23 37  1  0  0  0  0
 24 38  1  0  0  0  0
 27  7  1  0  0  0  0
 28  8  1  0  0  0  0
 29 10  1  0  0  0  0
 33 18  1  0  0  0  0
 34 20  1  0  0  0  0
 35 21  1  0  0  0  0
 36 22  1  0  0  0  0
M  END
$$$$
