38
rmsd148.gzmat
N          0.00000        0.00000        0.00000
H          1.00900        0.00000        0.00000
H         -0.44260        0.00000       -0.91400
C         -0.75010       -0.04240        1.11920
N         -0.16880       -0.08970        2.33430
C         -2.22040       -0.03520        1.01640
C         -2.92570       -1.21040        1.38560
C         -4.29180       -1.23530        1.28940
C         -5.00810       -0.09320        0.83250
C         -6.42350       -0.11080        0.71140
C         -7.08260        1.00450        0.26050
C         -6.38000        2.18370       -0.08880
C         -5.01330        2.22010        0.01560
C         -4.29840        1.07880        0.47570
C         -2.88300        1.08620        0.57090
C         -8.56840        0.92400        0.05230
O         -9.04180        0.10800       -0.70260
N         -9.30710        1.83540        0.78430
C        -10.72760        1.91670        0.77380
C        -11.32030        2.69680        1.78230
C        -12.70400        2.82320        1.82370
C        -13.49970        2.18580        0.87190
C        -12.90440        1.42170       -0.12840
C        -11.51910        1.28140       -0.18780
H          0.82920       -0.11560        2.47950
H         -0.74020       -0.09850        3.17380
H         -2.37690       -2.08790        1.72910
H         -4.85440       -2.13650        1.55720
H         -6.97270       -1.02510        0.96160
H         -6.93800        3.05030       -0.45820
H         -4.45710        3.11740       -0.25870
H         -2.34460        1.99400        0.28930
H         -8.82930        2.45650        1.43030
H        -10.71040        3.19780        2.52860
H        -13.16920        3.42360        2.60630
H        -14.58330        2.28700        0.91110
H        -13.52520        0.92680       -0.87730
H        -11.07570        0.67860       -0.98240
