rmsd103.gzmat
 OpenBabel08211713363D

 38 40  0  0  0  0  0  0  0  0999 V2000
    0.0000    0.0000    0.0000 N   0  0  0  0  0  0  0  0  0  0  0  0
    1.0088    0.0000    0.0000 H   0  0  0  0  0  0  0  0  0  0  0  0
   -0.4427    0.0000   -0.9138 H   0  0  0  0  0  0  0  0  0  0  0  0
   -0.7508   -0.0403    1.1195 C   0  0  0  0  0  0  0  0  0  0  0  0
   -0.1686   -0.0943    2.3340 N   0  0  0  0  0  0  0  0  0  0  0  0
   -2.2202   -0.0339    1.0115 C   0  0  0  0  0  0  0  0  0  0  0  0
   -2.9261   -1.1923    1.4305 C   0  0  0  0  0  0  0  0  0  0  0  0
   -4.2907   -1.2285    1.3196 C   0  0  0  0  0  0  0  0  0  0  0  0
   -5.0051   -0.1132    0.7981 C   0  0  0  0  0  0  0  0  0  0  0  0
   -6.4197   -0.1406    0.6698 C   0  0  0  0  0  0  0  0  0  0  0  0
   -7.0782    0.9499    0.1618 C   0  0  0  0  0  0  0  0  0  0  0  0
   -6.3751    2.1081   -0.2510 C   0  0  0  0  0  0  0  0  0  0  0  0
   -5.0095    2.1548   -0.1373 C   0  0  0  0  0  0  0  0  0  0  0  0
   -4.2956    1.0429    0.3911 C   0  0  0  0  0  0  0  0  0  0  0  0
   -2.8820    1.0629    0.5065 C   0  0  0  0  0  0  0  0  0  0  0  0
   -8.5669    0.8706   -0.0240 C   0  0  0  0  0  0  0  0  0  0  0  0
   -9.0619    0.0198   -0.7245 O   0  0  0  0  0  0  0  0  0  0  0  0
   -9.2828    1.8313    0.6672 N   0  0  0  0  0  0  0  0  0  0  0  0
  -10.7019    1.9302    0.6725 C   0  0  0  0  0  0  0  0  0  0  0  0
  -11.2737    2.7468    1.6637 C   0  0  0  0  0  0  0  0  0  0  0  0
  -12.6553    2.8908    1.7153 C   0  0  0  0  0  0  0  0  0  0  0  0
  -13.4685    2.2332    0.7924 C   0  0  0  0  0  0  0  0  0  0  0  0
  -12.8936    1.4304   -0.1895 C   0  0  0  0  0  0  0  0  0  0  0  0
  -11.5106    1.2760   -0.2616 C   0  0  0  0  0  0  0  0  0  0  0  0
    0.8296   -0.1229    2.4769 H   0  0  0  0  0  0  0  0  0  0  0  0
   -0.7374   -0.0965    3.1751 H   0  0  0  0  0  0  0  0  0  0  0  0
   -2.3778   -2.0486    1.8241 H   0  0  0  0  0  0  0  0  0  0  0  0
   -4.8530   -2.1175    1.6261 H   0  0  0  0  0  0  0  0  0  0  0  0
   -6.9687   -1.0416    0.9650 H   0  0  0  0  0  0  0  0  0  0  0  0
   -6.9321    2.9511   -0.6732 H   0  0  0  0  0  0  0  0  0  0  0  0
   -4.4554    3.0396   -0.4545 H   0  0  0  0  0  0  0  0  0  0  0  0
   -2.3446    1.9620    0.1950 H   0  0  0  0  0  0  0  0  0  0  0  0
   -8.7887    2.4746    1.2779 H   0  0  0  0  0  0  0  0  0  0  0  0
  -10.6495    3.2605    2.3890 H   0  0  0  0  0  0  0  0  0  0  0  0
  -13.1052    3.5204    2.4837 H   0  0  0  0  0  0  0  0  0  0  0  0
  -14.5502    2.3495    0.8399 H   0  0  0  0  0  0  0  0  0  0  0  0
  -13.5281    0.9155   -0.9132 H   0  0  0  0  0  0  0  0  0  0  0  0
  -11.0807    0.6479   -1.0437 H   0  0  0  0  0  0  0  0  0  0  0  0
  1  2  1  0  0  0  0
  1  4  2  0  0  0  0
  3  1  1  0  0  0  0
  4  5  1  0  0  0  0
  5 25  1  0  0  0  0
  5 26  1  0  0  0  0
  6  4  1  0  0  0  0
  6  7  2  0  0  0  0
  7 27  1  0  0  0  0
  8  7  1  0  0  0  0
  8 28  1  0  0  0  0
  9  8  2  0  0  0  0
 10  9  1  0  0  0  0
 10 29  1  0  0  0  0
 11 10  2  0  0  0  0
 12 13  2  0  0  0  0
 12 11  1  0  0  0  0
 13 14  1  0  0  0  0
 14 15  2  0  0  0  0
 14  9  1  0  0  0  0
 15  6  1  0  0  0  0
 16 11  1  0  0  0  0
 16 18  1  0  0  0  0
 17 16  2  0  0  0  0
 18 19  1  0  0  0  0
 18 33  1  0  0  0  0
 19 20  2  0  0  0  0
 20 21  1  0  0  0  0
 20 34  1  0  0  0  0
 21 35  1  0  0  0  0
 22 36  1  0  0  0  0
 22 21  2  0  0  0  0
 23 22  1  0  0  0  0
 24 23  2  0  0  0  0
 24 19  1  0  0  0  0
 30 12  1  0  0  0  0
 31 13  1  0  0  0  0
 32 15  1  0  0  0  0
 37 23  1  0  0  0  0
 38 24  1  0  0  0  0
M  END
$$$$
