38
rmsd131.gzmat
N          0.00000        0.00000        0.00000
H          1.00900        0.00000        0.00000
H         -0.44360        0.00000       -0.91390
C         -0.74950       -0.01640        1.11990
N         -0.16500       -0.04900        2.33470
C         -2.21960       -0.00880        1.01410
C         -2.85900        1.15160        0.50540
C         -4.22360        1.17180        0.38370
C         -5.00260        0.03890        0.75200
C         -6.41590        0.03470        0.60350
C         -7.13420       -1.08120        0.95140
C         -6.49430       -2.23950        1.45760
C         -5.13260       -2.25390        1.61550
C         -4.35750       -1.11370        1.26210
C         -2.94560       -1.11570        1.39350
C         -8.61640       -1.08860        0.70590
O         -9.06450       -0.82830       -0.38590
N         -9.38320       -1.41600        1.80950
C        -10.80250       -1.51070        1.80960
C        -11.55860       -1.56720        0.63510
C        -12.94350       -1.69350        0.72410
C        -13.57280       -1.76500        1.96420
C        -12.81260       -1.70760        3.13210
C        -11.42990       -1.58030        3.06580
H          0.83390       -0.07340        2.47650
H         -0.73080       -0.02180        3.17670
H         -2.26380        2.02120        0.22530
H         -4.73700        2.05860       -0.00350
H         -6.91690        0.91870        0.19320
H         -7.09470       -3.12240        1.70120
H         -4.62600       -3.13870        2.00320
H         -2.45860       -2.01290        1.78300
H         -8.92830       -1.54900        2.70760
H        -11.08700       -1.51470       -0.34750
H        -13.53590       -1.73800       -0.19140
H        -14.65560       -1.86540        2.02320
H        -13.30430       -1.76220        4.10400
H        -10.84800       -1.53240        3.98150
