31
rmsd1.gzmat
C          0.00000        0.00000        0.00000
C          1.39440        0.00000        0.00000
C          2.08000        0.00000        1.21120
C          1.34800        0.00790        2.40190
C         -0.04920        0.03880        2.40610
C         -0.72570        0.03480        1.19000
N          2.05910       -0.01780        3.67340
O          1.40380        0.04080        4.70100
O          3.27600       -0.10570        3.65160
C         -0.72710       -0.00570       -1.30690
O         -0.87990        1.01010       -1.95200
N         -1.32430       -1.20320       -1.69300
C         -1.82440       -1.28220       -3.07870
C         -0.71880       -1.74770       -4.04400
C         -0.10620       -3.07240       -3.57310
C          0.36550       -2.97640       -2.11640
C         -0.78430       -2.48670       -1.21580
H          1.94400        0.00920       -0.94240
H          3.17480       -0.00410        1.23380
H         -0.60030        0.06370        3.35180
H         -1.81710        0.06060        1.16620
H         -2.21910       -0.28580       -3.38740
H         -2.68330       -1.98890       -3.09180
H         -1.13340       -1.85520       -5.06270
H          0.06400       -0.96750       -4.11600
H         -0.84510       -3.88950       -3.67660
H          0.74360       -3.34540       -4.22720
H          0.72780       -3.95890       -1.76330
H          1.22760       -2.28830       -2.04000
H         -1.61790       -3.22720       -1.21780
H         -0.45060       -2.40030       -0.16000
