rmsd4.gzmat
 OpenBabel08211713403D

 31 32  0  0  0  0  0  0  0  0999 V2000
    0.0000    0.0000    0.0000 C   0  0  0  0  0  0  0  0  0  0  0  0
    1.3941    0.0000    0.0000 C   0  0  0  0  0  0  0  0  0  0  0  0
    2.0797    0.0000    1.2112 C   0  0  0  0  0  0  0  0  0  0  0  0
    1.3480   -0.0066    2.4019 C   0  0  0  0  0  0  0  0  0  0  0  0
   -0.0493    0.0003    2.4068 C   0  0  0  0  0  0  0  0  0  0  0  0
   -0.7257    0.0086    1.1907 C   0  0  0  0  0  0  0  0  0  0  0  0
    2.0607   -0.0177    3.6728 N   0  0  0  0  0  0  0  0  0  0  0  0
    1.4156   -0.1956    4.6936 O   0  0  0  0  0  0  0  0  0  0  0  0
    3.2697    0.1457    3.6558 O   0  0  0  0  0  0  0  0  0  0  0  0
   -0.7479    0.0495   -1.2940 C   0  0  0  0  0  0  0  0  0  0  0  0
   -1.2143    1.0908   -1.7073 O   0  0  0  0  0  0  0  0  0  0  0  0
   -0.7962   -1.1123   -2.0569 N   0  0  0  0  0  0  0  0  0  0  0  0
   -0.6328   -2.4300   -1.4230 C   0  0  0  0  0  0  0  0  0  0  0  0
   -1.9809   -2.9750   -0.9144 C   0  0  0  0  0  0  0  0  0  0  0  0
   -2.9906   -3.0356   -2.0674 C   0  0  0  0  0  0  0  0  0  0  0  0
   -3.1255   -1.6657   -2.7433 C   0  0  0  0  0  0  0  0  0  0  0  0
   -1.7484   -1.1345   -3.1834 C   0  0  0  0  0  0  0  0  0  0  0  0
    1.9426    0.0066   -0.9439 H   0  0  0  0  0  0  0  0  0  0  0  0
    3.1740    0.0072    1.2332 H   0  0  0  0  0  0  0  0  0  0  0  0
   -0.6000    0.0023    3.3532 H   0  0  0  0  0  0  0  0  0  0  0  0
   -1.8163    0.0335    1.1690 H   0  0  0  0  0  0  0  0  0  0  0  0
    0.1081   -2.3751   -0.5976 H   0  0  0  0  0  0  0  0  0  0  0  0
   -0.2013   -3.1210   -2.1847 H   0  0  0  0  0  0  0  0  0  0  0  0
   -1.8400   -3.9761   -0.4686 H   0  0  0  0  0  0  0  0  0  0  0  0
   -2.3685   -2.3321   -0.1023 H   0  0  0  0  0  0  0  0  0  0  0  0
   -2.6757   -3.7950   -2.8078 H   0  0  0  0  0  0  0  0  0  0  0  0
   -3.9756   -3.3700   -1.6910 H   0  0  0  0  0  0  0  0  0  0  0  0
   -3.7974   -1.7315   -3.6181 H   0  0  0  0  0  0  0  0  0  0  0  0
   -3.5991   -0.9429   -2.0511 H   0  0  0  0  0  0  0  0  0  0  0  0
   -1.3153   -1.7750   -3.9828 H   0  0  0  0  0  0  0  0  0  0  0  0
   -1.8450   -0.1066   -3.6068 H   0  0  0  0  0  0  0  0  0  0  0  0
  1  2  2  0  0  0  0
  1  6  1  0  0  0  0
  2  3  1  0  0  0  0
  3 19  1  0  0  0  0
  3  4  2  0  0  0  0
  4  5  1  0  0  0  0
  4  7  1  0  0  0  0
  5 20  1  0  0  0  0
  6  5  2  0  0  0  0
  7  8  2  0  0  0  0
  9  7  2  0  0  0  0
 10  1  1  0  0  0  0
 11 10  2  0  0  0  0
 12 13  1  0  0  0  0
 12 10  1  0  0  0  0
 13 14  1  0  0  0  0
 13 22  1  0  0  0  0
 14 24  1  0  0  0  0
 14 25  1  0  0  0  0
 15 27  1  0  0  0  0
 15 14  1  0  0  0  0
 16 15  1  0  0  0  0
 16 29  1  0  0  0  0
 17 16  1  0  0  0  0
 17 12  1  0  0  0  0
 18  2  1  0  0  0  0
 21  6  1  0  0  0  0
 23 13  1  0  0  0  0
 26 15  1  0  0  0  0
 28 16  1  0  0  0  0
 30 17  1  0  0  0  0
 31 17  1  0  0  0  0
M  END
$$$$
