31

C         -0.09650       -0.06040        0.16570
C          1.26990       -0.37960        0.12990
C          2.04900       -0.28600        1.28150
C          1.43980        0.12210        2.46750
C          0.08740        0.45900        2.52940
C         -0.67360        0.37960        1.36600
N          2.25600        0.20760        3.69610
O          1.69730        0.56680        4.71930
O          3.43660       -0.08850        3.60930
C         -0.94680       -0.03820       -1.08040
O         -1.62750        0.94970       -1.31600
N         -0.87830       -1.11860       -1.92350
C         -0.49720       -2.47060       -1.51880
C         -1.72670       -3.38300       -1.42840
C         -2.53710       -3.36050       -2.72790
C         -2.88210       -1.92210       -3.12710
C         -1.62050       -1.05760       -3.18310
H          1.72990       -0.68920       -0.81050
H          3.11280       -0.51950        1.28090
H         -0.33830        0.78320        3.47810
H         -1.72610        0.66740        1.37170
H          0.02200       -2.43810       -0.55510
H          0.21380       -2.87360       -2.26340
H         -1.40120       -4.40760       -1.18440
H         -2.35770       -3.03640       -0.59110
H         -1.94230       -3.82870       -3.53380
H         -3.45130       -3.96630       -2.62180
H         -3.39020       -1.89740       -4.10480
H         -3.57650       -1.48190       -2.39100
H         -0.95350       -1.41930       -3.98690
H         -1.86410       -0.00670       -3.37550
