31
rmsd5.gzmat
C          0.00000        0.00000        0.00000
C          1.39460        0.00000        0.00000
C          2.08010        0.00000        1.21110
C          1.34840        0.00340        2.40180
C         -0.04880        0.03300        2.40630
C         -0.72540        0.03390        1.19030
N          2.06160       -0.02390        3.67210
O          1.41170        0.07070        4.70040
O          3.27530       -0.14710        3.64790
C         -0.74800        0.00430       -1.29500
O         -1.26970        1.01550       -1.71800
N         -0.72880       -1.16290       -2.04770
C         -0.48910       -2.46970       -1.41660
C         -1.80810       -3.13900       -0.98560
C         -2.75130       -3.26150       -2.18860
C         -2.97900       -1.89010       -2.83530
C         -1.63470       -1.23780       -3.20850
H          1.94270        0.00210       -0.94450
H          3.17480       -0.00480        1.23400
H         -0.60010        0.05630        3.35200
H         -1.81590        0.07080        1.16710
H          0.19780       -2.36550       -0.55000
H          0.04000       -3.11090       -2.16060
H         -1.59970       -4.13470       -0.55400
H         -2.28920       -2.55220       -0.18130
H         -2.33000       -3.96490       -2.93200
H         -3.71710       -3.69800       -1.87240
H         -3.61020       -1.98820       -3.73700
H         -3.53750       -1.22920       -2.14500
H         -1.12090       -1.82470       -4.00190
H         -1.79930       -0.21270       -3.61770
