rmsd6.gzmat
 OpenBabel08211713403D

 31 32  0  0  0  0  0  0  0  0999 V2000
    0.0000    0.0000    0.0000 C   0  0  0  0  0  0  0  0  0  0  0  0
    1.3950    0.0000    0.0000 C   0  0  0  0  0  0  0  0  0  0  0  0
    2.0816    0.0000    1.2101 C   0  0  0  0  0  0  0  0  0  0  0  0
    1.3504   -0.0028    2.4015 C   0  0  0  0  0  0  0  0  0  0  0  0
   -0.0470    0.0158    2.4067 C   0  0  0  0  0  0  0  0  0  0  0  0
   -0.7247    0.0226    1.1908 C   0  0  0  0  0  0  0  0  0  0  0  0
    2.0645   -0.0246    3.6715 N   0  0  0  0  0  0  0  0  0  0  0  0
    1.4109   -0.1141    4.6979 O   0  0  0  0  0  0  0  0  0  0  0  0
    3.2827    0.0408    3.6486 O   0  0  0  0  0  0  0  0  0  0  0  0
   -0.7415    0.0245   -1.2986 C   0  0  0  0  0  0  0  0  0  0  0  0
   -1.2976    1.0312   -1.6862 O   0  0  0  0  0  0  0  0  0  0  0  0
   -0.6660   -1.1086   -2.0996 N   0  0  0  0  0  0  0  0  0  0  0  0
   -0.4201   -2.4342   -1.5113 C   0  0  0  0  0  0  0  0  0  0  0  0
   -1.7410   -3.1387   -1.1481 C   0  0  0  0  0  0  0  0  0  0  0  0
   -2.6316   -3.2471   -2.3918 C   0  0  0  0  0  0  0  0  0  0  0  0
   -2.8691   -1.8604   -3.0015 C   0  0  0  0  0  0  0  0  0  0  0  0
   -1.5306   -1.1558   -3.2930 C   0  0  0  0  0  0  0  0  0  0  0  0
    1.9427    0.0035   -0.9449 H   0  0  0  0  0  0  0  0  0  0  0  0
    3.1763    0.0020    1.2309 H   0  0  0  0  0  0  0  0  0  0  0  0
   -0.5978    0.0271    3.3534 H   0  0  0  0  0  0  0  0  0  0  0  0
   -1.8156    0.0568    1.1701 H   0  0  0  0  0  0  0  0  0  0  0  0
    0.2384   -2.3506   -0.6210 H   0  0  0  0  0  0  0  0  0  0  0  0
    0.1425   -3.0384   -2.2614 H   0  0  0  0  0  0  0  0  0  0  0  0
   -1.5329   -4.1392   -0.7288 H   0  0  0  0  0  0  0  0  0  0  0  0
   -2.2661   -2.5783   -0.3527 H   0  0  0  0  0  0  0  0  0  0  0  0
   -2.1629   -3.9158   -3.1386 H   0  0  0  0  0  0  0  0  0  0  0  0
   -3.5973   -3.7178   -2.1291 H   0  0  0  0  0  0  0  0  0  0  0  0
   -3.4564   -1.9442   -3.9341 H   0  0  0  0  0  0  0  0  0  0  0  0
   -3.4762   -1.2395   -2.3147 H   0  0  0  0  0  0  0  0  0  0  0  0
   -0.9722   -1.6907   -4.0932 H   0  0  0  0  0  0  0  0  0  0  0  0
   -1.7112   -0.1176   -3.6609 H   0  0  0  0  0  0  0  0  0  0  0  0
  1  2  2  0  0  0  0
  1  6  1  0  0  0  0
  2  3  1  0  0  0  0
  3 19  1  0  0  0  0
  3  4  2  0  0  0  0
  4  5  1  0  0  0  0
  4  7  1  0  0  0  0
  5 20  1  0  0  0  0
  6  5  2  0  0  0  0
  7  8  2  0  0  0  0
  9  7  2  0  0  0  0
 10  1  1  0  0  0  0
 11 10  2  0  0  0  0
 12 13  1  0  0  0  0
 12 10  1  0  0  0  0
 13 14  1  0  0  0  0
 13 22  1  0  0  0  0
 14 24  1  0  0  0  0
 14 25  1  0  0  0  0
 15 27  1  0  0  0  0
 15 14  1  0  0  0  0
 16 15  1  0  0  0  0
 16 29  1  0  0  0  0
 17 16  1  0  0  0  0
 17 12  1  0  0  0  0
 18  2  1  0  0  0  0
 21  6  1  0  0  0  0
 23 13  1  0  0  0  0
 26 15  1  0  0  0  0
 28 16  1  0  0  0  0
 30 17  1  0  0  0  0
 31 17  1  0  0  0  0
M  END
$$$$
