31
rmsd4.gzmat
C          0.00000        0.00000        0.00000
C          1.39410        0.00000        0.00000
C          2.07970        0.00000        1.21120
C          1.34800       -0.00660        2.40190
C         -0.04930        0.00030        2.40680
C         -0.72570        0.00860        1.19070
N          2.06070       -0.01770        3.67280
O          1.41560       -0.19560        4.69360
O          3.26970        0.14570        3.65580
C         -0.74790        0.04950       -1.29400
O         -1.21430        1.09080       -1.70730
N         -0.79620       -1.11230       -2.05690
C         -0.63280       -2.43000       -1.42300
C         -1.98090       -2.97500       -0.91440
C         -2.99060       -3.03560       -2.06740
C         -3.12550       -1.66570       -2.74330
C         -1.74840       -1.13450       -3.18340
H          1.94260        0.00660       -0.94390
H          3.17400        0.00720        1.23320
H         -0.60000        0.00230        3.35320
H         -1.81630        0.03350        1.16900
H          0.10810       -2.37510       -0.59760
H         -0.20130       -3.12100       -2.18470
H         -1.84000       -3.97610       -0.46860
H         -2.36850       -2.33210       -0.10230
H         -2.67570       -3.79500       -2.80780
H         -3.97560       -3.37000       -1.69100
H         -3.79740       -1.73150       -3.61810
H         -3.59910       -0.94290       -2.05110
H         -1.31530       -1.77500       -3.98280
H         -1.84500       -0.10660       -3.60680
