31
rmsd6.gzmat
C          0.00000        0.00000        0.00000
C          1.39500        0.00000        0.00000
C          2.08160        0.00000        1.21010
C          1.35040       -0.00280        2.40150
C         -0.04700        0.01580        2.40670
C         -0.72470        0.02260        1.19080
N          2.06450       -0.02460        3.67150
O          1.41090       -0.11410        4.69790
O          3.28270        0.04080        3.64860
C         -0.74150        0.02450       -1.29860
O         -1.29760        1.03120       -1.68620
N         -0.66600       -1.10860       -2.09960
C         -0.42010       -2.43420       -1.51130
C         -1.74100       -3.13870       -1.14810
C         -2.63160       -3.24710       -2.39180
C         -2.86910       -1.86040       -3.00150
C         -1.53060       -1.15580       -3.29300
H          1.94270        0.00350       -0.94490
H          3.17630        0.00200        1.23090
H         -0.59780        0.02710        3.35340
H         -1.81560        0.05680        1.17010
H          0.23840       -2.35060       -0.62100
H          0.14250       -3.03840       -2.26140
H         -1.53290       -4.13920       -0.72880
H         -2.26610       -2.57830       -0.35270
H         -2.16290       -3.91580       -3.13860
H         -3.59730       -3.71780       -2.12910
H         -3.45640       -1.94420       -3.93410
H         -3.47620       -1.23950       -2.31470
H         -0.97220       -1.69070       -4.09320
H         -1.71120       -0.11760       -3.66090
