31
rmsd2.gzmat
C          0.00000        0.00000        0.00000
C          1.39450        0.00000        0.00000
C          2.08000        0.00000        1.21110
C          1.34740        0.00490        2.40140
C         -0.05010        0.03490        2.40560
C         -0.72650        0.03310        1.18960
N          2.05830       -0.02660        3.67260
O          1.40270        0.02860        4.70040
O          3.27530       -0.11660        3.65020
C         -0.72430       -0.00070       -1.30830
O         -0.90230        1.02390       -1.93290
N         -1.28500       -1.20500       -1.72400
C         -1.75500       -1.27310       -3.12090
C         -0.62300       -1.71810       -4.06580
C         -0.02750       -3.05120       -3.59710
C          0.43140       -2.95650       -2.13630
C         -0.73570       -2.48480       -1.24760
H          1.94450        0.00710       -0.94220
H          3.17490       -0.00510        1.23340
H         -0.60160        0.05450        3.35120
H         -1.81790        0.05820        1.16500
H         -2.15220       -0.27670       -3.42660
H         -2.60610       -1.98820       -3.16100
H         -1.00770       -1.80640       -5.09750
H          0.16140       -0.93710       -4.10170
H         -0.77570       -3.85920       -3.70630
H          0.82220       -3.33730       -4.24430
H          0.80260       -3.93540       -1.78330
H          1.28320       -2.25700       -2.04920
H         -1.56010       -3.23570       -1.26620
H         -0.41800       -2.40090       -0.18690
