
     RDKit          3D

 31 32  0  0  0  0  0  0  0  0999 V2000
    0.2772   -0.0346    0.0165 C   0  0  0  0  0  0  0  0  0  0  0  0
    1.5462    0.5293    0.2140 C   0  0  0  0  0  0  0  0  0  0  0  0
    2.0915    0.6139    1.4925 C   0  0  0  0  0  0  0  0  0  0  0  0
    1.3366    0.1555    2.5725 C   0  0  0  0  0  0  0  0  0  0  0  0
    0.0588   -0.3786    2.4108 C   0  0  0  0  0  0  0  0  0  0  0  0
   -0.4653   -0.4752    1.1232 C   0  0  0  0  0  0  0  0  0  0  0  0
    1.9052    0.2455    3.9332 N   0  0  0  0  0  0  0  0  0  0  0  0
    1.2191   -0.1584    4.8580 O   0  0  0  0  0  0  0  0  0  0  0  0
    3.0251    0.7160    4.0454 O   0  0  0  0  0  0  0  0  0  0  0  0
   -0.2990   -0.0146   -1.3778 C   0  0  0  0  0  0  0  0  0  0  0  0
   -0.2231    1.0131   -2.0357 O   0  0  0  0  0  0  0  0  0  0  0  0
   -0.9303   -1.1467   -1.8277 N   0  0  0  0  0  0  0  0  0  0  0  0
   -1.5833   -1.0979   -3.1362 C   0  0  0  0  0  0  0  0  0  0  0  0
   -0.7673   -1.8458   -4.1932 C   0  0  0  0  0  0  0  0  0  0  0  0
   -0.4817   -3.2818   -3.7423 C   0  0  0  0  0  0  0  0  0  0  0  0
    0.1652   -3.2952   -2.3541 C   0  0  0  0  0  0  0  0  0  0  0  0
   -0.6666   -2.4995   -1.3404 C   0  0  0  0  0  0  0  0  0  0  0  0
    2.0955    0.9090   -0.6488 H   0  0  0  0  0  0  0  0  0  0  0  0
    3.0803    1.0335    1.6730 H   0  0  0  0  0  0  0  0  0  0  0  0
   -0.4981   -0.7048    3.2881 H   0  0  0  0  0  0  0  0  0  0  0  0
   -1.4674   -0.8826    0.9765 H   0  0  0  0  0  0  0  0  0  0  0  0
   -1.7136   -0.0434   -3.4040 H   0  0  0  0  0  0  0  0  0  0  0  0
   -2.5807   -1.5632   -3.0344 H   0  0  0  0  0  0  0  0  0  0  0  0
   -1.3093   -1.8361   -5.1528 H   0  0  0  0  0  0  0  0  0  0  0  0
    0.1810   -1.3043   -4.3523 H   0  0  0  0  0  0  0  0  0  0  0  0
   -1.4314   -3.8469   -3.7049 H   0  0  0  0  0  0  0  0  0  0  0  0
    0.1617   -3.7996   -4.4716 H   0  0  0  0  0  0  0  0  0  0  0  0
    0.2928   -4.3273   -1.9883 H   0  0  0  0  0  0  0  0  0  0  0  0
    1.1720   -2.8451   -2.4093 H   0  0  0  0  0  0  0  0  0  0  0  0
   -1.6340   -3.0072   -1.1699 H   0  0  0  0  0  0  0  0  0  0  0  0
   -0.1472   -2.4534   -0.3774 H   0  0  0  0  0  0  0  0  0  0  0  0
  1  2  2  0
  1  6  1  0
  1 10  1  0
  2  3  1  0
  2 18  1  0
  3  4  2  0
  3 19  1  0
  4  5  1  0
  4  7  1  0
  5  6  2  0
  5 20  1  0
  6 21  1  0
  7  8  1  0
  7  9  2  0
 10 11  2  0
 10 12  1  0
 12 13  1  0
 12 17  1  0
 13 14  1  0
 13 22  1  0
 13 23  1  0
 14 15  1  0
 14 24  1  0
 14 25  1  0
 15 16  1  0
 15 26  1  0
 15 27  1  0
 16 17  1  0
 16 28  1  0
 16 29  1  0
 17 30  1  0
 17 31  1  0
M  CHG  2   7   1   8  -1
M  END

