rmsd156.gzmat
 OpenBabel08211713363D

 50 52  0  0  1  0  0  0  0  0999 V2000
    0.0000    0.0000    0.0000 C   0  0  0  0  0  0  0  0  0  0  0  0
    1.4052    0.0000    0.0000 C   0  0  0  0  0  0  0  0  0  0  0  0
    1.9616    0.0000    1.2294 O   0  0  0  0  0  0  0  0  0  0  0  0
    2.1288    0.0004   -1.1901 C   0  0  0  0  0  0  0  0  0  0  0  0
    4.0112   -0.0066   -1.1763 Br  0  0  0  0  0  0  0  0  0  0  0  0
    1.4555    0.0112   -2.4124 C   0  0  0  0  0  0  0  0  0  0  0  0
    0.0693    0.0246   -2.4503 C   0  0  0  0  0  0  0  0  0  0  0  0
   -0.6583    0.0204   -1.2506 C   0  0  0  0  0  0  0  0  0  0  0  0
   -1.9939    0.0625   -1.1482 O   0  0  0  0  0  0  0  0  0  0  0  0
   -2.7537    0.0642   -2.3572 C   0  0  0  0  0  0  0  0  0  0  0  0
   -0.7915   -0.0727    1.2279 C   0  0  0  0  0  0  0  0  0  0  0  0
   -1.7876   -0.7941    1.3336 O   0  0  0  0  0  0  0  0  0  0  0  0
   -0.4114    0.7055    2.2980 N   0  0  0  0  0  0  0  0  0  0  0  0
   -1.2319    0.8022    3.5010 C   0  0  0  0  0  0  0  0  0  0  0  0
   -1.1176   -0.4572    4.4010 C   0  0  1  0  0  0  0  0  0  0  0  0
   -0.0538   -0.8017    4.4189 H   0  0  0  0  0  0  0  0  0  0  0  0
   -1.6495   -0.1979    5.8168 C   0  0  0  0  0  0  0  0  0  0  0  0
   -3.0868   -0.7390    5.8631 C   0  0  0  0  0  0  0  0  0  0  0  0
   -3.3307   -1.4746    4.5405 C   0  0  0  0  0  0  0  0  0  0  0  0
   -2.0013   -1.5598    3.8215 N   0  0  0  0  0  0  0  0  0  0  0  0
   -2.1357   -1.3636    2.7432 H   0  0  0  0  0  0  0  0  0  0  0  0
   -1.3603   -2.9237    3.9847 C   0  0  0  0  0  0  0  0  0  0  0  0
   -2.1579   -3.9368    3.2221 C   0  0  0  0  0  0  0  0  0  0  0  0
   -2.1570   -3.9038    1.8238 C   0  0  0  0  0  0  0  0  0  0  0  0
   -2.9043   -4.8274    1.1018 C   0  0  0  0  0  0  0  0  0  0  0  0
   -3.6333   -5.7820    1.8127 C   0  0  0  0  0  0  0  0  0  0  0  0
   -4.3484   -6.6632    1.1363 F   0  0  0  0  0  0  0  0  0  0  0  0
   -3.6362   -5.8488    3.2071 C   0  0  0  0  0  0  0  0  0  0  0  0
   -2.8871   -4.9106    3.9092 C   0  0  0  0  0  0  0  0  0  0  0  0
    2.9568   -0.0588    1.2292 H   0  0  0  0  0  0  0  0  0  0  0  0
    2.0200    0.0134   -3.3546 H   0  0  0  0  0  0  0  0  0  0  0  0
   -0.4435    0.0392   -3.4100 H   0  0  0  0  0  0  0  0  0  0  0  0
   -3.7836    0.0948   -1.9682 H   0  0  0  0  0  0  0  0  0  0  0  0
   -2.5885   -0.8573   -2.9247 H   0  0  0  0  0  0  0  0  0  0  0  0
   -2.5434    0.9583   -2.9532 H   0  0  0  0  0  0  0  0  0  0  0  0
    0.4606    1.2237    2.2753 H   0  0  0  0  0  0  0  0  0  0  0  0
   -2.2998    0.9862    3.2215 H   0  0  0  0  0  0  0  0  0  0  0  0
   -0.9082    1.7025    4.0796 H   0  0  0  0  0  0  0  0  0  0  0  0
   -1.6149    0.8742    6.0872 H   0  0  0  0  0  0  0  0  0  0  0  0
   -1.0157   -0.6989    6.5751 H   0  0  0  0  0  0  0  0  0  0  0  0
   -3.8207    0.0789    6.0038 H   0  0  0  0  0  0  0  0  0  0  0  0
   -3.2321   -1.4072    6.7339 H   0  0  0  0  0  0  0  0  0  0  0  0
   -4.0509   -0.9265    3.8919 H   0  0  0  0  0  0  0  0  0  0  0  0
   -3.7621   -2.4884    4.6906 H   0  0  0  0  0  0  0  0  0  0  0  0
   -1.2775   -3.1748    5.0665 H   0  0  0  0  0  0  0  0  0  0  0  0
   -0.3151   -2.8790    3.5887 H   0  0  0  0  0  0  0  0  0  0  0  0
   -1.5739   -3.1500    1.2847 H   0  0  0  0  0  0  0  0  0  0  0  0
   -2.9130   -4.8046    0.0104 H   0  0  0  0  0  0  0  0  0  0  0  0
   -4.2048   -6.6183    3.7333 H   0  0  0  0  0  0  0  0  0  0  0  0
   -2.8662   -4.9501    4.9992 H   0  0  0  0  0  0  0  0  0  0  0  0
  1 11  1  0  0  0  0
  2  1  1  0  0  0  0
  2  3  1  0  0  0  0
  4  5  1  0  0  0  0
  4  2  2  0  0  0  0
  6  4  1  0  0  0  0
  7  6  2  0  0  0  0
  7  8  1  0  0  0  0
  8  9  1  0  0  0  0
  8  1  2  0  0  0  0
 10 33  1  0  0  0  0
 10  9  1  0  0  0  0
 11 12  2  0  0  0  0
 11 13  1  0  0  0  0
 13 14  1  0  0  0  0
 14 38  1  0  0  0  0
 14 15  1  0  0  0  0
 15 16  1  1  0  0  0
 15 17  1  0  0  0  0
 17 18  1  0  0  0  0
 17 39  1  0  0  0  0
 17 40  1  0  0  0  0
 18 41  1  0  0  0  0
 18 42  1  0  0  0  0
 19 44  1  0  0  0  0
 19 18  1  0  0  0  0
 20 22  1  0  0  0  0
 20 15  1  0  0  0  0
 20 19  1  0  0  0  0
 21 20  1  0  0  0  0
 22 45  1  0  0  0  0
 23 29  1  0  0  0  0
 23 22  1  0  0  0  0
 24 23  2  0  0  0  0
 25 26  2  0  0  0  0
 25 24  1  0  0  0  0
 26 28  1  0  0  0  0
 27 26  1  0  0  0  0
 28 49  1  0  0  0  0
 28 29  2  0  0  0  0
 29 50  1  0  0  0  0
 30  3  1  0  0  0  0
 31  6  1  0  0  0  0
 32  7  1  0  0  0  0
 34 10  1  0  0  0  0
 35 10  1  0  0  0  0
 36 13  1  0  0  0  0
 37 14  1  0  0  0  0
 43 19  1  0  0  0  0
 46 22  1  0  0  0  0
 47 24  1  0  0  0  0
 48 25  1  0  0  0  0
M  END
$$$$
