50
rmsd117.gzmat
C          0.00000        0.00000        0.00000
C          1.40210        0.00000        0.00000
O          1.95300        0.00000        1.23220
C          2.11560        0.00710       -1.19790
Br         3.99790        0.02290       -1.19520
C          1.43110       -0.00050       -2.41290
C          0.04230       -0.01420       -2.44180
C         -0.67130       -0.01860       -1.23620
O         -2.00950       -0.01590       -1.11050
C         -2.78800       -0.15240       -2.29920
C         -0.73470       -0.07130        1.26800
O         -1.11530       -1.12190        1.77790
N         -0.95440        1.12110        1.92370
C         -1.74850        1.16600        3.14870
C         -0.92420        0.72430        4.38640
H          0.09350        1.18620        4.33560
C         -1.63550        1.09730        5.69910
C         -1.86340       -0.20920        6.47350
C         -1.74140       -1.32320        5.43280
N         -0.78390       -0.80160        4.38280
H         -1.05290       -1.17920        3.39420
C          0.64670       -1.22370        4.67170
C          0.79690       -2.68080        4.36200
C          0.87400       -3.09240        3.02750
C          0.99090       -4.44230        2.71570
C          1.04230       -5.35690        3.76850
F          1.14930       -6.64260        3.48440
C          0.98910       -4.97180        5.10960
C          0.86580       -3.61680        5.39820
H          2.94960       -0.02510        1.22810
H          1.98640        0.00420       -3.36050
H         -0.47910       -0.02180       -3.39690
H         -3.80670       -0.23780       -1.89080
H         -2.52240       -1.06460       -2.84480
H         -2.69450        0.74280       -2.92310
H         -0.64210        1.99980        1.53000
H         -2.66300        0.52980        3.03870
H         -2.11720        2.20960        3.30440
H         -2.59700        1.61430        5.51550
H         -1.03490        1.81300        6.29220
H         -2.85140       -0.22250        6.97290
H         -1.12470       -0.32800        7.28870
H         -2.72010       -1.54160        4.94820
H         -1.38040       -2.28350        5.85870
H          0.90580       -0.98210        5.72680
H          1.33400       -0.61910        4.02800
H          0.83720       -2.35710        2.21680
H          1.04010       -4.77060        1.67560
H          1.04720       -5.71130        5.91050
H          0.83550       -3.29250        6.43900
