rmsd165.gzmat
 OpenBabel08211713363D

 50 52  0  0  1  0  0  0  0  0999 V2000
    0.0000    0.0000    0.0000 C   0  0  0  0  0  0  0  0  0  0  0  0
    1.4043    0.0000    0.0000 C   0  0  0  0  0  0  0  0  0  0  0  0
    1.9585    0.0000    1.2267 O   0  0  0  0  0  0  0  0  0  0  0  0
    2.1177    0.0415   -1.1998 C   0  0  0  0  0  0  0  0  0  0  0  0
    3.9997    0.0243   -1.1952 Br  0  0  0  0  0  0  0  0  0  0  0  0
    1.4351    0.0921   -2.4126 C   0  0  0  0  0  0  0  0  0  0  0  0
    0.0443    0.1164   -2.4414 C   0  0  0  0  0  0  0  0  0  0  0  0
   -0.6655    0.0763   -1.2377 C   0  0  0  0  0  0  0  0  0  0  0  0
   -2.0062    0.1221   -1.1107 O   0  0  0  0  0  0  0  0  0  0  0  0
   -2.7881    0.0683   -2.3035 C   0  0  0  0  0  0  0  0  0  0  0  0
   -0.7186   -0.1592    1.2654 C   0  0  0  0  0  0  0  0  0  0  0  0
   -0.5708   -1.1205    2.0152 O   0  0  0  0  0  0  0  0  0  0  0  0
   -1.5485    0.8742    1.6577 N   0  0  0  0  0  0  0  0  0  0  0  0
   -2.3779    0.7307    2.8523 C   0  0  0  0  0  0  0  0  0  0  0  0
   -1.5812    1.0722    4.1393 C   0  0  1  0  0  0  0  0  0  0  0  0
   -1.0418    2.0407    3.9959 H   0  0  0  0  0  0  0  0  0  0  0  0
   -2.5087    1.1232    5.3627 C   0  0  0  0  0  0  0  0  0  0  0  0
   -2.3602   -0.2347    6.0582 C   0  0  0  0  0  0  0  0  0  0  0  0
   -0.9297   -0.6808    5.7521 C   0  0  0  0  0  0  0  0  0  0  0  0
   -0.5632   -0.0401    4.4262 N   0  0  0  0  0  0  0  0  0  0  0  0
   -0.6282   -0.7759    3.6266 H   0  0  0  0  0  0  0  0  0  0  0  0
    0.8570    0.4938    4.4291 C   0  0  0  0  0  0  0  0  0  0  0  0
    1.8154   -0.6178    4.7279 C   0  0  0  0  0  0  0  0  0  0  0  0
    2.0128   -1.6364    3.7910 C   0  0  0  0  0  0  0  0  0  0  0  0
    2.8990   -2.6734    4.0595 C   0  0  0  0  0  0  0  0  0  0  0  0
    3.5834   -2.6543    5.2756 C   0  0  0  0  0  0  0  0  0  0  0  0
    4.4270   -3.6351    5.5418 F   0  0  0  0  0  0  0  0  0  0  0  0
    3.4165   -1.6419    6.2222 C   0  0  0  0  0  0  0  0  0  0  0  0
    2.5210   -0.6176    5.9347 C   0  0  0  0  0  0  0  0  0  0  0  0
    2.9537   -0.0703    1.2251 H   0  0  0  0  0  0  0  0  0  0  0  0
    1.9891    0.1183   -3.3607 H   0  0  0  0  0  0  0  0  0  0  0  0
   -0.4742    0.1641   -3.3970 H   0  0  0  0  0  0  0  0  0  0  0  0
   -3.8120    0.0405   -1.9019 H   0  0  0  0  0  0  0  0  0  0  0  0
   -2.5761   -0.8459   -2.8698 H   0  0  0  0  0  0  0  0  0  0  0  0
   -2.6317    0.9689   -2.9070 H   0  0  0  0  0  0  0  0  0  0  0  0
   -1.7578    1.6364    1.0249 H   0  0  0  0  0  0  0  0  0  0  0  0
   -2.7974   -0.3053    2.9171 H   0  0  0  0  0  0  0  0  0  0  0  0
   -3.2567    1.4154    2.7737 H   0  0  0  0  0  0  0  0  0  0  0  0
   -3.5606    1.3295    5.0919 H   0  0  0  0  0  0  0  0  0  0  0  0
   -2.2229    1.9497    6.0433 H   0  0  0  0  0  0  0  0  0  0  0  0
   -3.1046   -0.9645    5.6844 H   0  0  0  0  0  0  0  0  0  0  0  0
   -2.5433   -0.1631    7.1477 H   0  0  0  0  0  0  0  0  0  0  0  0
   -0.8301   -1.7848    5.6681 H   0  0  0  0  0  0  0  0  0  0  0  0
   -0.2235   -0.3597    6.5486 H   0  0  0  0  0  0  0  0  0  0  0  0
    0.9459    1.3313    5.1564 H   0  0  0  0  0  0  0  0  0  0  0  0
    1.0694    0.9227    3.4140 H   0  0  0  0  0  0  0  0  0  0  0  0
    1.4715   -1.6282    2.8357 H   0  0  0  0  0  0  0  0  0  0  0  0
    3.0523   -3.4769    3.3358 H   0  0  0  0  0  0  0  0  0  0  0  0
    3.9749   -1.6496    7.1603 H   0  0  0  0  0  0  0  0  0  0  0  0
    2.3836    0.1896    6.6553 H   0  0  0  0  0  0  0  0  0  0  0  0
  1  2  1  0  0  0  0
  1 11  1  0  0  0  0
  2  3  1  0  0  0  0
  4  5  1  0  0  0  0
  4  2  2  0  0  0  0
  6  4  1  0  0  0  0
  7  6  2  0  0  0  0
  7  8  1  0  0  0  0
  8  9  1  0  0  0  0
  8  1  2  0  0  0  0
 10 33  1  0  0  0  0
 10  9  1  0  0  0  0
 11 13  1  0  0  0  0
 11 12  2  0  0  0  0
 13 14  1  0  0  0  0
 14 37  1  0  0  0  0
 14 15  1  0  0  0  0
 15 16  1  6  0  0  0
 15 20  1  0  0  0  0
 15 17  1  0  0  0  0
 17 40  1  0  0  0  0
 17 18  1  0  0  0  0
 18 42  1  0  0  0  0
 19 18  1  0  0  0  0
 19 44  1  0  0  0  0
 20 22  1  0  0  0  0
 20 19  1  0  0  0  0
 21 20  1  0  0  0  0
 22 23  1  0  0  0  0
 22 45  1  0  0  0  0
 23 29  2  0  0  0  0
 24 25  2  0  0  0  0
 24 23  1  0  0  0  0
 25 26  1  0  0  0  0
 26 27  1  0  0  0  0
 26 28  2  0  0  0  0
 28 49  1  0  0  0  0
 29 28  1  0  0  0  0
 29 50  1  0  0  0  0
 30  3  1  0  0  0  0
 31  6  1  0  0  0  0
 32  7  1  0  0  0  0
 34 10  1  0  0  0  0
 35 10  1  0  0  0  0
 36 13  1  0  0  0  0
 38 14  1  0  0  0  0
 39 17  1  0  0  0  0
 41 18  1  0  0  0  0
 43 19  1  0  0  0  0
 46 22  1  0  0  0  0
 47 24  1  0  0  0  0
 48 25  1  0  0  0  0
M  END
$$$$
