50
rmsd242.gzmat
C          0.00000        0.00000        0.00000
C          1.40500        0.00000        0.00000
O          1.96020        0.00000        1.23070
C          2.12790       -0.00190       -1.19040
Br         4.01040       -0.01910       -1.17790
C          1.45310        0.00890       -2.41230
C          0.06690        0.02580       -2.44980
C         -0.65990        0.02380       -1.24940
O         -1.99530        0.06930       -1.14390
C         -2.75620        0.07960       -2.35240
C         -0.78320       -0.08960        1.23180
O         -1.74770       -0.84830        1.35770
N         -0.42010        0.70690        2.29510
C         -1.22460        0.75270        3.51150
C         -0.97750       -0.47180        4.43100
H          0.12070       -0.67730        4.48410
C         -1.56670       -0.24940        5.83530
C         -2.60740       -1.35400        6.06960
C         -2.92950       -1.91640        4.68440
N         -1.69060       -1.69370        3.84450
H         -1.96330       -1.47550        2.80340
C         -0.78170       -2.90820        3.85080
C         -1.46090       -4.05410        3.16570
C         -1.73170       -3.98650        1.79550
C         -2.37500       -5.04010        1.15550
C         -2.71720       -6.15990        1.91510
F         -3.33050       -7.16600        1.31770
C         -2.43780       -6.26320        3.27900
C         -1.80410       -5.19280        3.90070
H          2.95580       -0.04660        1.23000
H          2.01690        0.00680       -3.35500
H         -0.44610        0.04000       -3.40980
H         -3.78620        0.10280       -1.96310
H         -2.58840       -0.83520       -2.92990
H         -2.54810        0.98040       -2.93910
H          0.42340        1.26870        2.25910
H         -2.31010        0.83160        3.24890
H         -0.97400        1.68910        4.06960
H         -2.03100        0.75070        5.93450
H         -0.77670       -0.27430        6.61020
H         -3.51420       -0.96310        6.57050
H         -2.21880       -2.13780        6.74710
H         -3.78240       -1.38030        4.21030
H         -3.20610       -2.99270        4.70640
H         -0.49590       -3.15550        4.89860
H          0.16520       -2.64630        3.31540
H         -1.44190       -3.10630        1.21170
H         -2.59960       -4.98930        0.08830
H         -2.70360       -7.15960        3.84280
H         -1.56940       -5.25540        4.96410
