rmsd190.gzmat
 OpenBabel08211713363D

 50 52  0  0  1  0  0  0  0  0999 V2000
    0.0000    0.0000    0.0000 C   0  0  0  0  0  0  0  0  0  0  0  0
    1.4055    0.0000    0.0000 C   0  0  0  0  0  0  0  0  0  0  0  0
    1.9645    0.0000    1.2295 O   0  0  0  0  0  0  0  0  0  0  0  0
    2.1302   -0.0127   -1.1886 C   0  0  0  0  0  0  0  0  0  0  0  0
    4.0128   -0.0215   -1.1728 Br  0  0  0  0  0  0  0  0  0  0  0  0
    1.4582   -0.0183   -2.4122 C   0  0  0  0  0  0  0  0  0  0  0  0
    0.0724   -0.0139   -2.4514 C   0  0  0  0  0  0  0  0  0  0  0  0
   -0.6565   -0.0043   -1.2517 C   0  0  0  0  0  0  0  0  0  0  0  0
   -1.9922    0.0208   -1.1535 O   0  0  0  0  0  0  0  0  0  0  0  0
   -2.7473   -0.0197   -2.3651 C   0  0  0  0  0  0  0  0  0  0  0  0
   -0.7903   -0.0601    1.2286 C   0  0  0  0  0  0  0  0  0  0  0  0
   -1.8015   -0.7543    1.3463 O   0  0  0  0  0  0  0  0  0  0  0  0
   -0.3729    0.6745    2.3182 N   0  0  0  0  0  0  0  0  0  0  0  0
   -1.1761    0.7035    3.5348 C   0  0  0  0  0  0  0  0  0  0  0  0
   -0.9236   -0.5355    4.4337 C   0  0  1  0  0  0  0  0  0  0  0  0
    0.1748   -0.6641    4.5942 H   0  0  0  0  0  0  0  0  0  0  0  0
   -1.6684   -0.4050    5.7718 C   0  0  0  0  0  0  0  0  0  0  0  0
   -2.9112   -1.2959    5.6548 C   0  0  0  0  0  0  0  0  0  0  0  0
   -2.5023   -2.4120    4.6932 C   0  0  0  0  0  0  0  0  0  0  0  0
   -1.4870   -1.7908    3.7525 N   0  0  0  0  0  0  0  0  0  0  0  0
   -1.9735   -1.4875    2.8267 H   0  0  0  0  0  0  0  0  0  0  0  0
   -0.3862   -2.7693    3.3878 C   0  0  0  0  0  0  0  0  0  0  0  0
   -0.9802   -3.9611    2.7024 C   0  0  0  0  0  0  0  0  0  0  0  0
   -1.4636   -3.8442    1.3957 C   0  0  0  0  0  0  0  0  0  0  0  0
   -2.0248   -4.9431    0.7548 C   0  0  0  0  0  0  0  0  0  0  0  0
   -2.0755   -6.1532    1.4481 C   0  0  0  0  0  0  0  0  0  0  0  0
   -2.6124   -7.2021    0.8512 F   0  0  0  0  0  0  0  0  0  0  0  0
   -1.5808   -6.3033    2.7450 C   0  0  0  0  0  0  0  0  0  0  0  0
   -1.0309   -5.1892    3.3692 C   0  0  0  0  0  0  0  0  0  0  0  0
    2.9611   -0.0197    1.2257 H   0  0  0  0  0  0  0  0  0  0  0  0
    2.0236   -0.0255   -3.3536 H   0  0  0  0  0  0  0  0  0  0  0  0
   -0.4399   -0.0158   -3.4118 H   0  0  0  0  0  0  0  0  0  0  0  0
   -3.7787   -0.0243   -1.9790 H   0  0  0  0  0  0  0  0  0  0  0  0
   -2.5459   -0.9390   -2.9242 H   0  0  0  0  0  0  0  0  0  0  0  0
   -2.5682    0.8767   -2.9679 H   0  0  0  0  0  0  0  0  0  0  0  0
    0.4867    1.2098    2.2945 H   0  0  0  0  0  0  0  0  0  0  0  0
   -2.2637    0.7805    3.2756 H   0  0  0  0  0  0  0  0  0  0  0  0
   -0.9298    1.6299    4.1101 H   0  0  0  0  0  0  0  0  0  0  0  0
   -1.9400    0.6409    6.0067 H   0  0  0  0  0  0  0  0  0  0  0  0
   -1.0271   -0.7298    6.6151 H   0  0  0  0  0  0  0  0  0  0  0  0
   -3.7828   -0.7274    5.2753 H   0  0  0  0  0  0  0  0  0  0  0  0
   -3.2280   -1.6947    6.6378 H   0  0  0  0  0  0  0  0  0  0  0  0
   -3.3544   -2.8146    4.1041 H   0  0  0  0  0  0  0  0  0  0  0  0
   -2.0535   -3.2726    5.2356 H   0  0  0  0  0  0  0  0  0  0  0  0
    0.1872   -3.0525    4.2992 H   0  0  0  0  0  0  0  0  0  0  0  0
    0.3362   -2.2476    2.7089 H   0  0  0  0  0  0  0  0  0  0  0  0
   -1.4062   -2.8887    0.8629 H   0  0  0  0  0  0  0  0  0  0  0  0
   -2.4078   -4.8570   -0.2633 H   0  0  0  0  0  0  0  0  0  0  0  0
   -1.6172   -7.2686    3.2538 H   0  0  0  0  0  0  0  0  0  0  0  0
   -0.6308   -5.2858    4.3795 H   0  0  0  0  0  0  0  0  0  0  0  0
  1 11  1  0  0  0  0
  2  1  1  0  0  0  0
  2  3  1  0  0  0  0
  4  5  1  0  0  0  0
  4  2  2  0  0  0  0
  6  4  1  0  0  0  0
  7  6  2  0  0  0  0
  7  8  1  0  0  0  0
  8  9  1  0  0  0  0
  8  1  2  0  0  0  0
 10 33  1  0  0  0  0
 10  9  1  0  0  0  0
 11 12  2  0  0  0  0
 11 13  1  0  0  0  0
 13 14  1  0  0  0  0
 14 38  1  0  0  0  0
 14 15  1  0  0  0  0
 15 16  1  1  0  0  0
 15 17  1  0  0  0  0
 17 39  1  0  0  0  0
 17 40  1  0  0  0  0
 18 17  1  0  0  0  0
 18 42  1  0  0  0  0
 19 44  1  0  0  0  0
 19 18  1  0  0  0  0
 20 15  1  0  0  0  0
 20 19  1  0  0  0  0
 21 20  1  0  0  0  0
 22 20  1  0  0  0  0
 22 45  1  0  0  0  0
 23 29  2  0  0  0  0
 23 22  1  0  0  0  0
 24 23  1  0  0  0  0
 25 24  2  0  0  0  0
 25 26  1  0  0  0  0
 26 28  2  0  0  0  0
 27 26  1  0  0  0  0
 28 49  1  0  0  0  0
 28 29  1  0  0  0  0
 29 50  1  0  0  0  0
 30  3  1  0  0  0  0
 31  6  1  0  0  0  0
 32  7  1  0  0  0  0
 34 10  1  0  0  0  0
 35 10  1  0  0  0  0
 36 13  1  0  0  0  0
 37 14  1  0  0  0  0
 41 18  1  0  0  0  0
 43 19  1  0  0  0  0
 46 22  1  0  0  0  0
 47 24  1  0  0  0  0
 48 25  1  0  0  0  0
M  END
$$$$
