rmsd117.gzmat
 OpenBabel08211713363D

 50 52  0  0  1  0  0  0  0  0999 V2000
    0.0000    0.0000    0.0000 C   0  0  0  0  0  0  0  0  0  0  0  0
    1.4021    0.0000    0.0000 C   0  0  0  0  0  0  0  0  0  0  0  0
    1.9530    0.0000    1.2322 O   0  0  0  0  0  0  0  0  0  0  0  0
    2.1156    0.0071   -1.1979 C   0  0  0  0  0  0  0  0  0  0  0  0
    3.9979    0.0229   -1.1952 Br  0  0  0  0  0  0  0  0  0  0  0  0
    1.4311   -0.0005   -2.4129 C   0  0  0  0  0  0  0  0  0  0  0  0
    0.0423   -0.0142   -2.4418 C   0  0  0  0  0  0  0  0  0  0  0  0
   -0.6713   -0.0186   -1.2362 C   0  0  0  0  0  0  0  0  0  0  0  0
   -2.0095   -0.0159   -1.1105 O   0  0  0  0  0  0  0  0  0  0  0  0
   -2.7880   -0.1524   -2.2992 C   0  0  0  0  0  0  0  0  0  0  0  0
   -0.7347   -0.0713    1.2680 C   0  0  0  0  0  0  0  0  0  0  0  0
   -1.1153   -1.1219    1.7779 O   0  0  0  0  0  0  0  0  0  0  0  0
   -0.9544    1.1211    1.9237 N   0  0  0  0  0  0  0  0  0  0  0  0
   -1.7485    1.1660    3.1487 C   0  0  0  0  0  0  0  0  0  0  0  0
   -0.9242    0.7243    4.3864 C   0  0  1  0  0  0  0  0  0  0  0  0
    0.0935    1.1862    4.3356 H   0  0  0  0  0  0  0  0  0  0  0  0
   -1.6355    1.0973    5.6991 C   0  0  0  0  0  0  0  0  0  0  0  0
   -1.8634   -0.2092    6.4735 C   0  0  0  0  0  0  0  0  0  0  0  0
   -1.7414   -1.3232    5.4328 C   0  0  0  0  0  0  0  0  0  0  0  0
   -0.7839   -0.8016    4.3828 N   0  0  0  0  0  0  0  0  0  0  0  0
   -1.0529   -1.1792    3.3942 H   0  0  0  0  0  0  0  0  0  0  0  0
    0.6467   -1.2237    4.6717 C   0  0  0  0  0  0  0  0  0  0  0  0
    0.7969   -2.6808    4.3620 C   0  0  0  0  0  0  0  0  0  0  0  0
    0.8740   -3.0924    3.0275 C   0  0  0  0  0  0  0  0  0  0  0  0
    0.9909   -4.4423    2.7157 C   0  0  0  0  0  0  0  0  0  0  0  0
    1.0423   -5.3569    3.7685 C   0  0  0  0  0  0  0  0  0  0  0  0
    1.1493   -6.6426    3.4844 F   0  0  0  0  0  0  0  0  0  0  0  0
    0.9891   -4.9718    5.1096 C   0  0  0  0  0  0  0  0  0  0  0  0
    0.8658   -3.6168    5.3982 C   0  0  0  0  0  0  0  0  0  0  0  0
    2.9496   -0.0251    1.2281 H   0  0  0  0  0  0  0  0  0  0  0  0
    1.9864    0.0042   -3.3605 H   0  0  0  0  0  0  0  0  0  0  0  0
   -0.4791   -0.0218   -3.3969 H   0  0  0  0  0  0  0  0  0  0  0  0
   -3.8067   -0.2378   -1.8908 H   0  0  0  0  0  0  0  0  0  0  0  0
   -2.5224   -1.0646   -2.8448 H   0  0  0  0  0  0  0  0  0  0  0  0
   -2.6945    0.7428   -2.9231 H   0  0  0  0  0  0  0  0  0  0  0  0
   -0.6421    1.9998    1.5300 H   0  0  0  0  0  0  0  0  0  0  0  0
   -2.6630    0.5298    3.0387 H   0  0  0  0  0  0  0  0  0  0  0  0
   -2.1172    2.2096    3.3044 H   0  0  0  0  0  0  0  0  0  0  0  0
   -2.5970    1.6143    5.5155 H   0  0  0  0  0  0  0  0  0  0  0  0
   -1.0349    1.8130    6.2922 H   0  0  0  0  0  0  0  0  0  0  0  0
   -2.8514   -0.2225    6.9729 H   0  0  0  0  0  0  0  0  0  0  0  0
   -1.1247   -0.3280    7.2887 H   0  0  0  0  0  0  0  0  0  0  0  0
   -2.7201   -1.5416    4.9482 H   0  0  0  0  0  0  0  0  0  0  0  0
   -1.3804   -2.2835    5.8587 H   0  0  0  0  0  0  0  0  0  0  0  0
    0.9058   -0.9821    5.7268 H   0  0  0  0  0  0  0  0  0  0  0  0
    1.3340   -0.6191    4.0280 H   0  0  0  0  0  0  0  0  0  0  0  0
    0.8372   -2.3571    2.2168 H   0  0  0  0  0  0  0  0  0  0  0  0
    1.0401   -4.7706    1.6756 H   0  0  0  0  0  0  0  0  0  0  0  0
    1.0472   -5.7113    5.9105 H   0  0  0  0  0  0  0  0  0  0  0  0
    0.8355   -3.2925    6.4390 H   0  0  0  0  0  0  0  0  0  0  0  0
  1  2  1  0  0  0  0
  1 11  1  0  0  0  0
  2  3  1  0  0  0  0
  4  5  1  0  0  0  0
  4  2  2  0  0  0  0
  6  4  1  0  0  0  0
  7  6  2  0  0  0  0
  7  8  1  0  0  0  0
  8  9  1  0  0  0  0
  8  1  2  0  0  0  0
 10 33  1  0  0  0  0
 10  9  1  0  0  0  0
 11 12  2  0  0  0  0
 11 13  1  0  0  0  0
 13 14  1  0  0  0  0
 14 38  1  0  0  0  0
 14 15  1  0  0  0  0
 15 16  1  6  0  0  0
 15 17  1  0  0  0  0
 17 40  1  0  0  0  0
 17 18  1  0  0  0  0
 18 41  1  0  0  0  0
 18 42  1  0  0  0  0
 19 44  1  0  0  0  0
 19 18  1  0  0  0  0
 20 15  1  0  0  0  0
 20 22  1  0  0  0  0
 20 19  1  0  0  0  0
 21 20  1  0  0  0  0
 22 45  1  0  0  0  0
 23 22  1  0  0  0  0
 23 29  2  0  0  0  0
 24 23  1  0  0  0  0
 25 24  2  0  0  0  0
 25 26  1  0  0  0  0
 26 28  2  0  0  0  0
 27 26  1  0  0  0  0
 28 29  1  0  0  0  0
 28 49  1  0  0  0  0
 29 50  1  0  0  0  0
 30  3  1  0  0  0  0
 31  6  1  0  0  0  0
 32  7  1  0  0  0  0
 34 10  1  0  0  0  0
 35 10  1  0  0  0  0
 36 13  1  0  0  0  0
 37 14  1  0  0  0  0
 39 17  1  0  0  0  0
 43 19  1  0  0  0  0
 46 22  1  0  0  0  0
 47 24  1  0  0  0  0
 48 25  1  0  0  0  0
M  END
$$$$
