50
rmsd188.gzmat
C          0.00000        0.00000        0.00000
C          1.40630        0.00000        0.00000
O          1.96410        0.00000        1.22220
C          2.11890        0.04160       -1.20230
Br         4.00150        0.03300       -1.19900
C          1.43840        0.08670       -2.41510
C          0.04670        0.11200       -2.44440
C         -0.66160        0.07890       -1.24130
O         -2.00410        0.13190       -1.12200
C         -2.78130        0.03370       -2.31480
C         -0.72050       -0.17030        1.26100
O         -0.45820       -1.06190        2.06820
N         -1.70350        0.74910        1.57300
C         -2.58530        0.53220        2.71930
C         -1.91600        0.97050        4.04930
H         -1.40730        1.95470        3.90050
C         -2.93760        1.02290        5.19240
C         -2.90530       -0.36770        5.83690
C         -1.49380       -0.90900        5.58790
N         -0.88640       -0.08250        4.46900
H         -0.67670       -0.72170        3.59930
C          0.41950        0.56260        4.89070
C          1.42350       -0.50340        5.20820
C          1.89180       -1.34050        4.19100
C          2.80730       -2.34680        4.47690
C          3.24820       -2.47860        5.79440
F          4.11700       -3.43250        6.07810
C          2.81310       -1.64340        6.82480
C          1.89150       -0.64820        6.51720
H          2.96040       -0.06680        1.21510
H          1.99260        0.10870       -3.36340
H         -0.47100        0.15730       -3.40040
H         -3.80710        0.02900       -1.91800
H         -2.57090       -0.90450       -2.84090
H         -2.61780        0.90680       -2.95560
H         -1.99110        1.43770        0.88630
H         -2.89970       -0.54020        2.77750
H         -3.52300        1.12090        2.57110
H         -3.95320        1.28900        4.84520
H         -2.67300        1.80830        5.92800
H         -3.67530       -1.03170        5.39770
H         -3.14180       -0.32460        6.91770
H         -1.50040       -1.97930        5.28350
H         -0.86460       -0.85190        6.50280
H          0.24290        1.24660        5.75110
H          0.78770        1.19980        4.04690
H          1.53940       -1.21670        3.15900
H          3.16670       -3.01310        3.69020
H          3.18740       -1.76400        7.84320
H          1.54630        0.02210        7.30540
