50
rmsd149.gzmat
C          0.00000        0.00000        0.00000
C          1.40430        0.00000        0.00000
O          1.95890        0.00000        1.23240
C          2.12620       -0.01450       -1.19010
Br         4.00860       -0.01640       -1.17820
C          1.44930       -0.03070       -2.41110
C          0.06300       -0.03010       -2.44770
C         -0.66250       -0.01120       -1.24660
O         -1.99760        0.01620       -1.13750
C         -2.76400       -0.02960       -2.34170
C         -0.77630       -0.07090        1.23690
O         -1.71370       -0.85140        1.40230
N         -0.41710        0.75340        2.28270
C         -1.20600        0.75930        3.50920
C         -0.80400       -0.38810        4.47260
H          0.29680       -0.35330        4.65920
C         -1.59040       -0.30040        5.79070
C         -2.66150       -1.39610        5.72530
C         -2.06510       -2.47700        4.82360
N         -1.16770       -1.74160        3.84660
H         -1.70870       -1.55500        2.92260
C          0.07200       -2.54500        3.49960
C         -0.32600       -3.83960        2.86080
C         -0.84950       -3.84450        1.56440
C         -1.23250       -5.03980        0.96620
C         -1.06200       -6.22070        1.68990
F         -1.42650       -7.36170        1.13310
C         -0.52060       -6.24720        2.97650
C         -0.15220       -5.03900        3.55780
H          2.95540       -0.02750        1.22970
H          2.01210       -0.04520       -3.35390
H         -0.45160       -0.04400       -3.40640
H         -3.79180       -0.00950       -1.94670
H         -2.58360       -0.96290       -2.88480
H         -2.57500        0.85210       -2.96230
H          0.38380        1.36890        2.21840
H         -2.29770        0.69320        3.26180
H         -1.06620        1.73930        4.02880
H         -2.04290        0.69640        5.94970
H         -0.92170       -0.45280        6.66110
H         -3.61500       -1.00520        5.31880
H         -2.91200       -1.78960        6.72940
H         -2.83540       -3.04770        4.26060
H         -1.48070       -3.22050        5.40690
H          0.69000       -2.70100        4.41270
H          0.69770       -1.93710        2.79500
H         -0.96470       -2.91020        1.00490
H         -1.64930       -5.04930       -0.04270
H         -0.38600       -7.18940        3.51120
H          0.28360       -5.03920        4.55750
