rmsd93.gzmat
 OpenBabel08211713393D

 34 35  0  0  0  0  0  0  0  0999 V2000
    0.0000    0.0000    0.0000 Br  0  0  0  0  0  0  0  0  0  0  0  0
    1.8890    0.0000    0.0000 C   0  0  0  0  0  0  0  0  0  0  0  0
    2.5787    0.0000    1.2186 C   0  0  0  0  0  0  0  0  0  0  0  0
    1.7713    0.0312    2.3161 O   0  0  0  0  0  0  0  0  0  0  0  0
    2.3491   -0.3462    3.5540 C   0  0  0  0  0  0  0  0  0  0  0  0
    2.7697   -1.8098    3.5719 C   0  0  0  0  0  0  0  0  0  0  0  0
    3.5589   -2.1870    4.4024 O   0  0  0  0  0  0  0  0  0  0  0  0
    2.1967   -2.6968    2.5433 C   0  0  0  0  0  0  0  0  0  0  0  0
    3.0366   -3.6002    1.8899 C   0  0  0  0  0  0  0  0  0  0  0  0
    2.5270   -4.4178    0.8857 C   0  0  0  0  0  0  0  0  0  0  0  0
    1.1736   -4.3493    0.5464 C   0  0  0  0  0  0  0  0  0  0  0  0
    0.3316   -3.4588    1.2191 C   0  0  0  0  0  0  0  0  0  0  0  0
    0.8408   -2.6334    2.2151 C   0  0  0  0  0  0  0  0  0  0  0  0
    0.6143   -5.2389   -0.5223 C   0  0  0  0  0  0  0  0  0  0  0  0
   -0.1310   -6.4138    0.1166 C   0  0  0  0  0  0  0  0  0  0  0  0
    3.9735   -0.0044    1.2406 C   0  0  0  0  0  0  0  0  0  0  0  0
    4.6650   -0.0109    0.0310 C   0  0  0  0  0  0  0  0  0  0  0  0
    3.9787   -0.0176   -1.1815 C   0  0  0  0  0  0  0  0  0  0  0  0
    2.5831   -0.0107   -1.1998 C   0  0  0  0  0  0  0  0  0  0  0  0
    1.5083   -0.1688    4.2587 H   0  0  0  0  0  0  0  0  0  0  0  0
    3.1815    0.3267    3.8276 H   0  0  0  0  0  0  0  0  0  0  0  0
    4.0904   -3.6603    2.1671 H   0  0  0  0  0  0  0  0  0  0  0  0
    3.1841   -5.1136    0.3693 H   0  0  0  0  0  0  0  0  0  0  0  0
   -0.7241   -3.4071    0.9595 H   0  0  0  0  0  0  0  0  0  0  0  0
    0.1822   -1.9334    2.7311 H   0  0  0  0  0  0  0  0  0  0  0  0
    1.4146   -5.6184   -1.1886 H   0  0  0  0  0  0  0  0  0  0  0  0
   -0.0696   -4.6676   -1.1835 H   0  0  0  0  0  0  0  0  0  0  0  0
    0.5239   -6.9829    0.7875 H   0  0  0  0  0  0  0  0  0  0  0  0
   -0.5109   -7.1060   -0.6425 H   0  0  0  0  0  0  0  0  0  0  0  0
   -0.9852   -6.0687    0.7113 H   0  0  0  0  0  0  0  0  0  0  0  0
    4.5220   -0.0045    2.1782 H   0  0  0  0  0  0  0  0  0  0  0  0
    5.7556   -0.0129    0.0373 H   0  0  0  0  0  0  0  0  0  0  0  0
    4.5299   -0.0278   -2.1191 H   0  0  0  0  0  0  0  0  0  0  0  0
    2.0547   -0.0159   -2.1546 H   0  0  0  0  0  0  0  0  0  0  0  0
  2  1  1  0  0  0  0
  2  3  2  0  0  0  0
  3 16  1  0  0  0  0
  3  4  1  0  0  0  0
  4  5  1  0  0  0  0
  5  6  1  0  0  0  0
  5 21  1  0  0  0  0
  5 20  1  0  0  0  0
  6  7  2  0  0  0  0
  8  6  1  0  0  0  0
  9 22  1  0  0  0  0
  9  8  2  0  0  0  0
 10  9  1  0  0  0  0
 11 10  2  0  0  0  0
 11 12  1  0  0  0  0
 12 13  2  0  0  0  0
 13  8  1  0  0  0  0
 13 25  1  0  0  0  0
 14 15  1  0  0  0  0
 14 11  1  0  0  0  0
 15 30  1  0  0  0  0
 15 28  1  0  0  0  0
 16 31  1  0  0  0  0
 17 32  1  0  0  0  0
 17 16  2  0  0  0  0
 18 17  1  0  0  0  0
 19 18  2  0  0  0  0
 19  2  1  0  0  0  0
 23 10  1  0  0  0  0
 24 12  1  0  0  0  0
 26 14  1  0  0  0  0
 27 14  1  0  0  0  0
 29 15  1  0  0  0  0
 33 18  1  0  0  0  0
 34 19  1  0  0  0  0
M  END
$$$$
