rmsd91.gzmat
 OpenBabel08211713393D

 34 35  0  0  0  0  0  0  0  0999 V2000
    0.0000    0.0000    0.0000 Br  0  0  0  0  0  0  0  0  0  0  0  0
    1.8892    0.0000    0.0000 C   0  0  0  0  0  0  0  0  0  0  0  0
    2.5782    0.0000    1.2199 C   0  0  0  0  0  0  0  0  0  0  0  0
    1.7655    0.0270    2.3123 O   0  0  0  0  0  0  0  0  0  0  0  0
    2.3475   -0.2519    3.5731 C   0  0  0  0  0  0  0  0  0  0  0  0
    2.7884   -1.7030    3.7096 C   0  0  0  0  0  0  0  0  0  0  0  0
    3.4699   -2.0230    4.6518 O   0  0  0  0  0  0  0  0  0  0  0  0
    2.3809   -2.6434    2.6502 C   0  0  0  0  0  0  0  0  0  0  0  0
    3.3389   -3.5023    2.1096 C   0  0  0  0  0  0  0  0  0  0  0  0
    3.0026   -4.3297    1.0424 C   0  0  0  0  0  0  0  0  0  0  0  0
    1.7054   -4.3113    0.5242 C   0  0  0  0  0  0  0  0  0  0  0  0
    0.7352   -3.4893    1.1057 C   0  0  0  0  0  0  0  0  0  0  0  0
    1.0702   -2.6578    2.1681 C   0  0  0  0  0  0  0  0  0  0  0  0
    1.3502   -5.1595   -0.6591 C   0  0  0  0  0  0  0  0  0  0  0  0
    0.4753   -6.3401   -0.2324 C   0  0  0  0  0  0  0  0  0  0  0  0
    3.9727   -0.0082    1.2420 C   0  0  0  0  0  0  0  0  0  0  0  0
    4.6648   -0.0227    0.0326 C   0  0  0  0  0  0  0  0  0  0  0  0
    3.9796   -0.0273   -1.1804 C   0  0  0  0  0  0  0  0  0  0  0  0
    2.5834   -0.0142   -1.1994 C   0  0  0  0  0  0  0  0  0  0  0  0
    1.5019   -0.0320    4.2608 H   0  0  0  0  0  0  0  0  0  0  0  0
    3.1701    0.4497    3.7993 H   0  0  0  0  0  0  0  0  0  0  0  0
    4.3499   -3.5177    2.5197 H   0  0  0  0  0  0  0  0  0  0  0  0
    3.7544   -4.9877    0.6126 H   0  0  0  0  0  0  0  0  0  0  0  0
   -0.2811   -3.4896    0.7154 H   0  0  0  0  0  0  0  0  0  0  0  0
    0.3150   -2.0076    2.6129 H   0  0  0  0  0  0  0  0  0  0  0  0
    2.2603   -5.5319   -1.1711 H   0  0  0  0  0  0  0  0  0  0  0  0
    0.8193   -4.5469   -1.4181 H   0  0  0  0  0  0  0  0  0  0  0  0
    0.9864   -6.9680    0.5070 H   0  0  0  0  0  0  0  0  0  0  0  0
    0.2193   -6.9749   -1.0875 H   0  0  0  0  0  0  0  0  0  0  0  0
   -0.4622   -6.0003    0.2231 H   0  0  0  0  0  0  0  0  0  0  0  0
    4.5212   -0.0078    2.1795 H   0  0  0  0  0  0  0  0  0  0  0  0
    5.7554   -0.0317    0.0393 H   0  0  0  0  0  0  0  0  0  0  0  0
    4.5309   -0.0422   -2.1180 H   0  0  0  0  0  0  0  0  0  0  0  0
    2.0552   -0.0192   -2.1543 H   0  0  0  0  0  0  0  0  0  0  0  0
  2  1  1  0  0  0  0
  2  3  2  0  0  0  0
  3 16  1  0  0  0  0
  3  4  1  0  0  0  0
  4  5  1  0  0  0  0
  5  6  1  0  0  0  0
  5 21  1  0  0  0  0
  5 20  1  0  0  0  0
  6  7  2  0  0  0  0
  8  6  1  0  0  0  0
  9 22  1  0  0  0  0
  9  8  2  0  0  0  0
 10  9  1  0  0  0  0
 11 10  2  0  0  0  0
 11 12  1  0  0  0  0
 12 13  2  0  0  0  0
 13 25  1  0  0  0  0
 13  8  1  0  0  0  0
 14 15  1  0  0  0  0
 14 11  1  0  0  0  0
 15 30  1  0  0  0  0
 15 28  1  0  0  0  0
 16 31  1  0  0  0  0
 17 32  1  0  0  0  0
 17 16  2  0  0  0  0
 18 17  1  0  0  0  0
 19 18  2  0  0  0  0
 19  2  1  0  0  0  0
 23 10  1  0  0  0  0
 24 12  1  0  0  0  0
 26 14  1  0  0  0  0
 27 14  1  0  0  0  0
 29 15  1  0  0  0  0
 33 18  1  0  0  0  0
 34 19  1  0  0  0  0
M  END
$$$$
