rmsd242.gzmat
 OpenBabel08211713393D

 34 35  0  0  0  0  0  0  0  0999 V2000
    0.0000    0.0000    0.0000 Br  0  0  0  0  0  0  0  0  0  0  0  0
    1.8889    0.0000    0.0000 C   0  0  0  0  0  0  0  0  0  0  0  0
    2.5772    0.0000    1.2201 C   0  0  0  0  0  0  0  0  0  0  0  0
    1.7641   -0.0176    2.3131 O   0  0  0  0  0  0  0  0  0  0  0  0
    2.3418    0.2983    3.5669 C   0  0  0  0  0  0  0  0  0  0  0  0
    2.7903    1.7504    3.6622 C   0  0  0  0  0  0  0  0  0  0  0  0
    3.4603    2.0976    4.6028 O   0  0  0  0  0  0  0  0  0  0  0  0
    2.3982    2.6607    2.5706 C   0  0  0  0  0  0  0  0  0  0  0  0
    3.3709    3.4800    1.9954 C   0  0  0  0  0  0  0  0  0  0  0  0
    3.0403    4.2917    0.9144 C   0  0  0  0  0  0  0  0  0  0  0  0
    1.7342    4.2997    0.4186 C   0  0  0  0  0  0  0  0  0  0  0  0
    0.7542    3.5082    1.0253 C   0  0  0  0  0  0  0  0  0  0  0  0
    1.0837    2.6913    2.1009 C   0  0  0  0  0  0  0  0  0  0  0  0
    1.3755    5.1578   -0.7564 C   0  0  0  0  0  0  0  0  0  0  0  0
    0.6251    6.4066   -0.2864 C   0  0  0  0  0  0  0  0  0  0  0  0
    3.9718   -0.0006    1.2432 C   0  0  0  0  0  0  0  0  0  0  0  0
    4.6643    0.0117    0.0340 C   0  0  0  0  0  0  0  0  0  0  0  0
    3.9795    0.0229   -1.1793 C   0  0  0  0  0  0  0  0  0  0  0  0
    2.5835    0.0132   -1.1992 C   0  0  0  0  0  0  0  0  0  0  0  0
    3.1593   -0.4007    3.8191 H   0  0  0  0  0  0  0  0  0  0  0  0
    1.4914    0.1051    4.2570 H   0  0  0  0  0  0  0  0  0  0  0  0
    4.3881    3.4769    2.3903 H   0  0  0  0  0  0  0  0  0  0  0  0
    3.8014    4.9198    0.4567 H   0  0  0  0  0  0  0  0  0  0  0  0
   -0.2668    3.5230    0.6480 H   0  0  0  0  0  0  0  0  0  0  0  0
    0.3193    2.0670    2.5663 H   0  0  0  0  0  0  0  0  0  0  0  0
    0.7523    4.5854   -1.4749 H   0  0  0  0  0  0  0  0  0  0  0  0
    2.2790    5.4527   -1.3272 H   0  0  0  0  0  0  0  0  0  0  0  0
   -0.3015    6.1435    0.2377 H   0  0  0  0  0  0  0  0  0  0  0  0
    0.3584    7.0526   -1.1296 H   0  0  0  0  0  0  0  0  0  0  0  0
    1.2338    6.9993    0.4074 H   0  0  0  0  0  0  0  0  0  0  0  0
    4.5191   -0.0063    2.1814 H   0  0  0  0  0  0  0  0  0  0  0  0
    5.7551    0.0160    0.0405 H   0  0  0  0  0  0  0  0  0  0  0  0
    4.5315    0.0398   -2.1163 H   0  0  0  0  0  0  0  0  0  0  0  0
    2.0557    0.0201   -2.1541 H   0  0  0  0  0  0  0  0  0  0  0  0
  1  2  1  0  0  0  0
  2  3  2  0  0  0  0
  3 16  1  0  0  0  0
  3  4  1  0  0  0  0
  4  5  1  0  0  0  0
  5  6  1  0  0  0  0
  5 20  1  0  0  0  0
  5 21  1  0  0  0  0
  6  7  2  0  0  0  0
  8  6  1  0  0  0  0
  9 22  1  0  0  0  0
  9  8  2  0  0  0  0
 10  9  1  0  0  0  0
 11 10  2  0  0  0  0
 11 12  1  0  0  0  0
 12 13  2  0  0  0  0
 13 25  1  0  0  0  0
 13  8  1  0  0  0  0
 14 15  1  0  0  0  0
 14 11  1  0  0  0  0
 15 28  1  0  0  0  0
 15 30  1  0  0  0  0
 16 31  1  0  0  0  0
 17 32  1  0  0  0  0
 17 16  2  0  0  0  0
 18 17  1  0  0  0  0
 19 18  2  0  0  0  0
 19  2  1  0  0  0  0
 23 10  1  0  0  0  0
 24 12  1  0  0  0  0
 26 14  1  0  0  0  0
 27 14  1  0  0  0  0
 29 15  1  0  0  0  0
 33 18  1  0  0  0  0
 34 19  1  0  0  0  0
M  END
$$$$
