34
rmsd156.gzmat
Br         0.00000        0.00000        0.00000
C          1.88900        0.00000        0.00000
C          2.57600        0.00000        1.22080
O          1.76070        0.01760        2.31200
C          2.33620       -0.29180        3.56830
C          2.82000       -1.73260        3.66010
O          3.50160       -2.06410        4.59830
C          2.45310       -2.64790        2.56380
C          3.45100       -3.43420        1.98520
C          3.14930       -4.23950        0.89180
C          1.84650       -4.27680        0.38800
C          0.84090       -3.52500        1.00210
C          1.14260       -2.71030        2.08810
C          1.52230       -5.12640       -0.80290
C          0.96120       -6.47540       -0.34640
C          3.97060       -0.00060        1.24580
C          4.66440       -0.01470        0.03730
C          3.98070       -0.02640       -1.17660
C          2.58480       -0.01530       -1.19830
H          1.47610       -0.12190        4.25260
H          3.13500        0.42590        3.82920
H          4.46490       -3.40870        2.38790
H          3.92960       -4.83940        0.42920
H         -0.17820       -3.56710        0.62220
H          0.35880       -2.11240        2.55610
H          2.41970       -5.28400       -1.43490
H          0.79110       -4.61210       -1.46010
H          1.66960       -7.00060        0.30530
H          0.74740       -7.12690       -1.20020
H          0.03050       -6.35000        0.22020
H          4.51660        0.00360        2.18500
H          5.75510       -0.01880        0.04460
H          4.53390       -0.04570       -2.11270
H          2.05800       -0.02250       -2.15360
