34
rmsd107.gzmat
Br         0.00000        0.00000        0.00000
C          1.88910        0.00000        0.00000
C          2.57560        0.00000        1.22140
O          1.75750       -0.02240        2.30990
C          2.33170        0.24500        3.57600
C          2.80110        1.68560        3.72370
O          3.41830        2.00340        4.70980
C          2.49850        2.61860        2.62250
C          1.20880        2.71120        2.09650
C          0.96620        3.54200        1.00800
C          2.00920        4.28180        0.44350
C          3.29050        4.21280        0.99640
C          3.53380        3.38990        2.09170
C          1.74460        5.15560       -0.74480
C          1.13960        6.48570       -0.28790
C          3.97000        0.01050        1.24650
C          4.66370        0.03520        0.03800
C          3.98050        0.04010       -1.17640
C          2.58510        0.01710       -1.19820
H          3.13670       -0.47430        3.81180
H          1.47260        0.04210        4.25350
H          0.39590        2.12400        2.52680
H         -0.03600        3.60680        0.58830
H          4.09970        4.80200        0.57090
H          4.53070        3.33990        2.53210
H          1.05910        4.64850       -1.45510
H          2.67450        5.33920       -1.31990
H          0.18880        6.33170        0.23720
H          0.94770        7.14960       -1.13760
H          1.81030        7.01220        0.40220
H          4.51590        0.00900        2.18520
H          5.75420        0.05220        0.04640
H          4.53300        0.06210       -2.11290
H          2.05880        0.01760       -2.15430
