34
rmsd242.gzmat
Br         0.00000        0.00000        0.00000
C          1.88890        0.00000        0.00000
C          2.57720        0.00000        1.22010
O          1.76410       -0.01760        2.31310
C          2.34180        0.29830        3.56690
C          2.79030        1.75040        3.66220
O          3.46030        2.09760        4.60280
C          2.39820        2.66070        2.57060
C          3.37090        3.48000        1.99540
C          3.04030        4.29170        0.91440
C          1.73420        4.29970        0.41860
C          0.75420        3.50820        1.02530
C          1.08370        2.69130        2.10090
C          1.37550        5.15780       -0.75640
C          0.62510        6.40660       -0.28640
C          3.97180       -0.00060        1.24320
C          4.66430        0.01170        0.03400
C          3.97950        0.02290       -1.17930
C          2.58350        0.01320       -1.19920
H          3.15930       -0.40070        3.81910
H          1.49140        0.10510        4.25700
H          4.38810        3.47690        2.39030
H          3.80140        4.91980        0.45670
H         -0.26680        3.52300        0.64800
H          0.31930        2.06700        2.56630
H          0.75230        4.58540       -1.47490
H          2.27900        5.45270       -1.32720
H         -0.30150        6.14350        0.23770
H          0.35840        7.05260       -1.12960
H          1.23380        6.99930        0.40740
H          4.51910       -0.00630        2.18140
H          5.75510        0.01600        0.04050
H          4.53150        0.03980       -2.11630
H          2.05570        0.02010       -2.15410
