34
rmsd93.gzmat
Br         0.00000        0.00000        0.00000
C          1.88900        0.00000        0.00000
C          2.57870        0.00000        1.21860
O          1.77130        0.03120        2.31610
C          2.34910       -0.34620        3.55400
C          2.76970       -1.80980        3.57190
O          3.55890       -2.18700        4.40240
C          2.19670       -2.69680        2.54330
C          3.03660       -3.60020        1.88990
C          2.52700       -4.41780        0.88570
C          1.17360       -4.34930        0.54640
C          0.33160       -3.45880        1.21910
C          0.84080       -2.63340        2.21510
C          0.61430       -5.23890       -0.52230
C         -0.13100       -6.41380        0.11660
C          3.97350       -0.00440        1.24060
C          4.66500       -0.01090        0.03100
C          3.97870       -0.01760       -1.18150
C          2.58310       -0.01070       -1.19980
H          1.50830       -0.16880        4.25870
H          3.18150        0.32670        3.82760
H          4.09040       -3.66030        2.16710
H          3.18410       -5.11360        0.36930
H         -0.72410       -3.40710        0.95950
H          0.18220       -1.93340        2.73110
H          1.41460       -5.61840       -1.18860
H         -0.06960       -4.66760       -1.18350
H          0.52390       -6.98290        0.78750
H         -0.51090       -7.10600       -0.64250
H         -0.98520       -6.06870        0.71130
H          4.52200       -0.00450        2.17820
H          5.75560       -0.01290        0.03730
H          4.52990       -0.02780       -2.11910
H          2.05470       -0.01590       -2.15460
