rmsd131.gzmat
 OpenBabel08211713393D

 34 35  0  0  0  0  0  0  0  0999 V2000
    0.0000    0.0000    0.0000 Br  0  0  0  0  0  0  0  0  0  0  0  0
    1.8891    0.0000    0.0000 C   0  0  0  0  0  0  0  0  0  0  0  0
    2.5770    0.0000    1.2203 C   0  0  0  0  0  0  0  0  0  0  0  0
    1.7633   -0.0250    2.3121 O   0  0  0  0  0  0  0  0  0  0  0  0
    2.3454    0.2653    3.5702 C   0  0  0  0  0  0  0  0  0  0  0  0
    2.8212    1.7074    3.6801 C   0  0  0  0  0  0  0  0  0  0  0  0
    3.5421    2.0186    4.5960 O   0  0  0  0  0  0  0  0  0  0  0  0
    2.3946    2.6550    2.6345 C   0  0  0  0  0  0  0  0  0  0  0  0
    1.0746    2.6794    2.1797 C   0  0  0  0  0  0  0  0  0  0  0  0
    0.7131    3.5470    1.1555 C   0  0  0  0  0  0  0  0  0  0  0  0
    1.6655    4.3979    0.5860 C   0  0  0  0  0  0  0  0  0  0  0  0
    2.9796    4.3859    1.0597 C   0  0  0  0  0  0  0  0  0  0  0  0
    3.3425    3.5214    2.0880 C   0  0  0  0  0  0  0  0  0  0  0  0
    1.2692    5.3230   -0.5245 C   0  0  0  0  0  0  0  0  0  0  0  0
    0.3347    6.4156    0.0010 C   0  0  0  0  0  0  0  0  0  0  0  0
    3.9713    0.0076    1.2449 C   0  0  0  0  0  0  0  0  0  0  0  0
    4.6649    0.0225    0.0362 C   0  0  0  0  0  0  0  0  0  0  0  0
    3.9809    0.0272   -1.1776 C   0  0  0  0  0  0  0  0  0  0  0  0
    2.5850    0.0132   -1.1985 C   0  0  0  0  0  0  0  0  0  0  0  0
    3.1498   -0.4521    3.8131 H   0  0  0  0  0  0  0  0  0  0  0  0
    1.4915    0.0798    4.2578 H   0  0  0  0  0  0  0  0  0  0  0  0
    0.3295    2.0135    2.6181 H   0  0  0  0  0  0  0  0  0  0  0  0
   -0.3123    3.5577    0.7901 H   0  0  0  0  0  0  0  0  0  0  0  0
    3.7220    5.0535    0.6281 H   0  0  0  0  0  0  0  0  0  0  0  0
    4.3660    3.5158    2.4665 H   0  0  0  0  0  0  0  0  0  0  0  0
    0.7724    4.7519   -1.3368 H   0  0  0  0  0  0  0  0  0  0  0  0
    2.1582    5.7862   -0.9973 H   0  0  0  0  0  0  0  0  0  0  0  0
   -0.5963    5.9924    0.3970 H   0  0  0  0  0  0  0  0  0  0  0  0
    0.0667    7.1250   -0.7894 H   0  0  0  0  0  0  0  0  0  0  0  0
    0.8050    6.9840    0.8128 H   0  0  0  0  0  0  0  0  0  0  0  0
    4.5180    0.0064    2.1835 H   0  0  0  0  0  0  0  0  0  0  0  0
    5.7555    0.0315    0.0440 H   0  0  0  0  0  0  0  0  0  0  0  0
    4.5340    0.0417   -2.1140 H   0  0  0  0  0  0  0  0  0  0  0  0
    2.0586    0.0163   -2.1542 H   0  0  0  0  0  0  0  0  0  0  0  0
  2  1  1  0  0  0  0
  2  3  2  0  0  0  0
  3 16  1  0  0  0  0
  3  4  1  0  0  0  0
  4  5  1  0  0  0  0
  5  6  1  0  0  0  0
  5 20  1  0  0  0  0
  5 21  1  0  0  0  0
  6  7  2  0  0  0  0
  8  6  1  0  0  0  0
  9 22  1  0  0  0  0
  9  8  1  0  0  0  0
 10  9  2  0  0  0  0
 11 12  2  0  0  0  0
 11 10  1  0  0  0  0
 12 13  1  0  0  0  0
 13 25  1  0  0  0  0
 13  8  2  0  0  0  0
 14 15  1  0  0  0  0
 14 11  1  0  0  0  0
 15 28  1  0  0  0  0
 15 30  1  0  0  0  0
 16 31  1  0  0  0  0
 17 32  1  0  0  0  0
 17 16  2  0  0  0  0
 18 17  1  0  0  0  0
 19 18  2  0  0  0  0
 19  2  1  0  0  0  0
 23 10  1  0  0  0  0
 24 12  1  0  0  0  0
 26 14  1  0  0  0  0
 27 14  1  0  0  0  0
 29 15  1  0  0  0  0
 33 18  1  0  0  0  0
 34 19  1  0  0  0  0
M  END
$$$$
