
     RDKit          3D

 55 57  0  0  0  0  0  0  0  0999 V2000
   -0.1235    0.0792   -0.0436 O   0  0  0  0  0  0  0  0  0  0  0  0
    1.2396    0.1744   -0.3098 C   0  0  2  0  0  0  0  0  0  0  0  0
    1.8217    0.3939    0.6080 H   0  0  0  0  0  0  0  0  0  0  0  0
    1.6917    1.0713   -1.4835 C   0  0  0  0  0  0  0  0  0  0  0  0
    1.5878    2.2401   -1.7757 O   0  0  0  0  0  0  0  0  0  0  0  0
    2.3037    0.0033   -2.1036 N   0  0  0  0  0  0  0  0  0  0  0  0
    1.8359   -1.0062   -1.1376 C   0  0  2  0  0  0  0  0  0  0  0  0
    2.6749   -1.5313   -0.6494 H   0  0  0  0  0  0  0  0  0  0  0  0
    0.7791   -2.0141   -1.6023 C   0  0  1  0  0  0  0  0  0  0  0  0
   -0.0815   -1.4495   -1.9783 H   0  0  0  0  0  0  0  0  0  0  0  0
    1.2472   -2.9336   -2.6491 N   0  0  0  0  0  0  0  0  0  0  0  0
    1.3657   -4.2998   -2.1439 C   0  0  0  0  0  0  0  0  0  0  0  0
    0.2965   -4.3496   -1.0496 C   0  0  0  0  0  0  0  0  0  0  0  0
    0.3758   -2.9468   -0.4316 C   0  0  0  0  0  0  0  0  0  0  0  0
    1.0420   -2.7185   -3.9919 C   0  0  0  0  0  0  0  0  0  0  0  0
    1.2176   -3.5664   -4.8455 O   0  0  0  0  0  0  0  0  0  0  0  0
    0.6343   -1.4567   -4.2055 O   0  0  0  0  0  0  0  0  0  0  0  0
    0.3323   -0.9496   -5.5452 C   0  0  0  0  0  0  0  0  0  0  0  0
   -0.0508    0.5037   -5.2740 C   0  0  0  0  0  0  0  0  0  0  0  0
    1.5714   -1.0286   -6.4372 C   0  0  0  0  0  0  0  0  0  0  0  0
   -0.8469   -1.7299   -6.1282 C   0  0  0  0  0  0  0  0  0  0  0  0
    3.2342   -0.0629   -3.1487 C   0  0  0  0  0  0  0  0  0  0  0  0
    3.5451    1.0976   -3.8854 C   0  0  0  0  0  0  0  0  0  0  0  0
    4.4828    1.0408   -4.9081 C   0  0  0  0  0  0  0  0  0  0  0  0
    5.1308   -0.1647   -5.2274 C   0  0  0  0  0  0  0  0  0  0  0  0
    6.0182   -0.1183   -6.2543 O   0  0  0  0  0  0  0  0  0  0  0  0
    6.6695   -1.3050   -6.6406 C   0  0  0  0  0  0  0  0  0  0  0  0
    4.8269   -1.3165   -4.4900 C   0  0  0  0  0  0  0  0  0  0  0  0
    3.8870   -1.2605   -3.4571 C   0  0  0  0  0  0  0  0  0  0  0  0
   -0.6613    1.2398    0.5596 C   0  0  0  0  0  0  0  0  0  0  0  0
    1.2171   -5.0070   -2.9689 H   0  0  0  0  0  0  0  0  0  0  0  0
    2.3731   -4.4755   -1.7221 H   0  0  0  0  0  0  0  0  0  0  0  0
   -0.6909   -4.5102   -1.5125 H   0  0  0  0  0  0  0  0  0  0  0  0
    0.4617   -5.1537   -0.3173 H   0  0  0  0  0  0  0  0  0  0  0  0
   -0.5563   -2.6111    0.0397 H   0  0  0  0  0  0  0  0  0  0  0  0
    1.1561   -2.9250    0.3479 H   0  0  0  0  0  0  0  0  0  0  0  0
   -0.9193    0.5554   -4.6003 H   0  0  0  0  0  0  0  0  0  0  0  0
   -0.3080    1.0094   -6.2166 H   0  0  0  0  0  0  0  0  0  0  0  0
    0.7836    1.0420   -4.8027 H   0  0  0  0  0  0  0  0  0  0  0  0
    1.8695   -2.0708   -6.6017 H   0  0  0  0  0  0  0  0  0  0  0  0
    2.4086   -0.4852   -5.9802 H   0  0  0  0  0  0  0  0  0  0  0  0
    1.3484   -0.5626   -7.4094 H   0  0  0  0  0  0  0  0  0  0  0  0
   -0.5750   -2.7796   -6.2965 H   0  0  0  0  0  0  0  0  0  0  0  0
   -1.1496   -1.2824   -7.0872 H   0  0  0  0  0  0  0  0  0  0  0  0
   -1.7083   -1.6883   -5.4433 H   0  0  0  0  0  0  0  0  0  0  0  0
    3.0435    2.0330   -3.6399 H   0  0  0  0  0  0  0  0  0  0  0  0
    4.7299    1.9305   -5.4900 H   0  0  0  0  0  0  0  0  0  0  0  0
    7.3207   -1.0462   -7.4860 H   0  0  0  0  0  0  0  0  0  0  0  0
    5.9515   -2.0803   -6.9644 H   0  0  0  0  0  0  0  0  0  0  0  0
    7.2902   -1.7183   -5.8246 H   0  0  0  0  0  0  0  0  0  0  0  0
    5.3020   -2.2708   -4.7133 H   0  0  0  0  0  0  0  0  0  0  0  0
    3.6448   -2.1691   -2.9081 H   0  0  0  0  0  0  0  0  0  0  0  0
   -1.7341    1.0594    0.7137 H   0  0  0  0  0  0  0  0  0  0  0  0
   -0.5254    2.1284   -0.0795 H   0  0  0  0  0  0  0  0  0  0  0  0
   -0.1865    1.4370    1.5408 H   0  0  0  0  0  0  0  0  0  0  0  0
  1  2  1  0
  1 30  1  0
  2  3  1  1
  2  4  1  0
  2  7  1  0
  4  5  2  0
  4  6  1  0
  6  7  1  0
  6 22  1  0
  7  8  1  1
  7  9  1  0
  9 10  1  6
  9 11  1  0
  9 14  1  0
 11 12  1  0
 11 15  1  0
 12 13  1  0
 12 31  1  0
 12 32  1  0
 13 14  1  0
 13 33  1  0
 13 34  1  0
 14 35  1  0
 14 36  1  0
 15 16  2  0
 15 17  1  0
 18 17  1  0
 18 19  1  0
 18 20  1  0
 18 21  1  0
 19 37  1  0
 19 38  1  0
 19 39  1  0
 20 40  1  0
 20 41  1  0
 20 42  1  0
 21 43  1  0
 21 44  1  0
 21 45  1  0
 22 23  2  0
 22 29  1  0
 23 24  1  0
 23 46  1  0
 24 25  2  0
 24 47  1  0
 25 26  1  0
 25 28  1  0
 26 27  1  0
 27 48  1  0
 27 49  1  0
 27 50  1  0
 28 29  2  0
 28 51  1  0
 29 52  1  0
 30 53  1  0
 30 54  1  0
 30 55  1  0
M  END

