rmsd145.gzmat
 OpenBabel08211713403D

 55 57  0  0  1  0  0  0  0  0999 V2000
    0.0000    0.0000    0.0000 O   0  0  0  0  0  0  0  0  0  0  0  0
    1.3907    0.0000    0.0000 C   0  0  2  0  0  0  0  0  0  0  0  0
    1.8306    0.0000    1.0044 H   0  0  0  0  0  0  0  0  0  0  0  0
    1.9889    1.0551   -0.9999 C   0  0  0  0  0  0  0  0  0  0  0  0
    2.0380    2.2403   -1.1013 O   0  0  0  0  0  0  0  0  0  0  0  0
    2.5054    0.0243   -1.8006 N   0  0  0  0  0  0  0  0  0  0  0  0
    1.9406   -1.0988   -0.9883 C   0  0  2  0  0  0  0  0  0  0  0  0
    2.7476   -1.7226   -0.5340 H   0  0  0  0  0  0  0  0  0  0  0  0
    0.9269   -1.9851   -1.7361 C   0  0  1  0  0  0  0  0  0  0  0  0
    1.5057   -2.7302   -2.3522 H   0  0  0  0  0  0  0  0  0  0  0  0
    0.0691   -2.7822   -0.8304 N   0  0  0  0  0  0  0  0  0  0  0  0
   -1.3645   -2.5010   -1.0655 C   0  0  0  0  0  0  0  0  0  0  0  0
   -1.4181   -1.8660   -2.4666 C   0  0  0  0  0  0  0  0  0  0  0  0
   -0.0454   -1.1999   -2.6488 C   0  0  0  0  0  0  0  0  0  0  0  0
    0.5050   -3.1170    0.4374 C   0  0  0  0  0  0  0  0  0  0  0  0
    1.6710   -3.1566    0.7795 O   0  0  0  0  0  0  0  0  0  0  0  0
   -0.5515   -3.4858    1.2044 O   0  0  0  0  0  0  0  0  0  0  0  0
   -0.3069   -4.0688    2.5046 C   0  0  0  0  0  0  0  0  0  0  0  0
   -1.7430   -4.3432    2.9686 C   0  0  0  0  0  0  0  0  0  0  0  0
    0.4939   -5.3546    2.3413 C   0  0  0  0  0  0  0  0  0  0  0  0
    0.3882   -3.0451    3.3952 C   0  0  0  0  0  0  0  0  0  0  0  0
    3.1719   -0.0192   -3.0241 C   0  0  0  0  0  0  0  0  0  0  0  0
    3.3537    1.1612   -3.7587 C   0  0  0  0  0  0  0  0  0  0  0  0
    4.0235    1.1230   -4.9776 C   0  0  0  0  0  0  0  0  0  0  0  0
    4.5024   -0.0977   -5.4499 C   0  0  0  0  0  0  0  0  0  0  0  0
    5.1693   -0.2923   -6.6228 O   0  0  0  0  0  0  0  0  0  0  0  0
    5.4181    0.8561   -7.4195 C   0  0  0  0  0  0  0  0  0  0  0  0
    4.3313   -1.2856   -4.7222 C   0  0  0  0  0  0  0  0  0  0  0  0
    3.6707   -1.2435   -3.5060 C   0  0  0  0  0  0  0  0  0  0  0  0
   -0.5491    0.9461    0.9079 C   0  0  0  0  0  0  0  0  0  0  0  0
   -1.9278   -3.4548   -1.0035 H   0  0  0  0  0  0  0  0  0  0  0  0
   -1.7735   -1.8151   -0.2930 H   0  0  0  0  0  0  0  0  0  0  0  0
   -1.5910   -2.6330   -3.2411 H   0  0  0  0  0  0  0  0  0  0  0  0
   -2.2393   -1.1381   -2.5514 H   0  0  0  0  0  0  0  0  0  0  0  0
    0.2900   -1.2217   -3.6978 H   0  0  0  0  0  0  0  0  0  0  0  0
   -0.0926   -0.1328   -2.3628 H   0  0  0  0  0  0  0  0  0  0  0  0
   -2.3249   -3.4155    3.0242 H   0  0  0  0  0  0  0  0  0  0  0  0
   -1.7519   -4.8121    3.9569 H   0  0  0  0  0  0  0  0  0  0  0  0
   -2.2632   -5.0087    2.2689 H   0  0  0  0  0  0  0  0  0  0  0  0
    1.5280   -5.1440    2.0264 H   0  0  0  0  0  0  0  0  0  0  0  0
    0.0541   -6.0030    1.5747 H   0  0  0  0  0  0  0  0  0  0  0  0
    0.5426   -5.9187    3.2769 H   0  0  0  0  0  0  0  0  0  0  0  0
    1.4278   -2.8773    3.0735 H   0  0  0  0  0  0  0  0  0  0  0  0
    0.4151   -3.3767    4.4371 H   0  0  0  0  0  0  0  0  0  0  0  0
   -0.1209   -2.0762    3.3585 H   0  0  0  0  0  0  0  0  0  0  0  0
    2.9738    2.1092   -3.3725 H   0  0  0  0  0  0  0  0  0  0  0  0
    4.1631    2.0413   -5.5398 H   0  0  0  0  0  0  0  0  0  0  0  0
    5.9744    0.4347   -8.2675 H   0  0  0  0  0  0  0  0  0  0  0  0
    6.0359    1.5820   -6.8816 H   0  0  0  0  0  0  0  0  0  0  0  0
    4.4798    1.3028   -7.7626 H   0  0  0  0  0  0  0  0  0  0  0  0
    4.7239   -2.2194   -5.1185 H   0  0  0  0  0  0  0  0  0  0  0  0
    3.5510   -2.1538   -2.9214 H   0  0  0  0  0  0  0  0  0  0  0  0
   -1.6260    0.8665    0.7162 H   0  0  0  0  0  0  0  0  0  0  0  0
   -0.1950    1.9586    0.6820 H   0  0  0  0  0  0  0  0  0  0  0  0
   -0.3212    0.6674    1.9405 H   0  0  0  0  0  0  0  0  0  0  0  0
  1  2  1  0  0  0  0
  1 30  1  0  0  0  0
  2  7  1  0  0  0  0
  2  3  1  1  0  0  0
  4  2  1  0  0  0  0
  5  4  2  0  0  0  0
  6  4  1  0  0  0  0
  6  7  1  0  0  0  0
  7  8  1  1  0  0  0
  9 10  1  6  0  0  0
  9  7  1  0  0  0  0
  9 11  1  0  0  0  0
 11 15  1  0  0  0  0
 12 31  1  0  0  0  0
 12 11  1  0  0  0  0
 12 32  1  0  0  0  0
 13 12  1  0  0  0  0
 14 13  1  0  0  0  0
 14 36  1  0  0  0  0
 14  9  1  0  0  0  0
 15 16  2  0  0  0  0
 15 17  1  0  0  0  0
 17 18  1  0  0  0  0
 18 19  1  0  0  0  0
 18 21  1  0  0  0  0
 19 37  1  0  0  0  0
 19 38  1  0  0  0  0
 20 18  1  0  0  0  0
 20 42  1  0  0  0  0
 21 44  1  0  0  0  0
 22  6  1  0  0  0  0
 23 46  1  0  0  0  0
 23 22  2  0  0  0  0
 24 23  1  0  0  0  0
 25 24  2  0  0  0  0
 25 28  1  0  0  0  0
 26 25  1  0  0  0  0
 27 49  1  0  0  0  0
 27 26  1  0  0  0  0
 28 29  2  0  0  0  0
 29 22  1  0  0  0  0
 29 52  1  0  0  0  0
 30 55  1  0  0  0  0
 33 13  1  0  0  0  0
 34 13  1  0  0  0  0
 35 14  1  0  0  0  0
 39 19  1  0  0  0  0
 40 20  1  0  0  0  0
 41 20  1  0  0  0  0
 43 21  1  0  0  0  0
 45 21  1  0  0  0  0
 47 24  1  0  0  0  0
 48 27  1  0  0  0  0
 50 27  1  0  0  0  0
 51 28  1  0  0  0  0
 53 30  1  0  0  0  0
 54 30  1  0  0  0  0
M  END
$$$$
