rmsd38.gzmat
 OpenBabel08211713403D

 55 57  0  0  1  0  0  0  0  0999 V2000
    0.0000    0.0000    0.0000 O   0  0  0  0  0  0  0  0  0  0  0  0
    1.3925    0.0000    0.0000 C   0  0  2  0  0  0  0  0  0  0  0  0
    1.8150    0.0000    1.0091 H   0  0  0  0  0  0  0  0  0  0  0  0
    2.0292    1.0339   -0.9939 C   0  0  0  0  0  0  0  0  0  0  0  0
    2.1001    2.2201   -1.0850 O   0  0  0  0  0  0  0  0  0  0  0  0
    2.5403   -0.0053   -1.7751 N   0  0  0  0  0  0  0  0  0  0  0  0
    1.9141   -1.1171   -0.9910 C   0  0  2  0  0  0  0  0  0  0  0  0
    2.6660   -1.8103   -0.5721 H   0  0  0  0  0  0  0  0  0  0  0  0
    0.7726   -1.8606   -1.7118 C   0  0  1  0  0  0  0  0  0  0  0  0
    0.1189   -1.1125   -2.2332 H   0  0  0  0  0  0  0  0  0  0  0  0
    1.3581   -2.8235   -2.6657 N   0  0  0  0  0  0  0  0  0  0  0  0
    1.3471   -4.1828   -2.0821 C   0  0  0  0  0  0  0  0  0  0  0  0
    0.2987   -4.1738   -0.9516 C   0  0  0  0  0  0  0  0  0  0  0  0
   -0.0482   -2.6974   -0.6974 C   0  0  0  0  0  0  0  0  0  0  0  0
    1.0508   -2.7218   -4.0277 C   0  0  0  0  0  0  0  0  0  0  0  0
    1.1780   -3.6339   -4.8153 O   0  0  0  0  0  0  0  0  0  0  0  0
    0.6841   -1.4580   -4.3223 O   0  0  0  0  0  0  0  0  0  0  0  0
    0.4923   -1.0599   -5.7026 C   0  0  0  0  0  0  0  0  0  0  0  0
    0.2883    0.4481   -5.5242 C   0  0  0  0  0  0  0  0  0  0  0  0
    1.7357   -1.3710   -6.5204 C   0  0  0  0  0  0  0  0  0  0  0  0
   -0.7553   -1.7589   -6.2310 C   0  0  0  0  0  0  0  0  0  0  0  0
    3.3276   -0.0404   -2.9280 C   0  0  0  0  0  0  0  0  0  0  0  0
    3.4966    1.1373   -3.6804 C   0  0  0  0  0  0  0  0  0  0  0  0
    4.2856    1.1172   -4.8182 C   0  0  0  0  0  0  0  0  0  0  0  0
    4.9026   -0.0833   -5.2034 C   0  0  0  0  0  0  0  0  0  0  0  0
    5.6369    0.0419   -6.3463 O   0  0  0  0  0  0  0  0  0  0  0  0
    6.1755   -1.1531   -6.8931 C   0  0  0  0  0  0  0  0  0  0  0  0
    4.7529   -1.2522   -4.4600 C   0  0  0  0  0  0  0  0  0  0  0  0
    3.9635   -1.2272   -3.3142 C   0  0  0  0  0  0  0  0  0  0  0  0
   -0.5544    1.1474    0.6292 C   0  0  0  0  0  0  0  0  0  0  0  0
    1.1343   -4.9553   -2.8515 H   0  0  0  0  0  0  0  0  0  0  0  0
    2.3672   -4.3863   -1.6905 H   0  0  0  0  0  0  0  0  0  0  0  0
   -0.5992   -4.7446   -1.2422 H   0  0  0  0  0  0  0  0  0  0  0  0
    0.6899   -4.6575   -0.0431 H   0  0  0  0  0  0  0  0  0  0  0  0
   -1.1266   -2.5096   -0.8359 H   0  0  0  0  0  0  0  0  0  0  0  0
    0.1675   -2.4037    0.3430 H   0  0  0  0  0  0  0  0  0  0  0  0
   -0.5539    0.6613   -4.8557 H   0  0  0  0  0  0  0  0  0  0  0  0
    0.1000    0.9355   -6.4847 H   0  0  0  0  0  0  0  0  0  0  0  0
    1.1787    0.9114   -5.0737 H   0  0  0  0  0  0  0  0  0  0  0  0
    1.8452   -2.4500   -6.7017 H   0  0  0  0  0  0  0  0  0  0  0  0
    2.6441   -1.0435   -5.9944 H   0  0  0  0  0  0  0  0  0  0  0  0
    1.7148   -0.8689   -7.4919 H   0  0  0  0  0  0  0  0  0  0  0  0
   -0.6060   -2.8479   -6.2818 H   0  0  0  0  0  0  0  0  0  0  0  0
   -1.0081   -1.4131   -7.2381 H   0  0  0  0  0  0  0  0  0  0  0  0
   -1.6195   -1.5793   -5.5819 H   0  0  0  0  0  0  0  0  0  0  0  0
    3.0093    2.0610   -3.3624 H   0  0  0  0  0  0  0  0  0  0  0  0
    4.4333    2.0145   -5.4153 H   0  0  0  0  0  0  0  0  0  0  0  0
    6.6361   -0.7971   -7.8239 H   0  0  0  0  0  0  0  0  0  0  0  0
    5.3854   -1.8788   -7.1119 H   0  0  0  0  0  0  0  0  0  0  0  0
    6.9354   -1.5754   -6.2289 H   0  0  0  0  0  0  0  0  0  0  0  0
    5.2333   -2.1795   -4.7561 H   0  0  0  0  0  0  0  0  0  0  0  0
    3.8277   -2.1368   -2.7296 H   0  0  0  0  0  0  0  0  0  0  0  0
   -1.6319    1.0053    0.4783 H   0  0  0  0  0  0  0  0  0  0  0  0
   -0.2163    2.0672    0.1353 H   0  0  0  0  0  0  0  0  0  0  0  0
   -0.3109    1.1624    1.6949 H   0  0  0  0  0  0  0  0  0  0  0  0
  1  2  1  0  0  0  0
  1 30  1  0  0  0  0
  2  7  1  0  0  0  0
  2  3  1  1  0  0  0
  4  2  1  0  0  0  0
  5  4  2  0  0  0  0
  6  4  1  0  0  0  0
  6  7  1  0  0  0  0
  7  8  1  1  0  0  0
  9 10  1  6  0  0  0
  9  7  1  0  0  0  0
  9 14  1  0  0  0  0
 11 12  1  0  0  0  0
 11  9  1  0  0  0  0
 12 32  1  0  0  0  0
 12 13  1  0  0  0  0
 13 14  1  0  0  0  0
 13 34  1  0  0  0  0
 14 36  1  0  0  0  0
 15 11  1  0  0  0  0
 16 15  2  0  0  0  0
 17 15  1  0  0  0  0
 18 19  1  0  0  0  0
 18 17  1  0  0  0  0
 19 39  1  0  0  0  0
 19 37  1  0  0  0  0
 20 41  1  0  0  0  0
 20 18  1  0  0  0  0
 21 18  1  0  0  0  0
 21 45  1  0  0  0  0
 22  6  1  0  0  0  0
 23 46  1  0  0  0  0
 23 22  2  0  0  0  0
 24 23  1  0  0  0  0
 25 24  2  0  0  0  0
 25 28  1  0  0  0  0
 26 25  1  0  0  0  0
 27 26  1  0  0  0  0
 27 50  1  0  0  0  0
 28 29  2  0  0  0  0
 29 22  1  0  0  0  0
 29 52  1  0  0  0  0
 30 55  1  0  0  0  0
 31 12  1  0  0  0  0
 33 13  1  0  0  0  0
 35 14  1  0  0  0  0
 38 19  1  0  0  0  0
 40 20  1  0  0  0  0
 42 20  1  0  0  0  0
 43 21  1  0  0  0  0
 44 21  1  0  0  0  0
 47 24  1  0  0  0  0
 48 27  1  0  0  0  0
 49 27  1  0  0  0  0
 51 28  1  0  0  0  0
 53 30  1  0  0  0  0
 54 30  1  0  0  0  0
M  END
$$$$
