55

O         -0.12350        0.07920       -0.04360
C          1.23960        0.17440       -0.30980
H          1.82170        0.39390        0.60800
C          1.69170        1.07130       -1.48350
O          1.58780        2.24010       -1.77570
N          2.30370        0.00330       -2.10360
C          1.83590       -1.00620       -1.13760
H          2.67490       -1.53130       -0.64940
C          0.77910       -2.01410       -1.60230
H         -0.08150       -1.44950       -1.97830
N          1.24720       -2.93360       -2.64910
C          1.36570       -4.29980       -2.14390
C          0.29650       -4.34960       -1.04960
C          0.37580       -2.94680       -0.43160
C          1.04200       -2.71850       -3.99190
O          1.21760       -3.56640       -4.84550
O          0.63430       -1.45670       -4.20550
C          0.33230       -0.94960       -5.54520
C         -0.05080        0.50370       -5.27400
C          1.57140       -1.02860       -6.43720
C         -0.84690       -1.72990       -6.12820
C          3.23420       -0.06290       -3.14870
C          3.54510        1.09760       -3.88540
C          4.48280        1.04080       -4.90810
C          5.13080       -0.16470       -5.22740
O          6.01820       -0.11830       -6.25430
C          6.66950       -1.30500       -6.64060
C          4.82690       -1.31650       -4.49000
C          3.88700       -1.26050       -3.45710
C         -0.66130        1.23980        0.55960
H          1.21710       -5.00700       -2.96890
H          2.37310       -4.47550       -1.72210
H         -0.69090       -4.51020       -1.51250
H          0.46170       -5.15370       -0.31730
H         -0.55630       -2.61110        0.03970
H          1.15610       -2.92500        0.34790
H         -0.91930        0.55540       -4.60030
H         -0.30800        1.00940       -6.21660
H          0.78360        1.04200       -4.80270
H          1.86950       -2.07080       -6.60170
H          2.40860       -0.48520       -5.98020
H          1.34840       -0.56260       -7.40940
H         -0.57500       -2.77960       -6.29650
H         -1.14960       -1.28240       -7.08720
H         -1.70830       -1.68830       -5.44330
H          3.04350        2.03300       -3.63990
H          4.72990        1.93050       -5.49000
H          7.32070       -1.04620       -7.48600
H          5.95150       -2.08030       -6.96440
H          7.29020       -1.71830       -5.82460
H          5.30200       -2.27080       -4.71330
H          3.64480       -2.16910       -2.90810
H         -1.73410        1.05940        0.71370
H         -0.52540        2.12840       -0.07950
H         -0.18650        1.43700        1.54080
