rmsd115.gzmat
 OpenBabel08211713403D

 55 56  0  0  1  0  0  0  0  0999 V2000
    0.0000    0.0000    0.0000 O   0  0  0  0  0  0  0  0  0  0  0  0
    1.3902    0.0000    0.0000 C   0  0  2  0  0  0  0  0  0  0  0  0
    1.8209    0.0000    1.0084 H   0  0  0  0  0  0  0  0  0  0  0  0
    2.0038    1.0627   -0.9830 C   0  0  0  0  0  0  0  0  0  0  0  0
    2.0506    2.2490   -1.0749 O   0  0  0  0  0  0  0  0  0  0  0  0
    2.5326    0.0396   -1.7832 N   0  0  0  0  0  0  0  0  0  0  0  0
    1.9681   -1.0902   -0.9829 C   0  0  2  0  0  0  0  0  0  0  0  0
    2.7605   -1.7170   -0.5124 H   0  0  0  0  0  0  0  0  0  0  0  0
    0.9972   -1.9916   -1.7678 C   0  0  1  0  0  0  0  0  0  0  0  0
    1.6041   -2.5850   -2.5076 H   0  0  0  0  0  0  0  0  0  0  0  0
    0.3601   -2.8953   -0.7847 N   0  0  0  0  0  0  0  0  0  0  0  0
   -1.1035   -2.7220   -0.7764 C   0  0  0  0  0  0  0  0  0  0  0  0
   -1.4433   -2.0026   -2.0978 C   0  0  0  0  0  0  0  0  0  0  0  0
   -0.1527   -1.2688   -2.5023 C   0  0  0  0  0  0  0  0  0  0  0  0
    0.9745   -4.1066   -0.5343 C   0  0  0  0  0  0  0  0  0  0  0  0
    2.1484   -4.3173   -0.7705 O   0  0  0  0  0  0  0  0  0  0  0  0
    0.1202   -4.9592    0.0800 O   0  0  0  0  0  0  0  0  0  0  0  0
    0.6373   -6.1958    0.6274 C   0  0  0  0  0  0  0  0  0  0  0  0
    1.1846   -7.0581   -0.5032 C   0  0  0  0  0  0  0  0  0  0  0  0
    1.6806   -5.8773    1.6915 C   0  0  0  0  0  0  0  0  0  0  0  0
   -0.6366   -6.7938    1.2364 C   0  0  0  0  0  0  0  0  0  0  0  0
    3.3305    0.0089   -2.9265 C   0  0  0  0  0  0  0  0  0  0  0  0
    3.5434    1.2010   -3.6470 C   0  0  0  0  0  0  0  0  0  0  0  0
    4.3387    1.1856   -4.7786 C   0  0  0  0  0  0  0  0  0  0  0  0
    4.9189   -0.0253   -5.1928 C   0  0  0  0  0  0  0  0  0  0  0  0
    5.6626    0.1097   -6.3276 O   0  0  0  0  0  0  0  0  0  0  0  0
    6.3867   -1.0316   -6.7618 C   0  0  0  0  0  0  0  0  0  0  0  0
    4.7157   -1.2092   -4.4892 C   0  0  0  0  0  0  0  0  0  0  0  0
    3.9201   -1.1899   -3.3457 C   0  0  0  0  0  0  0  0  0  0  0  0
   -0.5419    1.0017    0.8525 C   0  0  0  0  0  0  0  0  0  0  0  0
   -1.6369   -3.6857   -0.6676 H   0  0  0  0  0  0  0  0  0  0  0  0
   -1.3621   -2.0884    0.1034 H   0  0  0  0  0  0  0  0  0  0  0  0
   -1.7470   -2.7248   -2.8738 H   0  0  0  0  0  0  0  0  0  0  0  0
   -2.2834   -1.3031   -1.9701 H   0  0  0  0  0  0  0  0  0  0  0  0
    0.0021   -1.2870   -3.5931 H   0  0  0  0  0  0  0  0  0  0  0  0
   -0.2031   -0.2006   -2.2222 H   0  0  0  0  0  0  0  0  0  0  0  0
    0.4693   -7.1337   -1.3301 H   0  0  0  0  0  0  0  0  0  0  0  0
    1.4141   -8.0710   -0.1589 H   0  0  0  0  0  0  0  0  0  0  0  0
    2.1116   -6.6319   -0.9185 H   0  0  0  0  0  0  0  0  0  0  0  0
    1.3055   -5.1364    2.4073 H   0  0  0  0  0  0  0  0  0  0  0  0
    2.5943   -5.4581    1.2420 H   0  0  0  0  0  0  0  0  0  0  0  0
    1.9712   -6.7726    2.2487 H   0  0  0  0  0  0  0  0  0  0  0  0
   -1.0584   -6.1307    2.0017 H   0  0  0  0  0  0  0  0  0  0  0  0
   -0.4295   -7.7627    1.7007 H   0  0  0  0  0  0  0  0  0  0  0  0
   -1.4106   -6.9390    0.4733 H   0  0  0  0  0  0  0  0  0  0  0  0
    3.0861    2.1317   -3.3048 H   0  0  0  0  0  0  0  0  0  0  0  0
    4.5225    2.0928   -5.3508 H   0  0  0  0  0  0  0  0  0  0  0  0
    6.9094   -0.6501   -7.6494 H   0  0  0  0  0  0  0  0  0  0  0  0
    5.7089   -1.8445   -7.0390 H   0  0  0  0  0  0  0  0  0  0  0  0
    7.1072   -1.3518   -6.0026 H   0  0  0  0  0  0  0  0  0  0  0  0
    5.1662   -2.1430   -4.8092 H   0  0  0  0  0  0  0  0  0  0  0  0
    3.7733   -2.1088   -2.7794 H   0  0  0  0  0  0  0  0  0  0  0  0
   -1.6189    0.9231    0.6625 H   0  0  0  0  0  0  0  0  0  0  0  0
   -0.1781    1.9972    0.5736 H   0  0  0  0  0  0  0  0  0  0  0  0
   -0.3192    0.7797    1.9000 H   0  0  0  0  0  0  0  0  0  0  0  0
  1  2  1  0  0  0  0
  1 30  1  0  0  0  0
  2  7  1  0  0  0  0
  2  3  1  1  0  0  0
  4  2  1  0  0  0  0
  5  4  2  0  0  0  0
  6  4  1  0  0  0  0
  6  7  1  0  0  0  0
  7  8  1  1  0  0  0
  9 10  1  6  0  0  0
  9  7  1  0  0  0  0
  9 11  1  0  0  0  0
 11 12  1  0  0  0  0
 11 15  1  0  0  0  0
 12 31  1  0  0  0  0
 12 32  1  0  0  0  0
 13 34  1  0  0  0  0
 13 12  1  0  0  0  0
 14 36  1  0  0  0  0
 14 13  1  0  0  0  0
 14  9  1  0  0  0  0
 15 17  1  0  0  0  0
 16 15  2  0  0  0  0
 17 18  1  0  0  0  0
 18 21  1  0  0  0  0
 18 20  1  0  0  0  0
 19 38  1  0  0  0  0
 19 18  1  0  0  0  0
 20 42  1  0  0  0  0
 20 40  1  0  0  0  0
 21 44  1  0  0  0  0
 21 43  1  0  0  0  0
 22  6  1  0  0  0  0
 23 46  1  0  0  0  0
 23 22  2  0  0  0  0
 24 23  1  0  0  0  0
 25 24  2  0  0  0  0
 25 28  1  0  0  0  0
 26 25  1  0  0  0  0
 27 26  1  0  0  0  0
 27 50  1  0  0  0  0
 28 29  2  0  0  0  0
 29 22  1  0  0  0  0
 29 52  1  0  0  0  0
 30 55  1  0  0  0  0
 33 13  1  0  0  0  0
 37 19  1  0  0  0  0
 39 19  1  0  0  0  0
 41 20  1  0  0  0  0
 45 21  1  0  0  0  0
 47 24  1  0  0  0  0
 48 27  1  0  0  0  0
 49 27  1  0  0  0  0
 51 28  1  0  0  0  0
 53 30  1  0  0  0  0
 54 30  1  0  0  0  0
M  RAD  2  14   2  35   2
M  END
$$$$
