55
rmsd13.gzmat
O          0.00000        0.00000        0.00000
C          1.39010        0.00000        0.00000
H          1.82840        0.00000        1.00570
C          2.00520        1.05310       -0.99140
O          2.06110        2.23810       -1.09270
N          2.52470        0.02040       -1.78710
C          1.94480       -1.10060       -0.98380
H          2.73780       -1.73500       -0.52090
C          0.93180       -1.97210       -1.75180
H          1.51180       -2.71380       -2.37030
N          0.05920       -2.77100       -0.86160
C         -1.36930       -2.46040       -1.09220
C         -1.41170       -1.80960       -2.48600
C         -0.02590       -1.16910       -2.66390
C          0.48550       -3.12840        0.40360
O          1.64950       -3.19830        0.74700
O         -0.58100       -3.48140        1.16400
C         -0.35590       -4.03100        2.48200
C          0.42510       -5.33410        2.36530
C          0.34990       -2.99310        3.34810
C         -1.79970       -4.27090        2.94130
C          3.29790       -0.02520       -2.94590
C          3.56150        1.16000       -3.64780
C          4.33390        1.12430       -4.80450
C          4.83130       -0.09890       -5.25050
O          5.59530       -0.29100       -6.36350
C          5.89490        0.85610       -7.14470
C          4.57880       -1.29150       -4.55460
C          3.81670       -1.25220       -3.39890
C         -0.54990        0.95470        0.89900
H         -1.95080       -3.40370       -1.03960
H         -1.76470       -1.77560       -0.31150
H         -1.60150       -2.56450       -3.26830
H         -2.21790       -1.06400       -2.56090
H          0.31070       -1.19490       -3.71250
H         -0.05480       -0.10170       -2.37630
H         -0.04720       -6.02050        1.65300
H          0.50050       -5.84390        3.33040
H          1.45090       -5.15420        2.00590
H         -0.14470       -2.01790        3.28190
H          1.39380       -2.85100        3.02740
H          0.36820       -3.29730        4.39900
H         -2.36260       -3.33170        2.99160
H         -1.82160       -4.73780        3.93040
H         -2.33110       -4.92720        2.24070
H          3.16530        2.10990       -3.28370
H          4.53740        2.04680       -5.33910
H          6.50480        0.43330       -7.95440
H          6.47720        1.58150       -6.56790
H          4.98170        1.30330       -7.54930
H          4.98930       -2.22790       -4.92670
H          3.63170       -2.16770       -2.84040
H         -1.62970        0.83220        0.74930
H         -0.23790        1.96970        0.62590
H         -0.27740        0.72250        1.93270
