55

O          0.07060       -0.22810        0.24060
C          1.43280       -0.20740       -0.04910
H          2.03730       -0.25510        0.87900
C          1.96760        0.89480       -0.99720
O          1.95380        2.10300       -1.02920
N          2.50040       -0.05750       -1.84090
C          1.94630       -1.21590       -1.12030
H          2.71760       -1.90200       -0.74250
C          0.92600       -2.03010       -1.92550
H          1.49890       -2.58800       -2.68470
N          0.22710       -2.99930       -1.07690
C         -1.22330       -2.81550       -1.09840
C         -1.44630       -2.11690       -2.44360
C         -0.20520       -1.22390       -2.59610
C          0.90170       -4.06090       -0.56270
O          2.10300       -4.23030       -0.71280
O          0.07650       -4.87900        0.12180
C          0.57100       -6.08720        0.77820
C          1.14930       -7.05020       -0.26090
C          1.59550       -5.71610        1.85240
C         -0.69040       -6.66980        1.41300
C          3.32910        0.00370       -2.96630
C          3.59960        1.24070       -3.58430
C          4.42990        1.29170       -4.69530
C          5.00680        0.12180       -5.22040
O          5.79800        0.28060       -6.31320
C          6.41040       -0.85360       -6.87810
C          4.74020       -1.10780       -4.60390
C          3.90780       -1.16260       -3.48100
C         -0.32040        0.78500        1.14720
H         -1.73090       -3.78390       -1.01220
H         -1.53740       -2.17450       -0.25830
H         -1.47830       -2.87050       -3.24790
H         -2.38770       -1.54930       -2.47670
H          0.03390       -0.99080       -3.64280
H         -0.36320       -0.27700       -2.06600
H          0.40220       -7.25870       -1.04240
H          1.41400       -8.00290        0.22310
H          2.04560       -6.62660       -0.72980
H          1.16170       -4.98730        2.55460
H          2.49580       -5.28250        1.40060
H          1.87810       -6.61500        2.42170
H         -1.13060       -5.95290        2.12190
H         -0.45070       -7.59730        1.95400
H         -1.44060       -6.89840        0.64110
H          3.15460        2.14700       -3.17390
H          4.65110        2.24120       -5.18610
H          6.99710       -0.50040       -7.73660
H          5.66590       -1.59000       -7.23220
H          7.08820       -1.35450       -6.16290
H          5.17440       -2.03310       -4.98090
H          3.71970       -2.12560       -3.00260
H         -1.40380        0.68470        1.30030
H         -0.09500        1.79020        0.75320
H          0.19170        0.66610        2.12200
