55
rmsd49.gzmat
O          0.00000        0.00000        0.00000
C          1.39270        0.00000        0.00000
H          1.81390        0.00000        1.00980
C          2.02930        1.03470       -0.99190
O          2.10570        2.22100       -1.07800
N          2.52850       -0.00290       -1.78270
C          1.91620       -1.11660       -0.99050
H          2.67440       -1.80330       -0.57180
C          0.77750       -1.87280       -1.70210
H          0.10430       -1.13240       -2.20940
N          1.36280       -2.82400       -2.66740
C          1.37810       -4.19510       -2.10730
C          0.57990       -4.15260       -0.78810
C         -0.00860       -2.73680       -0.68770
C          1.06050       -2.70650       -4.02760
O          1.18620       -3.61110       -4.82460
O          0.69190       -1.43990       -4.30790
C          0.55000       -1.01430       -5.68620
C          0.33380        0.48920       -5.48450
C          1.82700       -1.30320       -6.45980
C         -0.67240       -1.70650       -6.27800
C          3.34600       -0.03240       -2.91420
C          3.52590        1.14940       -3.65870
C          4.35740        1.14270       -4.76540
C          5.00720       -0.04810       -5.12770
O          5.78740        0.09470       -6.23740
C          6.45260       -1.06820       -6.70770
C          4.83620       -1.22330       -4.39950
C          4.00070       -1.21260       -3.28610
C         -0.55330        1.15630        0.61410
H          0.95840       -4.93190       -2.82570
H          2.43880       -4.47770       -1.93770
H         -0.21330       -4.91680       -0.77440
H          1.23270       -4.37090        0.07290
H         -1.08270       -2.73300       -0.94240
H          0.05230       -2.33600        0.33680
H         -0.54850        0.68790       -4.86590
H          0.20840        0.99970       -6.44330
H          1.19420        0.93960       -4.96740
H          1.95900       -2.37950       -6.64180
H          2.71100       -0.96460       -5.90030
H          1.83530       -0.79750       -7.42970
H         -0.50860       -2.79130       -6.36410
H         -0.89870       -1.32620       -7.27890
H         -1.55840       -1.56120       -5.65040
H          3.01640        2.06600       -3.35540
H          4.51590        2.04270       -5.35600
H          6.98530       -0.69050       -7.59010
H          5.73360       -1.84110       -6.99820
H          7.16400       -1.44030       -5.96440
H          5.33330       -2.14530       -4.68360
H          3.84550       -2.12870       -2.71700
H         -1.63220        0.99800        0.49530
H         -0.23820        2.06530        0.08600
H         -0.28300        1.20490        1.67210
