
     RDKit          3D

 44 47  0  0  0  0  0  0  0  0999 V2000
   -0.0765   -0.2041    0.0031 N   0  0  0  0  0  0  0  0  0  0  0  0
    0.9331   -0.2814   -0.0127 H   0  0  0  0  0  0  0  0  0  0  0  0
   -0.7054   -0.1570   -1.2166 C   0  0  0  0  0  0  0  0  0  0  0  0
   -0.0360   -0.2125   -2.4219 C   0  0  0  0  0  0  0  0  0  0  0  0
    1.3932   -0.2859   -2.6727 C   0  0  0  0  0  0  0  0  0  0  0  0
    1.8436   -0.6883   -3.7392 O   0  0  0  0  0  0  0  0  0  0  0  0
    2.3907    0.1830   -1.6311 C   0  0  0  0  0  0  0  0  0  0  0  0
    3.5144   -0.6010   -1.3428 C   0  0  0  0  0  0  0  0  0  0  0  0
    4.4394   -0.1336   -0.4055 C   0  0  0  0  0  0  0  0  0  0  0  0
    4.3277    1.0436    0.2176 N   0  0  0  0  0  0  0  0  0  0  0  0
    3.2759    1.8083   -0.0863 C   0  0  0  0  0  0  0  0  0  0  0  0
    2.2809    1.4257   -0.9906 C   0  0  0  0  0  0  0  0  0  0  0  0
   -2.0991   -0.0787   -1.1642 N   0  0  0  0  0  0  0  0  0  0  0  0
   -2.8597    0.0722    0.0177 C   0  0  0  0  0  0  0  0  0  0  0  0
   -4.0665    0.1908   -0.0383 O   0  0  0  0  0  0  0  0  0  0  0  0
   -2.0873    0.0925    1.2722 C   0  0  0  0  0  0  0  0  0  0  0  0
   -2.7355    0.2523    2.5048 C   0  0  0  0  0  0  0  0  0  0  0  0
   -1.9995    0.2762    3.6847 C   0  0  0  0  0  0  0  0  0  0  0  0
   -0.6023    0.1414    3.6319 C   0  0  0  0  0  0  0  0  0  0  0  0
    0.0576   -0.0174    2.4174 C   0  0  0  0  0  0  0  0  0  0  0  0
   -0.6900   -0.0441    1.2274 C   0  0  0  0  0  0  0  0  0  0  0  0
   -2.8427   -0.0605   -2.4004 C   0  0  0  0  0  0  0  0  0  0  0  0
   -3.2405   -1.2707   -2.9664 C   0  0  0  0  0  0  0  0  0  0  0  0
   -3.9528   -1.2746   -4.1662 C   0  0  0  0  0  0  0  0  0  0  0  0
   -4.2617   -0.0611   -4.7845 C   0  0  0  0  0  0  0  0  0  0  0  0
   -3.8635    1.1450   -4.2032 C   0  0  0  0  0  0  0  0  0  0  0  0
   -3.1485    1.1722   -2.9985 C   0  0  0  0  0  0  0  0  0  0  0  0
   -2.7309    2.4647   -2.3525 C   0  0  0  0  0  0  0  0  0  0  0  0
   -0.6385   -0.3272   -3.3199 H   0  0  0  0  0  0  0  0  0  0  0  0
    3.6552   -1.5575   -1.8496 H   0  0  0  0  0  0  0  0  0  0  0  0
    5.3146   -0.7412   -0.1480 H   0  0  0  0  0  0  0  0  0  0  0  0
    3.2140    2.7798    0.4180 H   0  0  0  0  0  0  0  0  0  0  0  0
    1.4326    2.0828   -1.1944 H   0  0  0  0  0  0  0  0  0  0  0  0
   -3.8218    0.3555    2.4988 H   0  0  0  0  0  0  0  0  0  0  0  0
   -2.5019    0.3995    4.6458 H   0  0  0  0  0  0  0  0  0  0  0  0
   -0.0191    0.1628    4.5555 H   0  0  0  0  0  0  0  0  0  0  0  0
    1.1450   -0.1161    2.3779 H   0  0  0  0  0  0  0  0  0  0  0  0
   -2.9817   -2.2035   -2.4621 H   0  0  0  0  0  0  0  0  0  0  0  0
   -4.2640   -2.2204   -4.6143 H   0  0  0  0  0  0  0  0  0  0  0  0
   -4.8169   -0.0518   -5.7252 H   0  0  0  0  0  0  0  0  0  0  0  0
   -4.1123    2.0906   -4.6913 H   0  0  0  0  0  0  0  0  0  0  0  0
   -1.6487    2.4771   -2.1461 H   0  0  0  0  0  0  0  0  0  0  0  0
   -3.2556    2.6050   -1.3934 H   0  0  0  0  0  0  0  0  0  0  0  0
   -2.9654    3.3228   -2.9974 H   0  0  0  0  0  0  0  0  0  0  0  0
  1  2  1  0
  1  3  1  0
  1 21  1  0
  3  4  2  0
  3 13  1  0
  4  5  1  0
  4 29  1  0
  5  6  2  0
  5  7  1  0
  7  8  2  0
  7 12  1  0
  8  9  1  0
  8 30  1  0
  9 10  2  0
  9 31  1  0
 10 11  1  0
 11 12  2  0
 11 32  1  0
 12 33  1  0
 13 14  1  0
 13 22  1  0
 14 15  2  0
 14 16  1  0
 16 17  1  0
 16 21  2  0
 17 18  2  0
 17 34  1  0
 18 19  1  0
 18 35  1  0
 19 20  2  0
 19 36  1  0
 20 21  1  0
 20 37  1  0
 22 23  2  0
 22 27  1  0
 23 24  1  0
 23 38  1  0
 24 25  2  0
 24 39  1  0
 25 26  1  0
 25 40  1  0
 26 27  2  0
 26 41  1  0
 27 28  1  0
 28 42  1  0
 28 43  1  0
 28 44  1  0
M  END

