44
rmsd6.gzmat
N          0.00000        0.00000        0.00000
H          1.04850        0.00000        0.00000
C         -0.60900        0.00000       -1.24920
C          0.15690        0.01500       -2.40070
C          1.58690       -0.00970       -2.38080
O          2.24370       -0.01830       -1.34390
C          2.31730       -0.01470       -3.68140
C          3.50330        0.71070       -3.78660
C          4.18710        0.69110       -5.00890
N          3.74560       -0.00250       -6.07460
C          2.60410       -0.70600       -5.95910
C          1.85340       -0.74090       -4.77670
N         -2.00390       -0.01410       -1.27740
C         -2.82820        0.01370       -0.11440
O         -4.02520        0.03010       -0.26140
C         -2.11840        0.01060        1.16150
C         -2.84000        0.01330        2.36240
C         -2.16660       -0.00840        3.57260
C         -0.76410       -0.03190        3.59710
C         -0.03030       -0.03070        2.42300
C         -0.71380       -0.00750        1.19070
C         -2.66160       -0.14070       -2.55430
C         -3.22870        1.00010       -3.12690
C         -3.86720        0.89580       -4.35910
C         -3.93430       -0.33710       -5.00590
C         -3.37310       -1.47100       -4.42390
C         -2.73410       -1.39390       -3.18480
C         -2.14220       -2.60860       -2.56260
H         -0.33150        0.07070       -3.36970
H          3.88920        1.26600       -2.93240
H          5.12380        1.24100       -5.15460
H          2.29150       -1.25530       -6.85420
H          0.93650       -1.32280       -4.72150
H         -3.93420        0.03180        2.32700
H         -2.72110       -0.00820        4.50820
H         -0.24700       -0.05160        4.55860
H          1.05750       -0.04780        2.44540
H         -3.17710        1.95680       -2.60740
H         -4.31610        1.77670       -4.81430
H         -4.43330       -0.41550       -5.97060
H         -3.43770       -2.42910       -4.93640
H         -2.47550       -2.73550       -1.52070
H         -1.04080       -2.55080       -2.54440
H         -2.40880       -3.53200       -3.09350
