44
rmsd5.gzmat
N          0.00000        0.00000        0.00000
H          1.04970        0.00000        0.00000
C         -0.61000        0.00000       -1.24850
C          0.15770        0.01020       -2.39880
C          1.58760       -0.01660       -2.37060
O          2.23980        0.00230       -1.33040
C          2.32680       -0.06060       -3.66490
C          3.50700        0.67100       -3.78970
C          4.20500        0.60310       -5.00220
N          3.78220       -0.14260       -6.03970
C          2.64460       -0.84970       -5.90570
C          1.87990       -0.83750       -4.73200
N         -2.00480       -0.01540       -1.27560
C         -2.82740       -0.00200       -0.11130
O         -4.02470        0.02860       -0.25610
C         -2.11620       -0.03300        1.16410
C         -2.83310       -0.06280        2.36780
C         -2.15510       -0.09960        3.57550
C         -0.75220       -0.10820        3.59580
C         -0.02270       -0.07730        2.41980
C         -0.71160       -0.03850        1.19060
C         -2.66300       -0.04150       -2.55890
C         -2.85090       -1.28090       -3.17780
C         -3.48320       -1.33430       -4.41550
C         -3.92830       -0.15960       -5.02060
C         -3.74000        1.07020       -4.39600
C         -3.10280        1.15060       -3.15490
C         -2.89650        2.46630       -2.49290
H         -0.32660        0.04830       -3.37030
H          3.87920        1.26720       -2.95790
H          5.13880        1.15450       -5.16120
H          2.34890       -1.44290       -6.77800
H          0.96700       -1.42450       -4.65920
H         -3.92750       -0.05740        2.33580
H         -2.70560       -0.12320        4.51310
H         -0.23130       -0.14110        4.55500
H          1.06510       -0.08510        2.43630
H         -2.50590       -2.19320       -2.69230
H         -3.63300       -2.29340       -4.90660
H         -4.42790       -0.20400       -5.98750
H         -4.09420        1.97980       -4.87880
H         -1.82700        2.66540       -2.31790
H         -3.40000        2.50000       -1.51220
H         -3.28970        3.30700       -3.08020
