44
rmsd1.gzmat
N          0.00000        0.00000        0.00000
H          1.01930        0.00000        0.00000
C         -0.65900        0.00000       -1.23730
C          0.01760        0.09080       -2.42170
C          1.44050        0.03830       -2.67010
O          1.96260        0.56620       -3.62560
C          2.30400       -0.74710       -1.72560
C          2.03010       -2.08780       -1.46630
C          2.86590       -2.77120       -0.57340
N          3.90950       -2.17980        0.03790
C          4.17270       -0.88790       -0.23310
C          3.39250       -0.12930       -1.11470
N         -2.05750       -0.06100       -1.18940
C         -2.82700       -0.09150        0.00380
O         -4.03050       -0.07110       -0.08450
C         -2.06460       -0.16760        1.24790
C         -2.73280       -0.27540        2.47280
C         -2.00650       -0.36120        3.65070
C         -0.60530       -0.34520        3.61400
C          0.07650       -0.23860        2.41180
C         -0.66210       -0.14250        1.21680
C         -2.78380       -0.07520       -2.43600
C         -3.08530       -1.31580       -3.00460
C         -3.79860       -1.36000       -4.19810
C         -4.20520       -0.17490       -4.81010
C         -3.90210        1.05650       -4.23530
C         -3.18650        1.12740       -3.03760
C         -2.85870        2.44280       -2.42570
H         -0.55340        0.24620       -3.34680
H          1.19370       -2.59240       -1.94660
H          2.70550       -3.82720       -0.32560
H          5.04470       -0.46260        0.27700
H          3.64280        0.90680       -1.33650
H         -3.82800       -0.29130        2.48200
H         -2.52060       -0.44350        4.60560
H         -0.04450       -0.41830        4.54840
H          1.16310       -0.23270        2.39120
H         -2.76730       -2.23470       -2.51360
H         -4.04050       -2.32000       -4.64980
H         -4.76500       -0.21240       -5.74370
H         -4.22750        1.97470       -4.72160
H         -1.76860        2.58790       -2.34680
H         -3.27220        2.52220       -1.40680
H         -3.25660        3.29130       -2.99820
