44
rmsd3.gzmat
N          0.00000        0.00000        0.00000
H          1.01900        0.00000        0.00000
C         -0.66490        0.00000       -1.23270
C         -0.00210       -0.00080       -2.42990
C          1.40760        0.08030       -2.73270
O          1.85390       -0.19780       -3.82380
C          2.36540        0.55270       -1.67810
C          3.25810       -0.34940       -1.10360
C          4.12120        0.12140       -0.10610
N          4.12110        1.40300        0.30530
C          3.27210        2.27100       -0.27620
C          2.36830        1.88580       -1.27520
N         -2.06560       -0.02580       -1.16950
C         -2.82480        0.04830        0.02990
O         -4.02870        0.01190       -0.04700
C         -2.05430        0.17040        1.26530
C         -2.71070        0.30550        2.49400
C         -1.97280        0.41470        3.66300
C         -0.57230        0.38910        3.61430
C          0.09760        0.25420        2.40830
C         -0.65300        0.14470        1.22220
C         -2.80650       -0.19520       -2.39600
C         -3.42130        0.92680       -2.95830
C         -4.14510        0.78520       -4.13840
C         -4.25270       -0.46640       -4.74290
C         -3.64630       -1.58130       -4.16940
C         -2.91660       -1.46540       -2.98430
C         -2.26300       -2.65760       -2.38000
H         -0.59880       -0.08170       -3.35200
H          3.29750       -1.38540       -1.43510
H          4.84580       -0.53700        0.38740
H          3.32620        3.30510        0.08410
H          1.69250        2.61050       -1.72520
H         -3.80580        0.32310        2.51420
H         -2.47670        0.52060        4.62140
H         -0.00230        0.47890        4.54170
H          1.18430        0.23780        2.37900
H         -3.33880        1.89780       -2.47100
H         -4.62730        1.65150       -4.58680
H         -4.81670       -0.57440       -5.66870
H         -3.74180       -2.55440       -4.64870
H         -2.47970       -2.74210       -1.30390
H         -1.16550       -2.60350       -2.48750
H         -2.58540       -3.59950       -2.84320
