rmsd5.gzmat
 OpenBabel08211713393D

 44 47  0  0  0  0  0  0  0  0999 V2000
    0.0000    0.0000    0.0000 N   0  0  0  0  0  0  0  0  0  0  0  0
    1.0497    0.0000    0.0000 H   0  0  0  0  0  0  0  0  0  0  0  0
   -0.6100    0.0000   -1.2485 C   0  0  0  0  0  0  0  0  0  0  0  0
    0.1577    0.0102   -2.3988 C   0  0  0  0  0  0  0  0  0  0  0  0
    1.5876   -0.0166   -2.3706 C   0  0  0  0  0  0  0  0  0  0  0  0
    2.2398    0.0023   -1.3304 O   0  0  0  0  0  0  0  0  0  0  0  0
    2.3268   -0.0606   -3.6649 C   0  0  0  0  0  0  0  0  0  0  0  0
    3.5070    0.6710   -3.7897 C   0  0  0  0  0  0  0  0  0  0  0  0
    4.2050    0.6031   -5.0022 C   0  0  0  0  0  0  0  0  0  0  0  0
    3.7822   -0.1426   -6.0397 N   0  0  0  0  0  0  0  0  0  0  0  0
    2.6446   -0.8497   -5.9057 C   0  0  0  0  0  0  0  0  0  0  0  0
    1.8799   -0.8375   -4.7320 C   0  0  0  0  0  0  0  0  0  0  0  0
   -2.0048   -0.0154   -1.2756 N   0  0  0  0  0  0  0  0  0  0  0  0
   -2.8274   -0.0020   -0.1113 C   0  0  0  0  0  0  0  0  0  0  0  0
   -4.0247    0.0286   -0.2561 O   0  0  0  0  0  0  0  0  0  0  0  0
   -2.1162   -0.0330    1.1641 C   0  0  0  0  0  0  0  0  0  0  0  0
   -2.8331   -0.0628    2.3678 C   0  0  0  0  0  0  0  0  0  0  0  0
   -2.1551   -0.0996    3.5755 C   0  0  0  0  0  0  0  0  0  0  0  0
   -0.7522   -0.1082    3.5958 C   0  0  0  0  0  0  0  0  0  0  0  0
   -0.0227   -0.0773    2.4198 C   0  0  0  0  0  0  0  0  0  0  0  0
   -0.7116   -0.0385    1.1906 C   0  0  0  0  0  0  0  0  0  0  0  0
   -2.6630   -0.0415   -2.5589 C   0  0  0  0  0  0  0  0  0  0  0  0
   -2.8509   -1.2809   -3.1778 C   0  0  0  0  0  0  0  0  0  0  0  0
   -3.4832   -1.3343   -4.4155 C   0  0  0  0  0  0  0  0  0  0  0  0
   -3.9283   -0.1596   -5.0206 C   0  0  0  0  0  0  0  0  0  0  0  0
   -3.7400    1.0702   -4.3960 C   0  0  0  0  0  0  0  0  0  0  0  0
   -3.1028    1.1506   -3.1549 C   0  0  0  0  0  0  0  0  0  0  0  0
   -2.8965    2.4663   -2.4929 C   0  0  0  0  0  0  0  0  0  0  0  0
   -0.3266    0.0483   -3.3703 H   0  0  0  0  0  0  0  0  0  0  0  0
    3.8792    1.2672   -2.9579 H   0  0  0  0  0  0  0  0  0  0  0  0
    5.1388    1.1545   -5.1612 H   0  0  0  0  0  0  0  0  0  0  0  0
    2.3489   -1.4429   -6.7780 H   0  0  0  0  0  0  0  0  0  0  0  0
    0.9670   -1.4245   -4.6592 H   0  0  0  0  0  0  0  0  0  0  0  0
   -3.9275   -0.0574    2.3358 H   0  0  0  0  0  0  0  0  0  0  0  0
   -2.7056   -0.1232    4.5131 H   0  0  0  0  0  0  0  0  0  0  0  0
   -0.2313   -0.1411    4.5550 H   0  0  0  0  0  0  0  0  0  0  0  0
    1.0651   -0.0851    2.4363 H   0  0  0  0  0  0  0  0  0  0  0  0
   -2.5059   -2.1932   -2.6923 H   0  0  0  0  0  0  0  0  0  0  0  0
   -3.6330   -2.2934   -4.9066 H   0  0  0  0  0  0  0  0  0  0  0  0
   -4.4279   -0.2040   -5.9875 H   0  0  0  0  0  0  0  0  0  0  0  0
   -4.0942    1.9798   -4.8788 H   0  0  0  0  0  0  0  0  0  0  0  0
   -1.8270    2.6654   -2.3179 H   0  0  0  0  0  0  0  0  0  0  0  0
   -3.4000    2.5000   -1.5122 H   0  0  0  0  0  0  0  0  0  0  0  0
   -3.2897    3.3070   -3.0802 H   0  0  0  0  0  0  0  0  0  0  0  0
  1  2  1  0  0  0  0
  1 21  1  0  0  0  0
  3  1  1  0  0  0  0
  4  5  1  0  0  0  0
  4  3  2  0  0  0  0
  5  6  2  0  0  0  0
  7  5  1  0  0  0  0
  8  7  1  0  0  0  0
  8 30  1  0  0  0  0
  9  8  1  0  0  0  0
 10 11  2  0  0  0  0
 10  9  2  0  0  0  0
 11 12  1  0  0  0  0
 12 33  1  0  0  0  0
 12  7  2  0  0  0  0
 13  3  1  0  0  0  0
 13 14  1  0  0  0  0
 14 16  1  0  0  0  0
 15 14  2  0  0  0  0
 16 21  2  0  0  0  0
 16 17  1  0  0  0  0
 17 18  2  0  0  0  0
 18 19  1  0  0  0  0
 18 35  1  0  0  0  0
 19 36  1  0  0  0  0
 20 37  1  0  0  0  0
 20 19  2  0  0  0  0
 21 20  1  0  0  0  0
 22 13  1  0  0  0  0
 23 38  1  0  0  0  0
 23 22  2  0  0  0  0
 24 23  1  0  0  0  0
 25 24  2  0  0  0  0
 25 26  1  0  0  0  0
 26 27  2  0  0  0  0
 27 22  1  0  0  0  0
 27 28  1  0  0  0  0
 28 42  1  0  0  0  0
 28 43  1  0  0  0  0
 29  4  1  0  0  0  0
 31  9  1  0  0  0  0
 32 11  1  0  0  0  0
 34 17  1  0  0  0  0
 39 24  1  0  0  0  0
 40 25  1  0  0  0  0
 41 26  1  0  0  0  0
 44 28  1  0  0  0  0
M  RAD  1   8   2
M  END
$$$$
