
     RDKit          3D

 44 47  0  0  0  0  0  0  0  0999 V2000
   -0.0161    0.1307   -0.0762 N   0  0  0  0  0  0  0  0  0  0  0  0
    1.0177    0.2461   -0.1776 H   0  0  0  0  0  0  0  0  0  0  0  0
   -0.6168   -0.0120   -1.2835 C   0  0  0  0  0  0  0  0  0  0  0  0
    0.1475    0.0038   -2.4482 C   0  0  0  0  0  0  0  0  0  0  0  0
    1.5680    0.1698   -2.4034 C   0  0  0  0  0  0  0  0  0  0  0  0
    2.2152    0.3098   -1.3413 O   0  0  0  0  0  0  0  0  0  0  0  0
    2.3366    0.1726   -3.6986 C   0  0  0  0  0  0  0  0  0  0  0  0
    3.7345    0.2514   -3.6394 C   0  0  0  0  0  0  0  0  0  0  0  0
    4.4652    0.2554   -4.8281 C   0  0  0  0  0  0  0  0  0  0  0  0
    3.9048    0.1906   -6.0397 N   0  0  0  0  0  0  0  0  0  0  0  0
    2.5730    0.1195   -6.0971 C   0  0  0  0  0  0  0  0  0  0  0  0
    1.7482    0.1065   -4.9692 C   0  0  0  0  0  0  0  0  0  0  0  0
   -1.9938   -0.1788   -1.2975 N   0  0  0  0  0  0  0  0  0  0  0  0
   -2.7935   -0.2745   -0.1329 C   0  0  0  0  0  0  0  0  0  0  0  0
   -3.9865   -0.4803   -0.2232 O   0  0  0  0  0  0  0  0  0  0  0  0
   -2.0694   -0.1087    1.1384 C   0  0  0  0  0  0  0  0  0  0  0  0
   -2.7637   -0.1558    2.3565 C   0  0  0  0  0  0  0  0  0  0  0  0
   -2.0807    0.0007    3.5568 C   0  0  0  0  0  0  0  0  0  0  0  0
   -0.6899    0.2046    3.5420 C   0  0  0  0  0  0  0  0  0  0  0  0
    0.0153    0.2527    2.3449 C   0  0  0  0  0  0  0  0  0  0  0  0
   -0.6758    0.0954    1.1300 C   0  0  0  0  0  0  0  0  0  0  0  0
   -2.6674   -0.3067   -2.5660 C   0  0  0  0  0  0  0  0  0  0  0  0
   -3.0094    0.8506   -3.2650 C   0  0  0  0  0  0  0  0  0  0  0  0
   -3.6383    0.7517   -4.5067 C   0  0  0  0  0  0  0  0  0  0  0  0
   -3.9213   -0.5108   -5.0331 C   0  0  0  0  0  0  0  0  0  0  0  0
   -3.5796   -1.6621   -4.3198 C   0  0  0  0  0  0  0  0  0  0  0  0
   -2.9468   -1.5866   -3.0714 C   0  0  0  0  0  0  0  0  0  0  0  0
   -2.5902   -2.8194   -2.2874 C   0  0  0  0  0  0  0  0  0  0  0  0
   -0.3642   -0.1217   -3.3940 H   0  0  0  0  0  0  0  0  0  0  0  0
    4.2206    0.3086   -2.6650 H   0  0  0  0  0  0  0  0  0  0  0  0
    5.5595    0.3145   -4.7989 H   0  0  0  0  0  0  0  0  0  0  0  0
    2.1279    0.0701   -7.0977 H   0  0  0  0  0  0  0  0  0  0  0  0
    0.6671    0.0520   -5.1005 H   0  0  0  0  0  0  0  0  0  0  0  0
   -3.8424   -0.3171    2.3227 H   0  0  0  0  0  0  0  0  0  0  0  0
   -2.6187   -0.0343    4.5059 H   0  0  0  0  0  0  0  0  0  0  0  0
   -0.1500    0.3273    4.4840 H   0  0  0  0  0  0  0  0  0  0  0  0
    1.0957    0.4099    2.3330 H   0  0  0  0  0  0  0  0  0  0  0  0
   -2.7726    1.8233   -2.8299 H   0  0  0  0  0  0  0  0  0  0  0  0
   -3.9070    1.6555   -5.0573 H   0  0  0  0  0  0  0  0  0  0  0  0
   -4.4129   -0.6013   -6.0045 H   0  0  0  0  0  0  0  0  0  0  0  0
   -3.8079   -2.6461   -4.7369 H   0  0  0  0  0  0  0  0  0  0  0  0
   -3.2058   -2.8836   -1.3755 H   0  0  0  0  0  0  0  0  0  0  0  0
   -1.5342   -2.8060   -1.9743 H   0  0  0  0  0  0  0  0  0  0  0  0
   -2.7604   -3.7285   -2.8803 H   0  0  0  0  0  0  0  0  0  0  0  0
  1  2  1  0
  1  3  1  0
  1 21  1  0
  3  4  2  0
  3 13  1  0
  4  5  1  0
  4 29  1  0
  5  6  2  0
  5  7  1  0
  7  8  2  0
  7 12  1  0
  8  9  1  0
  8 30  1  0
  9 10  2  0
  9 31  1  0
 10 11  1  0
 11 12  2  0
 11 32  1  0
 12 33  1  0
 13 14  1  0
 13 22  1  0
 14 15  2  0
 14 16  1  0
 16 17  1  0
 16 21  2  0
 17 18  2  0
 17 34  1  0
 18 19  1  0
 18 35  1  0
 19 20  2  0
 19 36  1  0
 20 21  1  0
 20 37  1  0
 22 23  2  0
 22 27  1  0
 23 24  1  0
 23 38  1  0
 24 25  2  0
 24 39  1  0
 25 26  1  0
 25 40  1  0
 26 27  2  0
 26 41  1  0
 27 28  1  0
 28 42  1  0
 28 43  1  0
 28 44  1  0
M  END

