44
rmsd2.gzmat
N          0.00000        0.00000        0.00000
H          1.01890        0.00000        0.00000
C         -0.66660        0.00000       -1.23090
C         -0.01280        0.03020       -2.43350
C          1.38770        0.12740       -2.76620
O          1.78740        0.04870       -3.90730
C          2.40360        0.35520       -1.68530
C          3.10380       -0.72430       -1.15110
C          4.03290       -0.46870       -0.13450
N          4.27030        0.77040        0.33500
C          3.60440        1.80790       -0.20590
C          2.65390        1.64460       -1.22200
N         -2.06630       -0.04760       -1.16430
C         -2.82580       -0.02810        0.03670
O         -4.03000       -0.05530       -0.04120
C         -2.05480        0.02760        1.27600
C         -2.71290        0.06730        2.51070
C         -1.97620        0.12120        3.68410
C         -0.57530        0.13230        3.63370
C          0.09630        0.09230        2.42150
C         -0.65290        0.04060        1.22980
C         -2.81650       -0.07290       -2.39720
C         -3.17470       -1.31610       -2.92500
C         -3.91760       -1.36620       -4.10030
C         -4.29750       -0.18370       -4.73380
C         -3.93630        1.05100       -4.20050
C         -3.18950        1.12730       -3.02260
C         -2.79940        2.44540       -2.45290
H         -0.62400       -0.03530       -3.34920
H          2.94610       -1.73500       -1.52250
H          4.61680       -1.27310        0.32870
H          3.85020        2.79580        0.20130
H          2.13540        2.50240       -1.64470
H         -3.80810        0.05360        2.53100
H         -2.48220        0.15360        4.64660
H         -0.00660        0.17410        4.56530
H          1.18330        0.10160        2.39210
H         -2.87680       -2.23270       -2.41660
H         -4.20290       -2.32870       -4.52070
H         -4.88130       -0.22580       -5.65240
H         -4.24020        1.96690       -4.70530
H         -1.70630        2.52550       -2.33610
H         -3.24520        2.59500       -1.45600
H         -3.11870        3.29060       -3.07700
