rmsd9.gzmat
 OpenBabel08211713393D

 44 47  0  0  0  0  0  0  0  0999 V2000
    0.0000    0.0000    0.0000 N   0  0  0  0  0  0  0  0  0  0  0  0
    1.0499    0.0000    0.0000 H   0  0  0  0  0  0  0  0  0  0  0  0
   -0.6089    0.0000   -1.2490 C   0  0  0  0  0  0  0  0  0  0  0  0
    0.1603   -0.0140   -2.3986 C   0  0  0  0  0  0  0  0  0  0  0  0
    1.5901   -0.0148   -2.3712 C   0  0  0  0  0  0  0  0  0  0  0  0
    2.2411   -0.0287   -1.3303 O   0  0  0  0  0  0  0  0  0  0  0  0
    2.3309   -0.0215   -3.6655 C   0  0  0  0  0  0  0  0  0  0  0  0
    1.8826    0.7001   -4.7700 C   0  0  0  0  0  0  0  0  0  0  0  0
    2.6484    0.6563   -5.9427 C   0  0  0  0  0  0  0  0  0  0  0  0
    3.7885   -0.0522   -6.0409 N   0  0  0  0  0  0  0  0  0  0  0  0
    4.2135   -0.7431   -4.9669 C   0  0  0  0  0  0  0  0  0  0  0  0
    3.5146   -0.7534   -3.7532 C   0  0  0  0  0  0  0  0  0  0  0  0
   -2.0035    0.0130   -1.2787 N   0  0  0  0  0  0  0  0  0  0  0  0
   -2.8280    0.0345   -0.1155 C   0  0  0  0  0  0  0  0  0  0  0  0
   -4.0250    0.0461   -0.2623 O   0  0  0  0  0  0  0  0  0  0  0  0
   -2.1178    0.0404    1.1602 C   0  0  0  0  0  0  0  0  0  0  0  0
   -2.8390    0.0598    2.3612 C   0  0  0  0  0  0  0  0  0  0  0  0
   -2.1656    0.0605    3.5716 C   0  0  0  0  0  0  0  0  0  0  0  0
   -0.7628    0.0416    3.5962 C   0  0  0  0  0  0  0  0  0  0  0  0
   -0.0289    0.0225    2.4225 C   0  0  0  0  0  0  0  0  0  0  0  0
   -0.7133    0.0226    1.1902 C   0  0  0  0  0  0  0  0  0  0  0  0
   -2.6637   -0.0356   -2.5600 C   0  0  0  0  0  0  0  0  0  0  0  0
   -3.1583    1.1577   -3.0929 C   0  0  0  0  0  0  0  0  0  0  0  0
   -3.7996    1.1366   -4.3277 C   0  0  0  0  0  0  0  0  0  0  0  0
   -3.9457   -0.0670   -5.0149 C   0  0  0  0  0  0  0  0  0  0  0  0
   -3.4566   -1.2529   -4.4731 C   0  0  0  0  0  0  0  0  0  0  0  0
   -2.8107   -1.2583   -3.2346 C   0  0  0  0  0  0  0  0  0  0  0  0
   -2.2939   -2.5272   -2.6561 C   0  0  0  0  0  0  0  0  0  0  0  0
   -0.3239   -0.0303   -3.3705 H   0  0  0  0  0  0  0  0  0  0  0  0
    0.9684    1.2879   -4.7276 H   0  0  0  0  0  0  0  0  0  0  0  0
    2.3503    1.2039   -6.8437 H   0  0  0  0  0  0  0  0  0  0  0  0
    5.1493   -1.2985   -5.0972 H   0  0  0  0  0  0  0  0  0  0  0  0
    3.8887   -1.3047   -2.8915 H   0  0  0  0  0  0  0  0  0  0  0  0
   -3.9332    0.0737    2.3231 H   0  0  0  0  0  0  0  0  0  0  0  0
   -2.7197    0.0763    4.5072 H   0  0  0  0  0  0  0  0  0  0  0  0
   -0.2458    0.0421    4.5580 H   0  0  0  0  0  0  0  0  0  0  0  0
    1.0591    0.0078    2.4437 H   0  0  0  0  0  0  0  0  0  0  0  0
   -3.0484    2.0907   -2.5411 H   0  0  0  0  0  0  0  0  0  0  0  0
   -4.1905    2.0593   -4.7523 H   0  0  0  0  0  0  0  0  0  0  0  0
   -4.4487   -0.0811   -5.9808 H   0  0  0  0  0  0  0  0  0  0  0  0
   -3.5826   -2.1867   -5.0190 H   0  0  0  0  0  0  0  0  0  0  0  0
   -2.7702   -2.7475   -1.6873 H   0  0  0  0  0  0  0  0  0  0  0  0
   -1.2061   -2.4773   -2.4808 H   0  0  0  0  0  0  0  0  0  0  0  0
   -2.4708   -3.3960   -3.3043 H   0  0  0  0  0  0  0  0  0  0  0  0
  1 21  1  0  0  0  0
  2  1  1  0  0  0  0
  3  1  1  0  0  0  0
  4  5  1  0  0  0  0
  4  3  2  0  0  0  0
  5  6  2  0  0  0  0
  7  5  1  0  0  0  0
  8 30  1  0  0  0  0
  8  7  2  0  0  0  0
  9  8  1  0  0  0  0
 10  9  2  0  0  0  0
 10 11  2  0  0  0  0
 11 12  1  0  0  0  0
 12  7  1  0  0  0  0
 12 33  1  0  0  0  0
 13  3  1  0  0  0  0
 13 14  1  0  0  0  0
 14 16  1  0  0  0  0
 15 14  2  0  0  0  0
 16 21  2  0  0  0  0
 16 17  1  0  0  0  0
 17 18  2  0  0  0  0
 18 19  1  0  0  0  0
 18 35  1  0  0  0  0
 19 36  1  0  0  0  0
 20 37  1  0  0  0  0
 20 19  2  0  0  0  0
 21 20  1  0  0  0  0
 22 13  1  0  0  0  0
 23 22  1  0  0  0  0
 23 38  1  0  0  0  0
 24 23  2  0  0  0  0
 25 26  2  0  0  0  0
 25 24  1  0  0  0  0
 26 27  1  0  0  0  0
 27 28  1  0  0  0  0
 27 22  2  0  0  0  0
 28 43  1  0  0  0  0
 28 42  1  0  0  0  0
 29  4  1  0  0  0  0
 31  9  1  0  0  0  0
 32 11  1  0  0  0  0
 34 17  1  0  0  0  0
 39 24  1  0  0  0  0
 40 25  1  0  0  0  0
 41 26  1  0  0  0  0
 44 28  1  0  0  0  0
M  RAD  1  12   2
M  END
$$$$
