rmsd6.gzmat
 OpenBabel08211713393D

 44 47  0  0  0  0  0  0  0  0999 V2000
    0.0000    0.0000    0.0000 N   0  0  0  0  0  0  0  0  0  0  0  0
    1.0485    0.0000    0.0000 H   0  0  0  0  0  0  0  0  0  0  0  0
   -0.6090    0.0000   -1.2492 C   0  0  0  0  0  0  0  0  0  0  0  0
    0.1569    0.0150   -2.4007 C   0  0  0  0  0  0  0  0  0  0  0  0
    1.5869   -0.0097   -2.3808 C   0  0  0  0  0  0  0  0  0  0  0  0
    2.2437   -0.0183   -1.3439 O   0  0  0  0  0  0  0  0  0  0  0  0
    2.3173   -0.0147   -3.6814 C   0  0  0  0  0  0  0  0  0  0  0  0
    3.5033    0.7107   -3.7866 C   0  0  0  0  0  0  0  0  0  0  0  0
    4.1871    0.6911   -5.0089 C   0  0  0  0  0  0  0  0  0  0  0  0
    3.7456   -0.0025   -6.0746 N   0  0  0  0  0  0  0  0  0  0  0  0
    2.6041   -0.7060   -5.9591 C   0  0  0  0  0  0  0  0  0  0  0  0
    1.8534   -0.7409   -4.7767 C   0  0  0  0  0  0  0  0  0  0  0  0
   -2.0039   -0.0141   -1.2774 N   0  0  0  0  0  0  0  0  0  0  0  0
   -2.8282    0.0137   -0.1144 C   0  0  0  0  0  0  0  0  0  0  0  0
   -4.0252    0.0301   -0.2614 O   0  0  0  0  0  0  0  0  0  0  0  0
   -2.1184    0.0106    1.1615 C   0  0  0  0  0  0  0  0  0  0  0  0
   -2.8400    0.0133    2.3624 C   0  0  0  0  0  0  0  0  0  0  0  0
   -2.1666   -0.0084    3.5726 C   0  0  0  0  0  0  0  0  0  0  0  0
   -0.7641   -0.0319    3.5971 C   0  0  0  0  0  0  0  0  0  0  0  0
   -0.0303   -0.0307    2.4230 C   0  0  0  0  0  0  0  0  0  0  0  0
   -0.7138   -0.0075    1.1907 C   0  0  0  0  0  0  0  0  0  0  0  0
   -2.6616   -0.1407   -2.5543 C   0  0  0  0  0  0  0  0  0  0  0  0
   -3.2287    1.0001   -3.1269 C   0  0  0  0  0  0  0  0  0  0  0  0
   -3.8672    0.8958   -4.3591 C   0  0  0  0  0  0  0  0  0  0  0  0
   -3.9343   -0.3371   -5.0059 C   0  0  0  0  0  0  0  0  0  0  0  0
   -3.3731   -1.4710   -4.4239 C   0  0  0  0  0  0  0  0  0  0  0  0
   -2.7341   -1.3939   -3.1848 C   0  0  0  0  0  0  0  0  0  0  0  0
   -2.1422   -2.6086   -2.5626 C   0  0  0  0  0  0  0  0  0  0  0  0
   -0.3315    0.0707   -3.3697 H   0  0  0  0  0  0  0  0  0  0  0  0
    3.8892    1.2660   -2.9324 H   0  0  0  0  0  0  0  0  0  0  0  0
    5.1238    1.2410   -5.1546 H   0  0  0  0  0  0  0  0  0  0  0  0
    2.2915   -1.2553   -6.8542 H   0  0  0  0  0  0  0  0  0  0  0  0
    0.9365   -1.3228   -4.7215 H   0  0  0  0  0  0  0  0  0  0  0  0
   -3.9342    0.0318    2.3270 H   0  0  0  0  0  0  0  0  0  0  0  0
   -2.7211   -0.0082    4.5082 H   0  0  0  0  0  0  0  0  0  0  0  0
   -0.2470   -0.0516    4.5586 H   0  0  0  0  0  0  0  0  0  0  0  0
    1.0575   -0.0478    2.4454 H   0  0  0  0  0  0  0  0  0  0  0  0
   -3.1771    1.9568   -2.6074 H   0  0  0  0  0  0  0  0  0  0  0  0
   -4.3161    1.7767   -4.8143 H   0  0  0  0  0  0  0  0  0  0  0  0
   -4.4333   -0.4155   -5.9706 H   0  0  0  0  0  0  0  0  0  0  0  0
   -3.4377   -2.4291   -4.9364 H   0  0  0  0  0  0  0  0  0  0  0  0
   -2.4755   -2.7355   -1.5207 H   0  0  0  0  0  0  0  0  0  0  0  0
   -1.0408   -2.5508   -2.5444 H   0  0  0  0  0  0  0  0  0  0  0  0
   -2.4088   -3.5320   -3.0935 H   0  0  0  0  0  0  0  0  0  0  0  0
  1  2  1  0  0  0  0
  1 21  1  0  0  0  0
  3  1  1  0  0  0  0
  4  5  1  0  0  0  0
  4  3  2  0  0  0  0
  5  6  2  0  0  0  0
  7  5  1  0  0  0  0
  8  7  1  0  0  0  0
  8 30  1  0  0  0  0
  9  8  1  0  0  0  0
 10 11  2  0  0  0  0
 10  9  2  0  0  0  0
 11 12  1  0  0  0  0
 12 33  1  0  0  0  0
 12  7  2  0  0  0  0
 13  3  1  0  0  0  0
 13 14  1  0  0  0  0
 14 16  1  0  0  0  0
 15 14  2  0  0  0  0
 16 21  2  0  0  0  0
 16 17  1  0  0  0  0
 17 18  2  0  0  0  0
 18 19  1  0  0  0  0
 18 35  1  0  0  0  0
 19 36  1  0  0  0  0
 20 37  1  0  0  0  0
 20 19  2  0  0  0  0
 21 20  1  0  0  0  0
 22 13  1  0  0  0  0
 23 38  1  0  0  0  0
 23 22  1  0  0  0  0
 24 23  2  0  0  0  0
 25 26  2  0  0  0  0
 25 24  1  0  0  0  0
 26 27  1  0  0  0  0
 27 28  1  0  0  0  0
 27 22  2  0  0  0  0
 28 43  1  0  0  0  0
 28 42  1  0  0  0  0
 29  4  1  0  0  0  0
 31  9  1  0  0  0  0
 32 11  1  0  0  0  0
 34 17  1  0  0  0  0
 39 24  1  0  0  0  0
 40 25  1  0  0  0  0
 41 26  1  0  0  0  0
 44 28  1  0  0  0  0
M  RAD  1   8   2
M  END
$$$$
