44

N         -0.05830       -0.18390       -0.05320
H          0.98080       -0.23600       -0.15270
C         -0.66450       -0.08240       -1.26190
C          0.10130       -0.05570       -2.42540
C          1.52920       -0.13440       -2.37800
O          2.18200       -0.23010       -1.31440
C          2.29850       -0.09480       -3.67200
C          1.70910       -0.08040       -4.94380
C          2.53480       -0.04590       -6.07060
N          3.86820       -0.02390       -6.01110
C          4.42970       -0.03970       -4.79840
C          3.69840       -0.07650       -3.61060
N         -2.04910       -0.00010       -1.27860
C         -2.85520        0.05120       -0.11550
O         -4.05830        0.18370       -0.20840
C         -2.12440       -0.06560        1.15750
C         -2.82240       -0.05680        2.37440
C         -2.13310       -0.16740        3.57620
C         -0.73240       -0.28620        3.56420
C         -0.02360       -0.29540        2.36830
C         -0.72090       -0.18460        1.15180
C         -2.72710        0.08190       -2.54860
C         -2.99810       -1.09680       -3.24300
C         -3.62940       -1.04080       -4.48610
C         -3.98620        0.20030       -5.01860
C         -3.71520        1.37300       -4.30990
C         -3.08130        1.34070       -3.06000
C         -2.80010        2.59590       -2.28100
H         -0.41530        0.03610       -3.37250
H          0.62700       -0.10280       -5.07670
H          2.08910       -0.03620       -7.07210
H          5.52540       -0.02250       -4.76750
H          4.18560       -0.09210       -2.63510
H         -3.90880        0.03840        2.33840
H         -2.67380       -0.16200        4.52430
H         -0.18770       -0.37270        4.50730
H          1.06440       -0.38670        2.35850
H         -2.70450       -2.05170       -2.80330
H         -3.84270       -1.96140       -5.03320
H         -4.48050        0.25700       -5.99120
H         -4.00100        2.33980       -4.73160
H         -1.74520        2.64770       -1.96810
H         -3.41850        2.62650       -1.36920
H         -3.02500        3.49070       -2.87750
