44
rmsd9.gzmat
N          0.00000        0.00000        0.00000
H          1.04990        0.00000        0.00000
C         -0.60890        0.00000       -1.24900
C          0.16030       -0.01400       -2.39860
C          1.59010       -0.01480       -2.37120
O          2.24110       -0.02870       -1.33030
C          2.33090       -0.02150       -3.66550
C          1.88260        0.70010       -4.77000
C          2.64840        0.65630       -5.94270
N          3.78850       -0.05220       -6.04090
C          4.21350       -0.74310       -4.96690
C          3.51460       -0.75340       -3.75320
N         -2.00350        0.01300       -1.27870
C         -2.82800        0.03450       -0.11550
O         -4.02500        0.04610       -0.26230
C         -2.11780        0.04040        1.16020
C         -2.83900        0.05980        2.36120
C         -2.16560        0.06050        3.57160
C         -0.76280        0.04160        3.59620
C         -0.02890        0.02250        2.42250
C         -0.71330        0.02260        1.19020
C         -2.66370       -0.03560       -2.56000
C         -3.15830        1.15770       -3.09290
C         -3.79960        1.13660       -4.32770
C         -3.94570       -0.06700       -5.01490
C         -3.45660       -1.25290       -4.47310
C         -2.81070       -1.25830       -3.23460
C         -2.29390       -2.52720       -2.65610
H         -0.32390       -0.03030       -3.37050
H          0.96840        1.28790       -4.72760
H          2.35030        1.20390       -6.84370
H          5.14930       -1.29850       -5.09720
H          3.88870       -1.30470       -2.89150
H         -3.93320        0.07370        2.32310
H         -2.71970        0.07630        4.50720
H         -0.24580        0.04210        4.55800
H          1.05910        0.00780        2.44370
H         -3.04840        2.09070       -2.54110
H         -4.19050        2.05930       -4.75230
H         -4.44870       -0.08110       -5.98080
H         -3.58260       -2.18670       -5.01900
H         -2.77020       -2.74750       -1.68730
H         -1.20610       -2.47730       -2.48080
H         -2.47080       -3.39600       -3.30430
