41
rmsd12.gzmat
N          0.00000        0.00000        0.00000
C          1.39540        0.00000        0.00000
C          2.11660        0.00000        1.21660
C          3.49520       -0.12160        1.21420
C          4.20940       -0.25230        0.01460
C          5.65560       -0.37620        0.05480
C          6.39160       -0.89920       -0.94000
C          7.84460       -0.96450       -0.90320
C          8.65910       -0.70090       -1.95530
C         10.13440       -0.71520       -1.95760
O         10.88290       -0.99080       -1.06120
C         10.55340       -0.30570       -3.33990
C         11.81910       -0.13730       -3.85800
C         11.93110        0.25900       -5.20060
C         10.79960        0.47450       -5.98060
C          9.51190        0.30520       -5.44690
C          9.40750       -0.08330       -4.12850
C          8.18800       -0.33170       -3.30330
O          7.04890       -0.25370       -3.68410
O          8.44090       -1.29750        0.25460
C          3.49850       -0.24070       -1.19240
C          2.11900       -0.11370       -1.20830
C         -0.68690        0.51460        1.19440
C         -0.68140        0.35090       -1.25590
H          1.59680        0.08750        2.16520
H          4.03120       -0.11670        2.16460
H          6.12860        0.00550        0.96750
H          5.94130       -1.25700       -1.87600
H         12.70380       -0.30440       -3.24450
H         12.92080        0.39930       -5.63290
H         10.90890        0.78030       -7.01970
H          8.62410        0.47710       -6.05320
H          7.79380       -1.53590        0.97060
H          4.03960       -0.31450       -2.14100
H          1.60350       -0.10780       -2.16400
H         -1.78020        0.43770        1.06690
H         -0.43440        1.56360        1.42120
H         -0.42890       -0.11040        2.06930
H         -1.77490        0.35110       -1.11390
H         -0.46260       -0.42120       -2.01770
H         -0.38340        1.33700       -1.64940
