rmsd94.gzmat
 OpenBabel08211713383D

 41 43  0  0  0  0  0  0  0  0999 V2000
    0.0000    0.0000    0.0000 N   0  0  0  0  0  0  0  0  0  0  0  0
    1.3947    0.0000    0.0000 C   0  0  0  0  0  0  0  0  0  0  0  0
    2.1173    0.0000    1.2146 C   0  0  0  0  0  0  0  0  0  0  0  0
    3.4942    0.1487    1.2133 C   0  0  0  0  0  0  0  0  0  0  0  0
    4.2043    0.2879    0.0139 C   0  0  0  0  0  0  0  0  0  0  0  0
    5.6459    0.4605   -0.0084 C   0  0  0  0  0  0  0  0  0  0  0  0
    6.3542    0.9487    1.0239 C   0  0  0  0  0  0  0  0  0  0  0  0
    7.8004    1.1008    1.0020 C   0  0  0  0  0  0  0  0  0  0  0  0
    8.6202    0.9254    2.0689 C   0  0  0  0  0  0  0  0  0  0  0  0
   10.0876    1.0818    2.0867 C   0  0  0  0  0  0  0  0  0  0  0  0
   10.8237    1.3503    1.1780 O   0  0  0  0  0  0  0  0  0  0  0  0
   10.5168    0.8316    3.5036 C   0  0  0  0  0  0  0  0  0  0  0  0
   11.7767    0.8795    4.0593 C   0  0  0  0  0  0  0  0  0  0  0  0
   11.8997    0.6101    5.4322 C   0  0  0  0  0  0  0  0  0  0  0  0
   10.7842    0.3015    6.2038 C   0  0  0  0  0  0  0  0  0  0  0  0
    9.5027    0.2519    5.6321 C   0  0  0  0  0  0  0  0  0  0  0  0
    9.3873    0.5204    4.2850 C   0  0  0  0  0  0  0  0  0  0  0  0
    8.1681    0.5582    3.4233 C   0  0  0  0  0  0  0  0  0  0  0  0
    7.0404    0.3421    3.7842 O   0  0  0  0  0  0  0  0  0  0  0  0
    8.3912    1.4519   -0.1538 O   0  0  0  0  0  0  0  0  0  0  0  0
    3.4940    0.2538   -1.1945 C   0  0  0  0  0  0  0  0  0  0  0  0
    2.1167    0.1157   -1.2111 C   0  0  0  0  0  0  0  0  0  0  0  0
   -0.6857   -0.3663   -1.2485 C   0  0  0  0  0  0  0  0  0  0  0  0
   -0.6844   -0.4883    1.2068 C   0  0  0  0  0  0  0  0  0  0  0  0
    1.6026   -0.1079    2.1644 H   0  0  0  0  0  0  0  0  0  0  0  0
    4.0340    0.1427    2.1655 H   0  0  0  0  0  0  0  0  0  0  0  0
    6.1366    0.1566   -0.9405 H   0  0  0  0  0  0  0  0  0  0  0  0
    5.8786    1.2240    1.9761 H   0  0  0  0  0  0  0  0  0  0  0  0
   12.6486    1.1205    3.4522 H   0  0  0  0  0  0  0  0  0  0  0  0
   12.8845    0.6463    5.8956 H   0  0  0  0  0  0  0  0  0  0  0  0
   10.9000    0.0964    7.2668 H   0  0  0  0  0  0  0  0  0  0  0  0
    8.6275    0.0116    6.2339 H   0  0  0  0  0  0  0  0  0  0  0  0
    7.7419    1.6445   -0.8810 H   0  0  0  0  0  0  0  0  0  0  0  0
    4.0309    0.3428   -2.1403 H   0  0  0  0  0  0  0  0  0  0  0  0
    1.5991    0.1061   -2.1650 H   0  0  0  0  0  0  0  0  0  0  0  0
   -1.7785   -0.3786   -1.1005 H   0  0  0  0  0  0  0  0  0  0  0  0
   -0.3785   -1.3510   -1.6377 H   0  0  0  0  0  0  0  0  0  0  0  0
   -0.4815    0.4030   -2.0165 H   0  0  0  0  0  0  0  0  0  0  0  0
   -1.7778   -0.4601    1.0662 H   0  0  0  0  0  0  0  0  0  0  0  0
   -0.4580    0.1862    2.0537 H   0  0  0  0  0  0  0  0  0  0  0  0
   -0.3956   -1.5162    1.4826 H   0  0  0  0  0  0  0  0  0  0  0  0
  1  2  1  0  0  0  0
  1 24  1  0  0  0  0
  2  3  2  0  0  0  0
  3 25  1  0  0  0  0
  4  3  1  0  0  0  0
  4 26  1  0  0  0  0
  5  4  2  0  0  0  0
  6  5  1  0  0  0  0
  6  7  2  0  0  0  0
  7 28  1  0  0  0  0
  8  7  1  0  0  0  0
  8  9  2  0  0  0  0
  9 10  1  0  0  0  0
  9 18  1  0  0  0  0
 10 12  1  0  0  0  0
 11 10  2  0  0  0  0
 12 13  2  0  0  0  0
 12 17  1  0  0  0  0
 13 14  1  0  0  0  0
 14 30  1  0  0  0  0
 14 15  2  0  0  0  0
 15 31  1  0  0  0  0
 16 15  1  0  0  0  0
 16 32  1  0  0  0  0
 17 16  2  0  0  0  0
 18 19  2  0  0  0  0
 18 17  1  0  0  0  0
 20  8  1  0  0  0  0
 21  5  1  0  0  0  0
 22 21  2  0  0  0  0
 22  2  1  0  0  0  0
 23 36  1  0  0  0  0
 23  1  1  0  0  0  0
 24 41  1  0  0  0  0
 24 40  1  0  0  0  0
 27  6  1  0  0  0  0
 29 13  1  0  0  0  0
 33 20  1  0  0  0  0
 34 21  1  0  0  0  0
 35 22  1  0  0  0  0
 37 23  1  0  0  0  0
 38 23  1  0  0  0  0
 39 24  1  0  0  0  0
M  END
$$$$
