rmsd12.gzmat
 OpenBabel08211713383D

 41 43  0  0  0  0  0  0  0  0999 V2000
    0.0000    0.0000    0.0000 N   0  0  0  0  0  0  0  0  0  0  0  0
    1.3954    0.0000    0.0000 C   0  0  0  0  0  0  0  0  0  0  0  0
    2.1166    0.0000    1.2166 C   0  0  0  0  0  0  0  0  0  0  0  0
    3.4952   -0.1216    1.2142 C   0  0  0  0  0  0  0  0  0  0  0  0
    4.2094   -0.2523    0.0146 C   0  0  0  0  0  0  0  0  0  0  0  0
    5.6556   -0.3762    0.0548 C   0  0  0  0  0  0  0  0  0  0  0  0
    6.3916   -0.8992   -0.9400 C   0  0  0  0  0  0  0  0  0  0  0  0
    7.8446   -0.9645   -0.9032 C   0  0  0  0  0  0  0  0  0  0  0  0
    8.6591   -0.7009   -1.9553 C   0  0  0  0  0  0  0  0  0  0  0  0
   10.1344   -0.7152   -1.9576 C   0  0  0  0  0  0  0  0  0  0  0  0
   10.8829   -0.9908   -1.0612 O   0  0  0  0  0  0  0  0  0  0  0  0
   10.5534   -0.3057   -3.3399 C   0  0  0  0  0  0  0  0  0  0  0  0
   11.8191   -0.1373   -3.8580 C   0  0  0  0  0  0  0  0  0  0  0  0
   11.9311    0.2590   -5.2006 C   0  0  0  0  0  0  0  0  0  0  0  0
   10.7996    0.4745   -5.9806 C   0  0  0  0  0  0  0  0  0  0  0  0
    9.5119    0.3052   -5.4469 C   0  0  0  0  0  0  0  0  0  0  0  0
    9.4075   -0.0833   -4.1285 C   0  0  0  0  0  0  0  0  0  0  0  0
    8.1880   -0.3317   -3.3033 C   0  0  0  0  0  0  0  0  0  0  0  0
    7.0489   -0.2537   -3.6841 O   0  0  0  0  0  0  0  0  0  0  0  0
    8.4409   -1.2975    0.2546 O   0  0  0  0  0  0  0  0  0  0  0  0
    3.4985   -0.2407   -1.1924 C   0  0  0  0  0  0  0  0  0  0  0  0
    2.1190   -0.1137   -1.2083 C   0  0  0  0  0  0  0  0  0  0  0  0
   -0.6869    0.5146    1.1944 C   0  0  0  0  0  0  0  0  0  0  0  0
   -0.6814    0.3509   -1.2559 C   0  0  0  0  0  0  0  0  0  0  0  0
    1.5968    0.0875    2.1652 H   0  0  0  0  0  0  0  0  0  0  0  0
    4.0312   -0.1167    2.1646 H   0  0  0  0  0  0  0  0  0  0  0  0
    6.1286    0.0055    0.9675 H   0  0  0  0  0  0  0  0  0  0  0  0
    5.9413   -1.2570   -1.8760 H   0  0  0  0  0  0  0  0  0  0  0  0
   12.7038   -0.3044   -3.2445 H   0  0  0  0  0  0  0  0  0  0  0  0
   12.9208    0.3993   -5.6329 H   0  0  0  0  0  0  0  0  0  0  0  0
   10.9089    0.7803   -7.0197 H   0  0  0  0  0  0  0  0  0  0  0  0
    8.6241    0.4771   -6.0532 H   0  0  0  0  0  0  0  0  0  0  0  0
    7.7938   -1.5359    0.9706 H   0  0  0  0  0  0  0  0  0  0  0  0
    4.0396   -0.3145   -2.1410 H   0  0  0  0  0  0  0  0  0  0  0  0
    1.6035   -0.1078   -2.1640 H   0  0  0  0  0  0  0  0  0  0  0  0
   -1.7802    0.4377    1.0669 H   0  0  0  0  0  0  0  0  0  0  0  0
   -0.4344    1.5636    1.4212 H   0  0  0  0  0  0  0  0  0  0  0  0
   -0.4289   -0.1104    2.0693 H   0  0  0  0  0  0  0  0  0  0  0  0
   -1.7749    0.3511   -1.1139 H   0  0  0  0  0  0  0  0  0  0  0  0
   -0.4626   -0.4212   -2.0177 H   0  0  0  0  0  0  0  0  0  0  0  0
   -0.3834    1.3370   -1.6494 H   0  0  0  0  0  0  0  0  0  0  0  0
  1  2  1  0  0  0  0
  1 23  1  0  0  0  0
  2  3  2  0  0  0  0
  3 25  1  0  0  0  0
  4  3  1  0  0  0  0
  4 26  1  0  0  0  0
  5  6  1  0  0  0  0
  5  4  2  0  0  0  0
  6 27  1  0  0  0  0
  7  8  1  0  0  0  0
  7  6  2  0  0  0  0
  8 20  1  0  0  0  0
  9  8  2  0  0  0  0
 10  9  1  0  0  0  0
 10 11  2  0  0  0  0
 12 10  1  0  0  0  0
 13 12  1  0  0  0  0
 13 29  1  0  0  0  0
 14 13  2  0  0  0  0
 15 16  2  0  0  0  0
 15 14  1  0  0  0  0
 16 17  1  0  0  0  0
 17 12  2  0  0  0  0
 17 18  1  0  0  0  0
 18  9  1  0  0  0  0
 19 18  2  0  0  0  0
 20 33  1  0  0  0  0
 21  5  1  0  0  0  0
 22 21  2  0  0  0  0
 22  2  1  0  0  0  0
 23 37  1  0  0  0  0
 23 38  1  0  0  0  0
 24 39  1  0  0  0  0
 24  1  1  0  0  0  0
 28  7  1  0  0  0  0
 30 14  1  0  0  0  0
 31 15  1  0  0  0  0
 32 16  1  0  0  0  0
 34 21  1  0  0  0  0
 35 22  1  0  0  0  0
 36 23  1  0  0  0  0
 40 24  1  0  0  0  0
 41 24  1  0  0  0  0
M  END
$$$$
