41
rmsd30.gzmat
N          0.00000        0.00000        0.00000
C          1.39390        0.00000        0.00000
C          2.11740        0.00000        1.21570
C          3.49500        0.13740        1.21150
C          4.20840        0.25730        0.01030
C          5.65300        0.39700        0.04300
C          6.45200        0.14800       -1.00840
C          7.89310        0.34080       -0.98340
C          8.62720        0.84280       -2.00810
C         10.08730        1.05360       -2.02490
O         10.88790        0.81510       -1.16350
C         10.40900        1.64680       -3.36600
C         11.62540        2.03510       -3.88360
C         11.64490        2.57960       -5.17800
C         10.47250        2.72020       -5.91340
C          9.23560        2.31920       -5.38320
C          9.22220        1.78520       -4.11240
C          8.07310        1.27760       -3.30370
O          6.92510        1.22790       -3.66200
O          8.56670        0.00340        0.13010
C          3.49380        0.25320       -1.19490
C          2.11530        0.12120       -1.20920
C         -0.68800       -0.36510       -1.24700
C         -0.68980       -0.46970        1.21040
H          1.60030       -0.09610        2.16470
H          4.03170        0.14530        2.16160
H          6.06550        0.74300        0.99830
H          6.05170       -0.16620       -1.98260
H         12.54230        1.92420       -3.30610
H         12.59480        2.89730       -5.60580
H         10.50960        3.14770       -6.91410
H          8.31590        2.42810       -5.95580
H          7.99050       -0.41710        0.82220
H          4.02960        0.36710       -2.14280
H          1.59800        0.12360       -2.16380
H         -1.78190       -0.34840       -1.10440
H         -0.40390       -1.36200       -1.62200
H         -0.46010        0.38920       -2.02380
H         -1.78180       -0.46810        1.05670
H         -0.48840        0.23170        2.04190
H         -0.38490       -1.48430        1.51630
