rmsd29.gzmat
 OpenBabel08211713383D

 41 43  0  0  0  0  0  0  0  0999 V2000
    0.0000    0.0000    0.0000 N   0  0  0  0  0  0  0  0  0  0  0  0
    1.3953    0.0000    0.0000 C   0  0  0  0  0  0  0  0  0  0  0  0
    2.1234    0.0000    1.2117 C   0  0  0  0  0  0  0  0  0  0  0  0
    3.5004    0.1457    1.2025 C   0  0  0  0  0  0  0  0  0  0  0  0
    4.2059    0.2662   -0.0018 C   0  0  0  0  0  0  0  0  0  0  0  0
    5.6526    0.3996    0.0225 C   0  0  0  0  0  0  0  0  0  0  0  0
    6.4476   -0.0013   -0.9834 C   0  0  0  0  0  0  0  0  0  0  0  0
    7.8926    0.1641   -0.9787 C   0  0  0  0  0  0  0  0  0  0  0  0
    8.6479    0.4544   -2.0676 C   0  0  0  0  0  0  0  0  0  0  0  0
   10.1125    0.6329   -2.0972 C   0  0  0  0  0  0  0  0  0  0  0  0
   10.8940    0.5568   -1.1901 O   0  0  0  0  0  0  0  0  0  0  0  0
   10.4676    0.9409   -3.5228 C   0  0  0  0  0  0  0  0  0  0  0  0
   11.7013    1.1889   -4.0838 C   0  0  0  0  0  0  0  0  0  0  0  0
   11.7557    1.4487   -5.4627 C   0  0  0  0  0  0  0  0  0  0  0  0
   10.5991    1.4555   -6.2357 C   0  0  0  0  0  0  0  0  0  0  0  0
    9.3440    1.2038   -5.6586 C   0  0  0  0  0  0  0  0  0  0  0  0
    9.2961    0.9488   -4.3047 C   0  0  0  0  0  0  0  0  0  0  0  0
    8.1218    0.6485   -3.4313 C   0  0  0  0  0  0  0  0  0  0  0  0
    6.9753    0.5743   -3.7898 O   0  0  0  0  0  0  0  0  0  0  0  0
    8.5502    0.0228    0.1857 O   0  0  0  0  0  0  0  0  0  0  0  0
    3.4881    0.2592   -1.2051 C   0  0  0  0  0  0  0  0  0  0  0  0
    2.1098    0.1248   -1.2134 C   0  0  0  0  0  0  0  0  0  0  0  0
   -0.6781   -0.4546   -1.2243 C   0  0  0  0  0  0  0  0  0  0  0  0
   -0.6914   -0.4091    1.2313 C   0  0  0  0  0  0  0  0  0  0  0  0
    1.6123   -0.1077    2.1628 H   0  0  0  0  0  0  0  0  0  0  0  0
    4.0411    0.1553    2.1500 H   0  0  0  0  0  0  0  0  0  0  0  0
    6.0637    0.8657    0.9257 H   0  0  0  0  0  0  0  0  0  0  0  0
    6.0389   -0.4411   -1.9044 H   0  0  0  0  0  0  0  0  0  0  0  0
   12.6047    1.1821   -3.4755 H   0  0  0  0  0  0  0  0  0  0  0  0
   12.7196    1.6459   -5.9299 H   0  0  0  0  0  0  0  0  0  0  0  0
   10.6632    1.6574   -7.3039 H   0  0  0  0  0  0  0  0  0  0  0  0
    8.4371    1.2098   -6.2612 H   0  0  0  0  0  0  0  0  0  0  0  0
    7.9605   -0.2587    0.9348 H   0  0  0  0  0  0  0  0  0  0  0  0
    4.0209    0.3734   -2.1544 H   0  0  0  0  0  0  0  0  0  0  0  0
    1.5860    0.1316   -2.1647 H   0  0  0  0  0  0  0  0  0  0  0  0
   -1.7684   -0.4993   -1.0682 H   0  0  0  0  0  0  0  0  0  0  0  0
   -0.3362   -1.4464   -1.5641 H   0  0  0  0  0  0  0  0  0  0  0  0
   -0.5038    0.2803   -2.0324 H   0  0  0  0  0  0  0  0  0  0  0  0
   -1.7828   -0.3067    1.1037 H   0  0  0  0  0  0  0  0  0  0  0  0
   -0.4092    0.2704    2.0570 H   0  0  0  0  0  0  0  0  0  0  0  0
   -0.4703   -1.4472    1.5297 H   0  0  0  0  0  0  0  0  0  0  0  0
  1  2  1  0  0  0  0
  1 24  1  0  0  0  0
  2  3  2  0  0  0  0
  3 25  1  0  0  0  0
  4  3  1  0  0  0  0
  4 26  1  0  0  0  0
  5  6  1  0  0  0  0
  5  4  2  0  0  0  0
  6 27  1  0  0  0  0
  7  8  1  0  0  0  0
  7  6  2  0  0  0  0
  8 20  1  0  0  0  0
  9  8  2  0  0  0  0
 10  9  1  0  0  0  0
 10 11  2  0  0  0  0
 12 10  1  0  0  0  0
 13 12  1  0  0  0  0
 13 29  1  0  0  0  0
 14 13  2  0  0  0  0
 15 16  2  0  0  0  0
 15 14  1  0  0  0  0
 16 17  1  0  0  0  0
 17 12  2  0  0  0  0
 17 18  1  0  0  0  0
 18  9  1  0  0  0  0
 19 18  2  0  0  0  0
 20 33  1  0  0  0  0
 21  5  1  0  0  0  0
 22 21  2  0  0  0  0
 22  2  1  0  0  0  0
 23 36  1  0  0  0  0
 23  1  1  0  0  0  0
 24 41  1  0  0  0  0
 24 40  1  0  0  0  0
 28  7  1  0  0  0  0
 30 14  1  0  0  0  0
 31 15  1  0  0  0  0
 32 16  1  0  0  0  0
 34 21  1  0  0  0  0
 35 22  1  0  0  0  0
 37 23  1  0  0  0  0
 38 23  1  0  0  0  0
 39 24  1  0  0  0  0
M  END
$$$$
