rmsd100.gzmat
 OpenBabel08211713383D

 41 43  0  0  0  0  0  0  0  0999 V2000
    0.0000    0.0000    0.0000 N   0  0  0  0  0  0  0  0  0  0  0  0
    1.3944    0.0000    0.0000 C   0  0  0  0  0  0  0  0  0  0  0  0
    2.1158    0.0000    1.2154 C   0  0  0  0  0  0  0  0  0  0  0  0
    3.4929    0.1461    1.2149 C   0  0  0  0  0  0  0  0  0  0  0  0
    4.2050    0.2848    0.0164 C   0  0  0  0  0  0  0  0  0  0  0  0
    5.6466    0.4534   -0.0036 C   0  0  0  0  0  0  0  0  0  0  0  0
    6.4601    0.1005    1.0061 C   0  0  0  0  0  0  0  0  0  0  0  0
    7.8966    0.3281    0.9840 C   0  0  0  0  0  0  0  0  0  0  0  0
    8.6440    0.7120    2.0492 C   0  0  0  0  0  0  0  0  0  0  0  0
   10.0968    0.9700    2.0531 C   0  0  0  0  0  0  0  0  0  0  0  0
   10.8773    0.8698    1.1473 O   0  0  0  0  0  0  0  0  0  0  0  0
   10.4419    1.3991    3.4492 C   0  0  0  0  0  0  0  0  0  0  0  0
   11.6613    1.7640    3.9768 C   0  0  0  0  0  0  0  0  0  0  0  0
   11.7079    2.1284    5.3322 C   0  0  0  0  0  0  0  0  0  0  0  0
   10.5574    2.1225    6.1143 C   0  0  0  0  0  0  0  0  0  0  0  0
    9.3175    1.7501    5.5709 C   0  0  0  0  0  0  0  0  0  0  0  0
    9.2775    1.3907    4.2407 C   0  0  0  0  0  0  0  0  0  0  0  0
    8.1186    0.9509    3.4061 C   0  0  0  0  0  0  0  0  0  0  0  0
    6.9857    0.8092    3.7869 O   0  0  0  0  0  0  0  0  0  0  0  0
    8.5524    0.1562   -0.1773 O   0  0  0  0  0  0  0  0  0  0  0  0
    3.4922    0.2767   -1.1909 C   0  0  0  0  0  0  0  0  0  0  0  0
    2.1165    0.1252   -1.2091 C   0  0  0  0  0  0  0  0  0  0  0  0
   -0.6874   -0.3402   -1.2546 C   0  0  0  0  0  0  0  0  0  0  0  0
   -0.6853   -0.5115    1.1968 C   0  0  0  0  0  0  0  0  0  0  0  0
    1.5992   -0.1004    2.1652 H   0  0  0  0  0  0  0  0  0  0  0  0
    4.0295    0.1648    2.1689 H   0  0  0  0  0  0  0  0  0  0  0  0
    6.0451    0.9163   -0.9148 H   0  0  0  0  0  0  0  0  0  0  0  0
    6.0801   -0.3358    1.9399 H   0  0  0  0  0  0  0  0  0  0  0  0
   12.5601    1.7694    3.3614 H   0  0  0  0  0  0  0  0  0  0  0  0
   12.6607    2.4191    5.7721 H   0  0  0  0  0  0  0  0  0  0  0  0
   10.6143    2.4092    7.1631 H   0  0  0  0  0  0  0  0  0  0  0  0
    8.4153    1.7451    6.1803 H   0  0  0  0  0  0  0  0  0  0  0  0
    7.9699   -0.1839   -0.9074 H   0  0  0  0  0  0  0  0  0  0  0  0
    4.0272    0.3845   -2.1357 H   0  0  0  0  0  0  0  0  0  0  0  0
    1.6004    0.1151   -2.1633 H   0  0  0  0  0  0  0  0  0  0  0  0
   -1.7808   -0.3144   -1.1114 H   0  0  0  0  0  0  0  0  0  0  0  0
   -0.4106   -1.3336   -1.6447 H   0  0  0  0  0  0  0  0  0  0  0  0
   -0.4527    0.4231   -2.0201 H   0  0  0  0  0  0  0  0  0  0  0  0
   -1.7790   -0.4503    1.0674 H   0  0  0  0  0  0  0  0  0  0  0  0
   -0.4363    0.1276    2.0648 H   0  0  0  0  0  0  0  0  0  0  0  0
   -0.4195   -1.5550    1.4332 H   0  0  0  0  0  0  0  0  0  0  0  0
  1  2  1  0  0  0  0
  1 24  1  0  0  0  0
  2  3  2  0  0  0  0
  3 25  1  0  0  0  0
  4  3  1  0  0  0  0
  4 26  1  0  0  0  0
  5  4  2  0  0  0  0
  6  5  1  0  0  0  0
  6  7  2  0  0  0  0
  7 28  1  0  0  0  0
  8  7  1  0  0  0  0
  8  9  2  0  0  0  0
  9 10  1  0  0  0  0
  9 18  1  0  0  0  0
 10 12  1  0  0  0  0
 11 10  2  0  0  0  0
 12 13  2  0  0  0  0
 12 17  1  0  0  0  0
 13 14  1  0  0  0  0
 14 30  1  0  0  0  0
 14 15  2  0  0  0  0
 15 31  1  0  0  0  0
 16 15  1  0  0  0  0
 16 32  1  0  0  0  0
 17 16  2  0  0  0  0
 18 19  2  0  0  0  0
 18 17  1  0  0  0  0
 20  8  1  0  0  0  0
 21  5  1  0  0  0  0
 22 21  2  0  0  0  0
 22  2  1  0  0  0  0
 23 36  1  0  0  0  0
 23  1  1  0  0  0  0
 24 41  1  0  0  0  0
 24 40  1  0  0  0  0
 27  6  1  0  0  0  0
 29 13  1  0  0  0  0
 33 20  1  0  0  0  0
 34 21  1  0  0  0  0
 35 22  1  0  0  0  0
 37 23  1  0  0  0  0
 38 23  1  0  0  0  0
 39 24  1  0  0  0  0
M  END
$$$$
