41
rmsd65.gzmat
N          0.00000        0.00000        0.00000
C          1.39360        0.00000        0.00000
C          2.12090        0.00000        1.21190
C          3.49660        0.16120        1.20540
C          4.20210        0.31580        0.00490
C          5.63880        0.51870       -0.02770
C          6.36870        0.91950        1.02730
C          7.80960        1.11040        0.97290
C          8.67780        0.82330        1.97540
C         10.14180        1.00760        1.94990
O         10.82600        1.44890        1.06870
C         10.64760        0.52550        3.27860
C         11.93800        0.47600        3.75930
C         12.13770       -0.03340        5.05270
C         11.06520       -0.47300        5.82200
C          9.75190       -0.41730        5.32830
C          9.56130        0.08390        4.05860
C          8.29570        0.26300        3.28440
O          7.18620        0.00710        3.67450
O          8.34390        1.61400       -0.15380
C          3.48670        0.27220       -1.20110
C          2.11190        0.11660       -1.21330
C         -0.68800       -0.39500       -1.23840
C         -0.69120       -0.44370        1.21960
H          1.61050       -0.12170        2.16250
H          4.03930        0.15360        2.15570
H          6.11280        0.31910       -0.99690
H          5.92250        1.08480        2.01780
H         12.77580        0.82050        3.15430
H         13.14860       -0.08400        5.45470
H         11.24110       -0.86720        6.82160
H          8.91030       -0.75980        5.92850
H          7.66070        1.87410       -0.82690
H          4.01840        0.36650       -2.14950
H          1.59200        0.09480       -2.16540
H         -1.78110       -0.38800       -1.09130
H         -0.39230       -1.39550       -1.59590
H         -0.47330        0.34720       -2.03010
H         -1.78440       -0.38300        1.08340
H         -0.43940        0.23870        2.05350
H         -0.43500       -1.47580        1.51160
