rmsd25.gzmat
 OpenBabel08211713383D

 41 43  0  0  0  0  0  0  0  0999 V2000
    0.0000    0.0000    0.0000 N   0  0  0  0  0  0  0  0  0  0  0  0
    1.3922    0.0000    0.0000 C   0  0  0  0  0  0  0  0  0  0  0  0
    2.1171    0.0000    1.2150 C   0  0  0  0  0  0  0  0  0  0  0  0
    3.4924    0.1494    1.2089 C   0  0  0  0  0  0  0  0  0  0  0  0
    4.2055    0.2887    0.0079 C   0  0  0  0  0  0  0  0  0  0  0  0
    5.6452    0.4532    0.0597 C   0  0  0  0  0  0  0  0  0  0  0  0
    6.4608    0.4612   -1.0092 C   0  0  0  0  0  0  0  0  0  0  0  0
    7.8974    0.6628   -0.8978 C   0  0  0  0  0  0  0  0  0  0  0  0
    8.6599    1.3800   -1.7610 C   0  0  0  0  0  0  0  0  0  0  0  0
   10.1067    1.6476   -1.6448 C   0  0  0  0  0  0  0  0  0  0  0  0
   10.8701    1.2809   -0.7948 O   0  0  0  0  0  0  0  0  0  0  0  0
   10.4705    2.5032   -2.8241 C   0  0  0  0  0  0  0  0  0  0  0  0
   11.6908    3.0352   -3.1802 C   0  0  0  0  0  0  0  0  0  0  0  0
   11.7540    3.8074   -4.3515 C   0  0  0  0  0  0  0  0  0  0  0  0
   10.6201    4.0278   -5.1267 C   0  0  0  0  0  0  0  0  0  0  0  0
    9.3785    3.4853   -4.7586 C   0  0  0  0  0  0  0  0  0  0  0  0
    9.3220    2.7287   -3.6079 C   0  0  0  0  0  0  0  0  0  0  0  0
    8.1562    2.0348   -2.9821 C   0  0  0  0  0  0  0  0  0  0  0  0
    7.0338    2.0111   -3.4158 O   0  0  0  0  0  0  0  0  0  0  0  0
    8.5376    0.1066    0.1464 O   0  0  0  0  0  0  0  0  0  0  0  0
    3.4891    0.2753   -1.1965 C   0  0  0  0  0  0  0  0  0  0  0  0
    2.1126    0.1249   -1.2098 C   0  0  0  0  0  0  0  0  0  0  0  0
   -0.6908   -0.4089   -1.2314 C   0  0  0  0  0  0  0  0  0  0  0  0
   -0.6951   -0.4113    1.2277 C   0  0  0  0  0  0  0  0  0  0  0  0
    1.6022   -0.1082    2.1640 H   0  0  0  0  0  0  0  0  0  0  0  0
    4.0293    0.1552    2.1594 H   0  0  0  0  0  0  0  0  0  0  0  0
    6.0529    0.5961    1.0697 H   0  0  0  0  0  0  0  0  0  0  0  0
    6.0862    0.3759   -2.0373 H   0  0  0  0  0  0  0  0  0  0  0  0
   12.5782    2.8622   -2.5724 H   0  0  0  0  0  0  0  0  0  0  0  0
   12.7073    4.2392   -4.6531 H   0  0  0  0  0  0  0  0  0  0  0  0
   10.6914    4.6288   -6.0317 H   0  0  0  0  0  0  0  0  0  0  0  0
    8.4883    3.6552   -5.3624 H   0  0  0  0  0  0  0  0  0  0  0  0
    7.9479   -0.4680    0.7034 H   0  0  0  0  0  0  0  0  0  0  0  0
    4.0200    0.3936   -2.1457 H   0  0  0  0  0  0  0  0  0  0  0  0
    1.5931    0.1218   -2.1634 H   0  0  0  0  0  0  0  0  0  0  0  0
   -1.7840   -0.3532   -1.0951 H   0  0  0  0  0  0  0  0  0  0  0  0
   -0.4309   -1.4317   -1.5522 H   0  0  0  0  0  0  0  0  0  0  0  0
   -0.4386    0.2951   -2.0476 H   0  0  0  0  0  0  0  0  0  0  0  0
   -1.7872   -0.3292    1.0942 H   0  0  0  0  0  0  0  0  0  0  0  0
   -0.4288    0.2788    2.0508 H   0  0  0  0  0  0  0  0  0  0  0  0
   -0.4582   -1.4432    1.5350 H   0  0  0  0  0  0  0  0  0  0  0  0
  1  2  1  0  0  0  0
  1 24  1  0  0  0  0
  2  3  2  0  0  0  0
  3 25  1  0  0  0  0
  4  3  1  0  0  0  0
  4 26  1  0  0  0  0
  5  6  1  0  0  0  0
  5  4  2  0  0  0  0
  6 27  1  0  0  0  0
  7  8  1  0  0  0  0
  7  6  2  0  0  0  0
  8 20  1  0  0  0  0
  9 10  1  0  0  0  0
  9  8  2  0  0  0  0
 10 11  2  0  0  0  0
 12 10  1  0  0  0  0
 13 12  1  0  0  0  0
 13 29  1  0  0  0  0
 14 13  2  0  0  0  0
 15 16  2  0  0  0  0
 15 14  1  0  0  0  0
 16 17  1  0  0  0  0
 17 18  1  0  0  0  0
 17 12  2  0  0  0  0
 18  9  1  0  0  0  0
 19 18  2  0  0  0  0
 20 33  1  0  0  0  0
 21  5  1  0  0  0  0
 22 21  2  0  0  0  0
 22  2  1  0  0  0  0
 23 36  1  0  0  0  0
 23  1  1  0  0  0  0
 24 41  1  0  0  0  0
 24 40  1  0  0  0  0
 28  7  1  0  0  0  0
 30 14  1  0  0  0  0
 31 15  1  0  0  0  0
 32 16  1  0  0  0  0
 34 21  1  0  0  0  0
 35 22  1  0  0  0  0
 37 23  1  0  0  0  0
 38 23  1  0  0  0  0
 39 24  1  0  0  0  0
M  END
$$$$
