41
rmsd96.gzmat
N          0.00000        0.00000        0.00000
C          1.39530        0.00000        0.00000
C          2.11680        0.00000        1.21510
C          3.49330       -0.15150        1.21400
C          4.20250       -0.28970        0.01400
C          5.64580       -0.45380       -0.00190
C          6.33810       -0.99520        1.01400
C          7.78750       -1.11480        1.02250
C          8.57590       -0.94060        2.11280
C         10.04730       -1.03880        2.15810
O         10.80890       -1.28180        1.26360
C         10.44180       -0.76390        3.58020
C         11.69500       -0.73650        4.15250
C         11.78440       -0.44810        5.52400
C         10.64340       -0.19580        6.27860
C          9.36900       -0.22460        5.69020
C          9.28600       -0.51080        4.34430
C          8.08350       -0.61480        3.46400
O          6.93980       -0.46970        3.81000
O          8.41200       -1.41880       -0.12840
C          3.49400       -0.25660       -1.19450
C          2.11650       -0.11720       -1.21090
C         -0.68530        0.49070        1.20540
C         -0.68400        0.37770       -1.24630
H          1.60250        0.11250        2.16490
H          4.03310       -0.14780        2.16640
H          6.14670       -0.09220       -0.90730
H          5.84610       -1.33790        1.93560
H         12.58740       -0.93190        3.55920
H         12.76390       -0.42270        5.99950
H         10.73470        0.02770        7.34030
H          8.47410       -0.02680        6.27800
H          7.78300       -1.60260       -0.87570
H          4.03140       -0.34790       -2.13960
H          1.59990       -0.10710       -2.16520
H         -1.77800        0.41030        1.07850
H         -0.43690        1.53710        1.44810
H         -0.42280       -0.15000        2.06800
H         -1.77600        0.40110       -1.09420
H         -0.48910       -0.39130       -2.01660
H         -0.36850        1.36080       -1.63290
