41
rmsd104.gzmat
N          0.00000        0.00000        0.00000
C          1.39480        0.00000        0.00000
C          2.11410        0.00000        1.21680
C          3.49380       -0.12200        1.21800
C          4.21190       -0.23360        0.01990
C          5.65920       -0.34000       -0.01020
C          6.46310        0.00070        1.01150
C          7.91000       -0.14310        0.96630
C          8.69020       -0.52740        2.00780
C         10.15550       -0.70160        1.99220
O         10.92040       -0.53210        1.08360
C         10.53800       -1.15200        3.37230
C         11.78200       -1.45620        3.88060
C         11.86190       -1.86080        5.22300
C         10.71950       -1.95300        6.01150
C          9.45390       -1.64150        5.48850
C          9.38180       -1.24230        4.17100
C          8.19140       -0.84930        3.35780
O          7.05440       -0.79630        3.74890
O          8.54250        0.11830       -0.19150
C          3.49830       -0.24620       -1.18760
C          2.12000       -0.12220       -1.20790
C         -0.68190        0.54230        1.18570
C         -0.68850        0.31720       -1.26000
H          1.59330        0.08200        2.16610
H          4.02500       -0.14150        2.17490
H          6.07580       -0.73520       -0.94570
H          6.06800        0.36210        1.97110
H         12.67470       -1.38500        3.26030
H         12.83470       -2.10500        5.64780
H         10.80320       -2.27080        7.04950
H          8.55770       -1.71280        6.10330
H          7.93480        0.46190       -0.89910
H          4.03600       -0.34740       -2.13170
H          1.60480       -0.12820       -2.16290
H         -1.77430        0.54860        1.03260
H         -0.35980        1.56680        1.43610
H         -0.48870       -0.11720        2.05270
H         -1.78150        0.25260       -1.12260
H         -0.42430       -0.43630       -2.02520
H         -0.44320        1.32010       -1.64710
