37

N          0.04320        0.06640        0.00170
C          1.41600       -0.05180        0.14720
O          2.01920        0.04020        1.18960
C          1.97350       -0.27380       -1.25790
C          0.74090       -0.57200       -2.12830
C         -0.42710       -0.06930       -1.30270
C         -1.67730        0.25010       -1.70150
C         -2.19820        0.09800       -3.05370
N         -2.93690        1.09390       -3.63300
H         -3.12450        2.00550       -3.23700
C         -3.33110        0.72710       -4.90270
C         -2.84340       -0.56130       -5.14310
C         -2.13670       -0.96390       -3.97340
C         -1.54060       -2.31850       -3.74800
C         -3.04550       -1.38840       -6.37390
C         -4.11630        1.61760       -5.74620
O         -4.50380        1.38440       -6.87240
O         -4.37280        2.79160       -5.10250
C         -5.16160        3.76010       -5.80900
C         -6.64820        3.47620       -5.67820
H         -0.54420        0.30580        0.79330
H          2.48410        0.65650       -1.55770
H          2.72980       -1.07000       -1.24520
H          0.75510       -0.10380       -3.12180
H          0.64140       -1.65620       -2.28790
H         -2.35090        0.69690       -0.96010
H         -1.45120       -2.53900       -2.67410
H         -0.53650       -2.42310       -4.19620
H         -2.16970       -3.10230       -4.19860
H         -2.07930       -1.67730       -6.82100
H         -3.62700       -0.83740       -7.12280
H         -3.57810       -2.32600       -6.13780
H         -4.85760        3.76520       -6.86600
H         -4.89630        4.72570       -5.35430
H         -6.90110        2.52280       -6.16390
H         -7.22960        4.27590       -6.16440
H         -6.94670        3.42650       -4.61940
