rmsd209.gzmat
 OpenBabel08211713383D

 37 38  0  0  0  0  0  0  0  0999 V2000
    0.0000    0.0000    0.0000 N   0  0  0  0  0  0  0  0  0  0  0  0
    1.4085    0.0000    0.0000 C   0  0  0  0  0  0  0  0  0  0  0  0
    2.0503    0.0000    1.0156 O   0  0  0  0  0  0  0  0  0  0  0  0
    1.8904   -0.0020   -1.4361 C   0  0  0  0  0  0  0  0  0  0  0  0
    0.6079    0.0098   -2.2879 C   0  0  0  0  0  0  0  0  0  0  0  0
   -0.5346   -0.0127   -1.2984 C   0  0  0  0  0  0  0  0  0  0  0  0
   -1.8493   -0.0358   -1.5813 C   0  0  0  0  0  0  0  0  0  0  0  0
   -2.3230   -0.1114   -2.9452 C   0  0  0  0  0  0  0  0  0  0  0  0
   -2.9897    0.9385   -3.5408 N   0  0  0  0  0  0  0  0  0  0  0  0
   -3.2101    1.8185   -3.1269 H   0  0  0  0  0  0  0  0  0  0  0  0
   -3.3180    0.5757   -4.8495 C   0  0  0  0  0  0  0  0  0  0  0  0
   -2.8552   -0.7333   -5.0744 C   0  0  0  0  0  0  0  0  0  0  0  0
   -2.2282   -1.1656   -3.8766 C   0  0  0  0  0  0  0  0  0  0  0  0
   -1.6138   -2.4841   -3.6437 C   0  0  0  0  0  0  0  0  0  0  0  0
   -3.0021   -1.5148   -6.3121 C   0  0  0  0  0  0  0  0  0  0  0  0
   -4.0175    1.4595   -5.7568 C   0  0  0  0  0  0  0  0  0  0  0  0
   -4.3556    1.2432   -6.8942 O   0  0  0  0  0  0  0  0  0  0  0  0
   -4.2579    2.6585   -5.1461 O   0  0  0  0  0  0  0  0  0  0  0  0
   -4.9996    3.6295   -5.8845 C   0  0  0  0  0  0  0  0  0  0  0  0
   -6.4785    3.2801   -5.8495 C   0  0  0  0  0  0  0  0  0  0  0  0
   -0.5593   -0.0121    0.8326 H   0  0  0  0  0  0  0  0  0  0  0  0
    2.5354    0.8751   -1.6295 H   0  0  0  0  0  0  0  0  0  0  0  0
    2.5183   -0.8904   -1.6321 H   0  0  0  0  0  0  0  0  0  0  0  0
    0.5470    0.9045   -2.9377 H   0  0  0  0  0  0  0  0  0  0  0  0
    0.5524   -0.8566   -2.9769 H   0  0  0  0  0  0  0  0  0  0  0  0
   -2.6145   -0.0342   -0.8076 H   0  0  0  0  0  0  0  0  0  0  0  0
   -1.2723   -2.6061   -2.6057 H   0  0  0  0  0  0  0  0  0  0  0  0
   -0.7502   -2.6529   -4.3042 H   0  0  0  0  0  0  0  0  0  0  0  0
   -2.3309   -3.2975   -3.8405 H   0  0  0  0  0  0  0  0  0  0  0  0
   -2.0433   -1.9426   -6.6403 H   0  0  0  0  0  0  0  0  0  0  0  0
   -3.3932   -0.9056   -7.1471 H   0  0  0  0  0  0  0  0  0  0  0  0
   -3.7042   -2.3530   -6.1724 H   0  0  0  0  0  0  0  0  0  0  0  0
   -4.6047    3.6930   -6.9148 H   0  0  0  0  0  0  0  0  0  0  0  0
   -4.7626    4.5560   -5.3285 H   0  0  0  0  0  0  0  0  0  0  0  0
   -6.6834    2.3751   -6.4408 H   0  0  0  0  0  0  0  0  0  0  0  0
   -7.0926    4.0887   -6.2598 H   0  0  0  0  0  0  0  0  0  0  0  0
   -6.8174    3.0823   -4.8250 H   0  0  0  0  0  0  0  0  0  0  0  0
  1 21  1  0  0  0  0
  2  1  1  0  0  0  0
  2  3  2  0  0  0  0
  4  2  1  0  0  0  0
  5  4  1  0  0  0  0
  5  6  1  0  0  0  0
  6  1  1  0  0  0  0
  7  6  2  0  0  0  0
  7 26  1  0  0  0  0
  8  7  1  0  0  0  0
  9 10  1  0  0  0  0
  9  8  1  0  0  0  0
 11  9  1  0  0  0  0
 12 11  2  0  0  0  0
 12 13  1  0  0  0  0
 13 14  1  0  0  0  0
 13  8  2  0  0  0  0
 14 27  1  0  0  0  0
 15 32  1  0  0  0  0
 15 12  1  0  0  0  0
 16 18  1  0  0  0  0
 16 11  1  0  0  0  0
 17 16  2  0  0  0  0
 19 20  1  0  0  0  0
 19 34  1  0  0  0  0
 19 18  1  0  0  0  0
 20 37  1  0  0  0  0
 22  4  1  0  0  0  0
 23  4  1  0  0  0  0
 24  5  1  0  0  0  0
 25  5  1  0  0  0  0
 28 14  1  0  0  0  0
 29 14  1  0  0  0  0
 30 15  1  0  0  0  0
 31 15  1  0  0  0  0
 33 19  1  0  0  0  0
 35 20  1  0  0  0  0
 36 20  1  0  0  0  0
M  END
$$$$
