37
rmsd191.gzmat
N          0.00000        0.00000        0.00000
C          1.40850        0.00000        0.00000
O          2.05140        0.00000        1.01490
C          1.88960        0.00500       -1.43630
C          0.60710       -0.02000       -2.28790
C         -0.53530       -0.00410       -1.29810
C         -1.85060        0.00050       -1.57870
C         -2.33270        0.02980       -2.94130
N         -3.00060       -1.04580       -3.48950
H         -3.20770       -1.91210       -3.04090
C         -3.34610       -0.73440       -4.80680
C         -2.89110        0.56690       -5.08630
C         -2.25250        1.04740       -3.91340
C         -1.63800        2.37560       -3.74150
C         -3.05060        1.29800       -6.35290
C         -4.04890       -1.65570       -5.67360
O         -4.41500       -1.47540       -6.80850
O         -4.27200       -2.83550       -5.02070
C         -4.92630       -3.87230       -5.75210
C         -3.95720       -4.51150       -6.73260
H         -0.56040        0.00620        0.83170
H          2.50820        0.90040       -1.63120
H          2.54380       -0.86430       -1.63100
H          0.54290        0.84520       -2.97700
H          0.55520       -0.91590       -2.93640
H         -2.61390        0.00560       -0.80310
H         -1.33320        2.56170       -2.70150
H         -2.34090        3.17860       -4.01640
H         -0.74950        2.49680       -4.37840
H         -3.68630        2.18810       -6.22340
H         -3.52250        0.67850       -7.13680
H         -2.08320        1.64170       -6.74790
H         -5.82090       -3.45940       -6.25240
H         -5.22640       -4.55800       -4.93770
H         -3.68080       -3.80490       -7.52970
H         -4.39510       -5.39370       -7.21190
H         -3.02940       -4.81930       -6.23630
