
     RDKit          3D

 37 38  0  0  0  0  0  0  0  0999 V2000
    0.0269   -0.0681   -0.0007 N   0  0  0  0  0  0  0  0  0  0  0  0
    1.4017    0.0225    0.1453 C   0  0  0  0  0  0  0  0  0  0  0  0
    2.0023   -0.0781    1.1884 O   0  0  0  0  0  0  0  0  0  0  0  0
    1.9645    0.2279   -1.2603 C   0  0  0  0  0  0  0  0  0  0  0  0
    0.7388    0.5482   -2.1325 C   0  0  0  0  0  0  0  0  0  0  0  0
   -0.4398    0.0723   -1.3059 C   0  0  0  0  0  0  0  0  0  0  0  0
   -1.6960   -0.2231   -1.7044 C   0  0  0  0  0  0  0  0  0  0  0  0
   -2.2132   -0.0655   -3.0574 C   0  0  0  0  0  0  0  0  0  0  0  0
   -2.9722   -1.0482   -3.6329 N   0  0  0  0  0  0  0  0  0  0  0  0
   -3.1780   -1.9544   -3.2336 H   0  0  0  0  0  0  0  0  0  0  0  0
   -3.3576   -0.6788   -4.9046 C   0  0  0  0  0  0  0  0  0  0  0  0
   -2.8431    0.5982   -5.1500 C   0  0  0  0  0  0  0  0  0  0  0  0
   -2.1290    0.9911   -3.9815 C   0  0  0  0  0  0  0  0  0  0  0  0
   -1.5052    2.3339   -3.7614 C   0  0  0  0  0  0  0  0  0  0  0  0
   -3.0270    1.4239   -6.3846 C   0  0  0  0  0  0  0  0  0  0  0  0
   -4.1605   -1.5565   -5.7447 C   0  0  0  0  0  0  0  0  0  0  0  0
   -4.5438   -1.3198   -6.8716 O   0  0  0  0  0  0  0  0  0  0  0  0
   -4.4430   -2.7215   -5.0955 O   0  0  0  0  0  0  0  0  0  0  0  0
   -5.2127   -3.6955   -5.8152 C   0  0  0  0  0  0  0  0  0  0  0  0
   -4.3397   -4.5343   -6.7327 C   0  0  0  0  0  0  0  0  0  0  0  0
   -0.5658   -0.2925    0.7914 H   0  0  0  0  0  0  0  0  0  0  0  0
    2.7370    1.0084   -1.2499 H   0  0  0  0  0  0  0  0  0  0  0  0
    2.4560   -0.7138   -1.5563 H   0  0  0  0  0  0  0  0  0  0  0  0
    0.6615    1.6337   -2.2958 H   0  0  0  0  0  0  0  0  0  0  0  0
    0.7440    0.0764   -3.1244 H   0  0  0  0  0  0  0  0  0  0  0  0
   -2.3788   -0.6534   -0.9618 H   0  0  0  0  0  0  0  0  0  0  0  0
   -1.4124    2.5573   -2.6884 H   0  0  0  0  0  0  0  0  0  0  0  0
   -2.1174    3.1286   -4.2162 H   0  0  0  0  0  0  0  0  0  0  0  0
   -0.4986    2.4157   -4.2088 H   0  0  0  0  0  0  0  0  0  0  0  0
   -3.5430    2.3720   -6.1534 H   0  0  0  0  0  0  0  0  0  0  0  0
   -3.6174    0.8810   -7.1324 H   0  0  0  0  0  0  0  0  0  0  0  0
   -2.0546    1.6934   -6.8304 H   0  0  0  0  0  0  0  0  0  0  0  0
   -5.9960   -3.1783   -6.3886 H   0  0  0  0  0  0  0  0  0  0  0  0
   -5.6854   -4.3124   -5.0370 H   0  0  0  0  0  0  0  0  0  0  0  0
   -3.8997   -3.9080   -7.5221 H   0  0  0  0  0  0  0  0  0  0  0  0
   -4.9431   -5.3211   -7.2129 H   0  0  0  0  0  0  0  0  0  0  0  0
   -3.5275   -5.0179   -6.1678 H   0  0  0  0  0  0  0  0  0  0  0  0
  1  2  1  0
  1  6  1  0
  1 21  1  0
  2  3  2  0
  2  4  1  0
  4  5  1  0
  4 22  1  0
  4 23  1  0
  5  6  1  0
  5 24  1  0
  5 25  1  0
  6  7  2  0
  7  8  1  0
  7 26  1  0
  8  9  1  0
  8 13  2  0
  9 10  1  0
  9 11  1  0
 11 12  2  0
 11 16  1  0
 12 13  1  0
 12 15  1  0
 13 14  1  0
 14 27  1  0
 14 28  1  0
 14 29  1  0
 15 30  1  0
 15 31  1  0
 15 32  1  0
 16 17  2  0
 16 18  1  0
 18 19  1  0
 19 20  1  0
 19 33  1  0
 19 34  1  0
 20 35  1  0
 20 36  1  0
 20 37  1  0
M  END

