37
rmsd218.gzmat
N          0.00000        0.00000        0.00000
C          1.40840        0.00000        0.00000
O          2.05040        0.00000        1.01550
C          1.88990        0.00130       -1.43650
C          0.60700        0.01630       -2.28810
C         -0.53540        0.01560       -1.29810
C         -1.85080        0.02330       -1.57860
C         -2.33290        0.09400       -2.93950
N         -3.00270       -0.96070       -3.52380
H         -3.21210       -1.84120       -3.10520
C         -3.34920       -0.60300       -4.82910
C         -2.89160        0.70620       -5.06480
C         -2.25180        1.14450       -3.87620
C         -1.63900        2.46600       -3.65540
C         -3.05380        1.48080       -6.30500
C         -4.06000       -1.49060       -5.72370
O         -4.42180       -1.27380       -6.85370
O         -4.29980       -2.68510       -5.10410
C         -4.97450       -3.68880       -5.86230
C         -4.01280       -4.33170       -6.84780
H         -0.55970        0.00930        0.83200
H          2.53640        0.87760       -1.62840
H          2.51850       -0.88650       -1.63470
H          0.55300        0.90310       -2.95040
H          0.54310       -0.85790       -2.96460
H         -2.61400        0.00320       -0.80310
H         -1.39140        2.63600       -2.59770
H         -2.32050        3.27710       -3.95850
H         -0.71570        2.58880       -4.24040
H         -3.73350        2.33520       -6.15670
H         -3.48020        0.87420       -7.12420
H         -2.09460        1.88410       -6.66190
H         -5.85400       -3.24330       -6.36250
H         -5.29920       -4.38290       -5.06440
H         -3.70690       -3.61390       -7.62380
H         -4.47120       -5.18860       -7.35320
H         -3.10030       -4.68030       -6.35070
