rmsd230.gzmat
 OpenBabel08211713383D

 37 38  0  0  0  0  0  0  0  0999 V2000
    0.0000    0.0000    0.0000 N   0  0  0  0  0  0  0  0  0  0  0  0
    1.4084    0.0000    0.0000 C   0  0  0  0  0  0  0  0  0  0  0  0
    2.0509    0.0000    1.0152 O   0  0  0  0  0  0  0  0  0  0  0  0
    1.8896   -0.0025   -1.4364 C   0  0  0  0  0  0  0  0  0  0  0  0
    0.6067    0.0194   -2.2878 C   0  0  0  0  0  0  0  0  0  0  0  0
   -0.5358    0.0113   -1.2979 C   0  0  0  0  0  0  0  0  0  0  0  0
   -1.8512    0.0070   -1.5785 C   0  0  0  0  0  0  0  0  0  0  0  0
   -2.3326    0.0678   -2.9404 C   0  0  0  0  0  0  0  0  0  0  0  0
   -3.0020   -0.9925   -3.5153 N   0  0  0  0  0  0  0  0  0  0  0  0
   -3.2154   -1.8674   -3.0869 H   0  0  0  0  0  0  0  0  0  0  0  0
   -3.3411   -0.6503   -4.8267 C   0  0  0  0  0  0  0  0  0  0  0  0
   -2.8815    0.6556   -5.0751 C   0  0  0  0  0  0  0  0  0  0  0  0
   -2.2472    1.1076   -3.8886 C   0  0  0  0  0  0  0  0  0  0  0  0
   -1.6374    2.4327   -3.6804 C   0  0  0  0  0  0  0  0  0  0  0  0
   -3.0370    1.4156   -6.3252 C   0  0  0  0  0  0  0  0  0  0  0  0
   -4.0445   -1.5512   -5.7140 C   0  0  0  0  0  0  0  0  0  0  0  0
   -4.3731   -1.3637   -6.8594 O   0  0  0  0  0  0  0  0  0  0  0  0
   -4.3212   -2.7222   -5.0656 O   0  0  0  0  0  0  0  0  0  0  0  0
   -4.9792   -3.7429   -5.8151 C   0  0  0  0  0  0  0  0  0  0  0  0
   -3.9824   -4.4389   -6.7272 C   0  0  0  0  0  0  0  0  0  0  0  0
   -0.5593    0.0017    0.8321 H   0  0  0  0  0  0  0  0  0  0  0  0
    2.5420    0.8688   -1.6287 H   0  0  0  0  0  0  0  0  0  0  0  0
    2.5111   -0.8960   -1.6334 H   0  0  0  0  0  0  0  0  0  0  0  0
    0.5531    0.9120   -2.9418 H   0  0  0  0  0  0  0  0  0  0  0  0
    0.5429   -0.8494   -2.9713 H   0  0  0  0  0  0  0  0  0  0  0  0
   -2.6136   -0.0147   -0.8023 H   0  0  0  0  0  0  0  0  0  0  0  0
   -1.3119    2.5814   -2.6409 H   0  0  0  0  0  0  0  0  0  0  0  0
   -2.3524    3.2395   -3.9085 H   0  0  0  0  0  0  0  0  0  0  0  0
   -0.7645    2.5859   -4.3321 H   0  0  0  0  0  0  0  0  0  0  0  0
   -3.7310    2.2611   -6.1944 H   0  0  0  0  0  0  0  0  0  0  0  0
   -3.4423    0.7947   -7.1441 H   0  0  0  0  0  0  0  0  0  0  0  0
   -2.0788    1.8288   -6.6731 H   0  0  0  0  0  0  0  0  0  0  0  0
   -5.8256   -3.3038   -6.3740 H   0  0  0  0  0  0  0  0  0  0  0  0
   -5.3544   -4.3995   -5.0078 H   0  0  0  0  0  0  0  0  0  0  0  0
   -3.6337   -3.7593   -7.5193 H   0  0  0  0  0  0  0  0  0  0  0  0
   -4.4280   -5.3124   -7.2150 H   0  0  0  0  0  0  0  0  0  0  0  0
   -3.0978   -4.7743   -6.1734 H   0  0  0  0  0  0  0  0  0  0  0  0
  1  2  1  0  0  0  0
  1 21  1  0  0  0  0
  2  3  2  0  0  0  0
  4  2  1  0  0  0  0
  5  4  1  0  0  0  0
  5  6  1  0  0  0  0
  6  1  1  0  0  0  0
  7  6  2  0  0  0  0
  7 26  1  0  0  0  0
  8  7  1  0  0  0  0
  9 10  1  0  0  0  0
  9  8  1  0  0  0  0
 11  9  1  0  0  0  0
 12 11  2  0  0  0  0
 12 13  1  0  0  0  0
 13 14  1  0  0  0  0
 13  8  2  0  0  0  0
 14 27  1  0  0  0  0
 15 30  1  0  0  0  0
 15 12  1  0  0  0  0
 16 18  1  0  0  0  0
 16 11  1  0  0  0  0
 17 16  2  0  0  0  0
 19 18  1  0  0  0  0
 19 34  1  0  0  0  0
 20 37  1  0  0  0  0
 20 19  1  0  0  0  0
 22  4  1  0  0  0  0
 23  4  1  0  0  0  0
 24  5  1  0  0  0  0
 25  5  1  0  0  0  0
 28 14  1  0  0  0  0
 29 14  1  0  0  0  0
 31 15  1  0  0  0  0
 32 15  1  0  0  0  0
 33 19  1  0  0  0  0
 35 20  1  0  0  0  0
 36 20  1  0  0  0  0
M  END
$$$$
