rmsd193.gzmat
 OpenBabel08211713383D

 37 38  0  0  0  0  0  0  0  0999 V2000
    0.0000    0.0000    0.0000 N   0  0  0  0  0  0  0  0  0  0  0  0
    1.4087    0.0000    0.0000 C   0  0  0  0  0  0  0  0  0  0  0  0
    2.0504    0.0000    1.0155 O   0  0  0  0  0  0  0  0  0  0  0  0
    1.8896    0.0045   -1.4363 C   0  0  0  0  0  0  0  0  0  0  0  0
    0.6067   -0.0253   -2.2876 C   0  0  0  0  0  0  0  0  0  0  0  0
   -0.5355    0.0045   -1.2980 C   0  0  0  0  0  0  0  0  0  0  0  0
   -1.8505    0.0264   -1.5795 C   0  0  0  0  0  0  0  0  0  0  0  0
   -2.3299    0.0704   -2.9428 C   0  0  0  0  0  0  0  0  0  0  0  0
   -3.0067   -0.9954   -3.4988 N   0  0  0  0  0  0  0  0  0  0  0  0
   -3.2246   -1.8608   -3.0541 H   0  0  0  0  0  0  0  0  0  0  0  0
   -3.3455   -0.6737   -4.8155 C   0  0  0  0  0  0  0  0  0  0  0  0
   -2.8775    0.6247   -5.0866 C   0  0  0  0  0  0  0  0  0  0  0  0
   -2.2381    1.0926   -3.9090 C   0  0  0  0  0  0  0  0  0  0  0  0
   -1.6160    2.4158   -3.7276 C   0  0  0  0  0  0  0  0  0  0  0  0
   -3.0280    1.3643   -6.3493 C   0  0  0  0  0  0  0  0  0  0  0  0
   -4.0557   -1.5853   -5.6869 C   0  0  0  0  0  0  0  0  0  0  0  0
   -4.4052   -1.4056   -6.8270 O   0  0  0  0  0  0  0  0  0  0  0  0
   -4.3093   -2.7556   -5.0279 O   0  0  0  0  0  0  0  0  0  0  0  0
   -4.9863   -3.7813   -5.7533 C   0  0  0  0  0  0  0  0  0  0  0  0
   -4.0264   -4.4587   -6.7172 C   0  0  0  0  0  0  0  0  0  0  0  0
   -0.5591    0.0077    0.8322 H   0  0  0  0  0  0  0  0  0  0  0  0
    2.5053    0.9017   -1.6337 H   0  0  0  0  0  0  0  0  0  0  0  0
    2.5467   -0.8634   -1.6287 H   0  0  0  0  0  0  0  0  0  0  0  0
    0.5457    0.8310   -2.9882 H   0  0  0  0  0  0  0  0  0  0  0  0
    0.5499   -0.9296   -2.9245 H   0  0  0  0  0  0  0  0  0  0  0  0
   -2.6142    0.0358   -0.8042 H   0  0  0  0  0  0  0  0  0  0  0  0
   -1.2914    2.5848   -2.6909 H   0  0  0  0  0  0  0  0  0  0  0  0
   -2.3228    3.2241   -3.9758 H   0  0  0  0  0  0  0  0  0  0  0  0
   -0.7400    2.5453   -4.3798 H   0  0  0  0  0  0  0  0  0  0  0  0
   -3.7132    2.2189   -6.2324 H   0  0  0  0  0  0  0  0  0  0  0  0
   -3.4416    0.7331   -7.1560 H   0  0  0  0  0  0  0  0  0  0  0  0
   -2.0664    1.7625   -6.7049 H   0  0  0  0  0  0  0  0  0  0  0  0
   -5.8647   -3.3496   -6.2670 H   0  0  0  0  0  0  0  0  0  0  0  0
   -5.3135   -4.4482   -4.9336 H   0  0  0  0  0  0  0  0  0  0  0  0
   -3.7743   -3.7917   -7.5556 H   0  0  0  0  0  0  0  0  0  0  0  0
   -4.4589   -5.3722   -7.1385 H   0  0  0  0  0  0  0  0  0  0  0  0
   -3.0853   -4.7276   -6.2225 H   0  0  0  0  0  0  0  0  0  0  0  0
  1  2  1  0  0  0  0
  1 21  1  0  0  0  0
  2  3  2  0  0  0  0
  4  2  1  0  0  0  0
  5  4  1  0  0  0  0
  5  6  1  0  0  0  0
  6  1  1  0  0  0  0
  7  6  2  0  0  0  0
  7 26  1  0  0  0  0
  8  7  1  0  0  0  0
  9 10  1  0  0  0  0
  9  8  1  0  0  0  0
 11  9  1  0  0  0  0
 12 11  2  0  0  0  0
 12 13  1  0  0  0  0
 13 14  1  0  0  0  0
 13  8  2  0  0  0  0
 14 27  1  0  0  0  0
 15 30  1  0  0  0  0
 15 12  1  0  0  0  0
 16 18  1  0  0  0  0
 16 11  1  0  0  0  0
 17 16  2  0  0  0  0
 19 18  1  0  0  0  0
 19 34  1  0  0  0  0
 20 37  1  0  0  0  0
 20 19  1  0  0  0  0
 22  4  1  0  0  0  0
 23  4  1  0  0  0  0
 24  5  1  0  0  0  0
 25  5  1  0  0  0  0
 28 14  1  0  0  0  0
 29 14  1  0  0  0  0
 31 15  1  0  0  0  0
 32 15  1  0  0  0  0
 33 19  1  0  0  0  0
 35 20  1  0  0  0  0
 36 20  1  0  0  0  0
M  END
$$$$
