rmsd218.gzmat
 OpenBabel08211713383D

 37 38  0  0  0  0  0  0  0  0999 V2000
    0.0000    0.0000    0.0000 N   0  0  0  0  0  0  0  0  0  0  0  0
    1.4084    0.0000    0.0000 C   0  0  0  0  0  0  0  0  0  0  0  0
    2.0504    0.0000    1.0155 O   0  0  0  0  0  0  0  0  0  0  0  0
    1.8899    0.0013   -1.4365 C   0  0  0  0  0  0  0  0  0  0  0  0
    0.6070    0.0163   -2.2881 C   0  0  0  0  0  0  0  0  0  0  0  0
   -0.5354    0.0156   -1.2981 C   0  0  0  0  0  0  0  0  0  0  0  0
   -1.8508    0.0233   -1.5786 C   0  0  0  0  0  0  0  0  0  0  0  0
   -2.3329    0.0940   -2.9395 C   0  0  0  0  0  0  0  0  0  0  0  0
   -3.0027   -0.9607   -3.5238 N   0  0  0  0  0  0  0  0  0  0  0  0
   -3.2121   -1.8412   -3.1052 H   0  0  0  0  0  0  0  0  0  0  0  0
   -3.3492   -0.6030   -4.8291 C   0  0  0  0  0  0  0  0  0  0  0  0
   -2.8916    0.7062   -5.0648 C   0  0  0  0  0  0  0  0  0  0  0  0
   -2.2518    1.1445   -3.8762 C   0  0  0  0  0  0  0  0  0  0  0  0
   -1.6390    2.4660   -3.6554 C   0  0  0  0  0  0  0  0  0  0  0  0
   -3.0538    1.4808   -6.3050 C   0  0  0  0  0  0  0  0  0  0  0  0
   -4.0600   -1.4906   -5.7237 C   0  0  0  0  0  0  0  0  0  0  0  0
   -4.4218   -1.2738   -6.8537 O   0  0  0  0  0  0  0  0  0  0  0  0
   -4.2998   -2.6851   -5.1041 O   0  0  0  0  0  0  0  0  0  0  0  0
   -4.9745   -3.6888   -5.8623 C   0  0  0  0  0  0  0  0  0  0  0  0
   -4.0128   -4.3317   -6.8478 C   0  0  0  0  0  0  0  0  0  0  0  0
   -0.5597    0.0093    0.8320 H   0  0  0  0  0  0  0  0  0  0  0  0
    2.5364    0.8776   -1.6284 H   0  0  0  0  0  0  0  0  0  0  0  0
    2.5185   -0.8865   -1.6347 H   0  0  0  0  0  0  0  0  0  0  0  0
    0.5530    0.9031   -2.9504 H   0  0  0  0  0  0  0  0  0  0  0  0
    0.5431   -0.8579   -2.9646 H   0  0  0  0  0  0  0  0  0  0  0  0
   -2.6140    0.0032   -0.8031 H   0  0  0  0  0  0  0  0  0  0  0  0
   -1.3914    2.6360   -2.5977 H   0  0  0  0  0  0  0  0  0  0  0  0
   -2.3205    3.2771   -3.9585 H   0  0  0  0  0  0  0  0  0  0  0  0
   -0.7157    2.5888   -4.2404 H   0  0  0  0  0  0  0  0  0  0  0  0
   -3.7335    2.3352   -6.1567 H   0  0  0  0  0  0  0  0  0  0  0  0
   -3.4802    0.8742   -7.1242 H   0  0  0  0  0  0  0  0  0  0  0  0
   -2.0946    1.8841   -6.6619 H   0  0  0  0  0  0  0  0  0  0  0  0
   -5.8540   -3.2433   -6.3625 H   0  0  0  0  0  0  0  0  0  0  0  0
   -5.2992   -4.3829   -5.0644 H   0  0  0  0  0  0  0  0  0  0  0  0
   -3.7069   -3.6139   -7.6238 H   0  0  0  0  0  0  0  0  0  0  0  0
   -4.4712   -5.1886   -7.3532 H   0  0  0  0  0  0  0  0  0  0  0  0
   -3.1003   -4.6803   -6.3507 H   0  0  0  0  0  0  0  0  0  0  0  0
  1  2  1  0  0  0  0
  1 21  1  0  0  0  0
  2  3  2  0  0  0  0
  4  2  1  0  0  0  0
  5  4  1  0  0  0  0
  5  6  1  0  0  0  0
  6  1  1  0  0  0  0
  7  6  2  0  0  0  0
  7 26  1  0  0  0  0
  8  7  1  0  0  0  0
  9 10  1  0  0  0  0
  9  8  1  0  0  0  0
 11  9  1  0  0  0  0
 12 11  2  0  0  0  0
 12 13  1  0  0  0  0
 13 14  1  0  0  0  0
 13  8  2  0  0  0  0
 14 27  1  0  0  0  0
 15 30  1  0  0  0  0
 15 12  1  0  0  0  0
 16 18  1  0  0  0  0
 16 11  1  0  0  0  0
 17 16  2  0  0  0  0
 19 18  1  0  0  0  0
 19 34  1  0  0  0  0
 20 37  1  0  0  0  0
 20 19  1  0  0  0  0
 22  4  1  0  0  0  0
 23  4  1  0  0  0  0
 24  5  1  0  0  0  0
 25  5  1  0  0  0  0
 28 14  1  0  0  0  0
 29 14  1  0  0  0  0
 31 15  1  0  0  0  0
 32 15  1  0  0  0  0
 33 19  1  0  0  0  0
 35 20  1  0  0  0  0
 36 20  1  0  0  0  0
M  END
$$$$
