rmsd37.gzmat
 OpenBabel08211713383D

 37 38  0  0  0  0  0  0  0  0999 V2000
    0.0000    0.0000    0.0000 N   0  0  0  0  0  0  0  0  0  0  0  0
    1.4085    0.0000    0.0000 C   0  0  0  0  0  0  0  0  0  0  0  0
    2.0490    0.0000    1.0164 O   0  0  0  0  0  0  0  0  0  0  0  0
    1.8899   -0.0010   -1.4363 C   0  0  0  0  0  0  0  0  0  0  0  0
    0.6067    0.0083   -2.2879 C   0  0  0  0  0  0  0  0  0  0  0  0
   -0.5357   -0.0029   -1.2979 C   0  0  0  0  0  0  0  0  0  0  0  0
   -1.8516   -0.0053   -1.5773 C   0  0  0  0  0  0  0  0  0  0  0  0
   -2.3313   -0.0529   -2.9398 C   0  0  0  0  0  0  0  0  0  0  0  0
   -3.0411    0.9948   -3.4891 N   0  0  0  0  0  0  0  0  0  0  0  0
   -3.2942    1.8475   -3.0379 H   0  0  0  0  0  0  0  0  0  0  0  0
   -3.3573    0.6770   -4.8123 C   0  0  0  0  0  0  0  0  0  0  0  0
   -2.8417   -0.6007   -5.0943 C   0  0  0  0  0  0  0  0  0  0  0  0
   -2.1999   -1.0620   -3.9154 C   0  0  0  0  0  0  0  0  0  0  0  0
   -1.5468   -2.3714   -3.7418 C   0  0  0  0  0  0  0  0  0  0  0  0
   -2.9504   -1.3307   -6.3669 C   0  0  0  0  0  0  0  0  0  0  0  0
   -4.1046    1.5669   -5.6744 C   0  0  0  0  0  0  0  0  0  0  0  0
   -4.4236    1.3942   -6.8246 O   0  0  0  0  0  0  0  0  0  0  0  0
   -4.4239    2.7116   -4.9989 O   0  0  0  0  0  0  0  0  0  0  0  0
   -5.2494    3.6592   -5.6760 C   0  0  0  0  0  0  0  0  0  0  0  0
   -6.6929    3.1838   -5.6605 C   0  0  0  0  0  0  0  0  0  0  0  0
   -0.5583   -0.0034    0.8334 H   0  0  0  0  0  0  0  0  0  0  0  0
    2.5324    0.8773   -1.6310 H   0  0  0  0  0  0  0  0  0  0  0  0
    2.5200   -0.8880   -1.6334 H   0  0  0  0  0  0  0  0  0  0  0  0
    0.5481    0.8967   -2.9469 H   0  0  0  0  0  0  0  0  0  0  0  0
    0.5497   -0.8638   -2.9694 H   0  0  0  0  0  0  0  0  0  0  0  0
   -2.6126    0.0063   -0.7998 H   0  0  0  0  0  0  0  0  0  0  0  0
   -1.2543   -2.5564   -2.6980 H   0  0  0  0  0  0  0  0  0  0  0  0
   -0.6453   -2.4619   -4.3658 H   0  0  0  0  0  0  0  0  0  0  0  0
   -2.2213   -3.1928   -4.0332 H   0  0  0  0  0  0  0  0  0  0  0  0
   -1.9725   -1.7013   -6.7079 H   0  0  0  0  0  0  0  0  0  0  0  0
   -3.3633   -0.7017   -7.1756 H   0  0  0  0  0  0  0  0  0  0  0  0
   -3.6169   -2.2029   -6.2705 H   0  0  0  0  0  0  0  0  0  0  0  0
   -4.8672    3.8180   -6.7007 H   0  0  0  0  0  0  0  0  0  0  0  0
   -5.0889    4.5672   -5.0654 H   0  0  0  0  0  0  0  0  0  0  0  0
   -6.8178    2.2886   -6.2877 H   0  0  0  0  0  0  0  0  0  0  0  0
   -7.3737    3.9530   -6.0397 H   0  0  0  0  0  0  0  0  0  0  0  0
   -7.0155    2.9160   -4.6471 H   0  0  0  0  0  0  0  0  0  0  0  0
  1 21  1  0  0  0  0
  2  1  1  0  0  0  0
  2  3  2  0  0  0  0
  4  2  1  0  0  0  0
  5  4  1  0  0  0  0
  5  6  1  0  0  0  0
  6  1  1  0  0  0  0
  7  6  2  0  0  0  0
  7 26  1  0  0  0  0
  8  7  1  0  0  0  0
  9 10  1  0  0  0  0
  9  8  1  0  0  0  0
 11  9  1  0  0  0  0
 12 11  2  0  0  0  0
 12 13  1  0  0  0  0
 13 14  1  0  0  0  0
 13  8  2  0  0  0  0
 14 27  1  0  0  0  0
 15 32  1  0  0  0  0
 15 12  1  0  0  0  0
 16 18  1  0  0  0  0
 16 11  1  0  0  0  0
 17 16  2  0  0  0  0
 19 20  1  0  0  0  0
 19 34  1  0  0  0  0
 19 18  1  0  0  0  0
 20 37  1  0  0  0  0
 22  4  1  0  0  0  0
 23  4  1  0  0  0  0
 24  5  1  0  0  0  0
 25  5  1  0  0  0  0
 28 14  1  0  0  0  0
 29 14  1  0  0  0  0
 30 15  1  0  0  0  0
 31 15  1  0  0  0  0
 33 19  1  0  0  0  0
 35 20  1  0  0  0  0
 36 20  1  0  0  0  0
M  END
$$$$
