37
rmsd246.gzmat
N          0.00000        0.00000        0.00000
C          1.40850        0.00000        0.00000
O          2.05080        0.00000        1.01530
C          1.88970        0.00000       -1.43650
C          0.60670       -0.00180       -2.28820
C         -0.53550       -0.01020       -1.29790
C         -1.85070       -0.01740       -1.57860
C         -2.33040       -0.08010       -2.94090
N         -2.97540        0.98810       -3.52760
H         -3.17110        1.87140       -3.10820
C         -3.32160        0.63890       -4.83560
C         -2.89070       -0.67950       -5.06890
C         -2.26560       -1.13130       -3.87790
C         -1.67600       -2.46230       -3.65150
C         -3.06160       -1.45120       -6.30960
C         -4.00900        1.54850       -5.72690
O         -4.39930        1.34370       -6.84930
O         -4.16660        2.76070       -5.11450
C         -4.90600        3.75890       -5.81660
C         -6.39410        3.48640       -5.66860
H         -0.56020       -0.00540        0.83170
H          2.52460        0.88440       -1.63150
H          2.52840       -0.88120       -1.63100
H          0.54560        0.88320       -2.95100
H          0.55050       -0.87900       -2.96280
H         -2.61420       -0.00360       -0.80340
H         -1.36210       -2.60390       -2.60710
H         -0.79730       -2.63220       -4.29080
H         -2.39840       -3.26280       -3.87840
H         -2.10000       -1.83010       -6.68690
H         -3.51690       -0.85020       -7.11720
H         -3.71590       -2.32290       -6.14970
H         -4.58350        3.78800       -6.87310
H         -4.58360        4.67990       -5.29570
H         -6.67500        2.55200       -6.17660
H         -6.99480        4.29270       -6.10250
H         -6.67820        3.38030       -4.61480
