37
rmsd42.gzmat
N          0.00000        0.00000        0.00000
C          1.40870        0.00000        0.00000
O          2.05070        0.00000        1.01550
C          1.89060       -0.00350       -1.43620
C          0.60820        0.00870       -2.28830
C         -0.53500       -0.00450       -1.29800
C         -1.84950       -0.01250       -1.58290
C         -2.31900       -0.05900       -2.94980
N         -2.94350        1.02270       -3.53520
H         -3.13690        1.90390       -3.11030
C         -3.27110        0.69130       -4.85230
C         -2.85180       -0.62980       -5.09300
C         -2.25170       -1.10130       -3.89630
C         -1.68580       -2.44400       -3.67820
C         -3.01280       -1.38480       -6.34540
C         -3.93120        1.61220       -5.75210
O         -4.27540        1.42070       -6.89210
O         -4.12350        2.81470       -5.13080
C         -4.83650        3.81620       -5.85610
C         -6.32550        3.51290       -5.81950
H         -0.55970       -0.00650        0.83230
H          2.53720        0.87190       -1.63130
H          2.51850       -0.89290       -1.63070
H          0.54980        0.89980       -2.94370
H          0.54860       -0.86240       -2.97110
H         -2.61710       -0.01150       -0.81160
H         -1.29260       -2.56990       -2.65930
H         -0.86970       -2.66020       -4.38340
H         -2.45030       -3.22470       -3.82290
H         -2.06840       -1.84850       -6.66720
H         -3.36500       -0.74620       -7.17560
H         -3.75260       -2.19400       -6.23140
H         -4.44400        3.87820       -6.88770
H         -4.56930        4.72860       -5.29070
H         -6.55850        2.61130       -6.40600
H         -6.91400        4.33780       -6.23480
H         -6.67160        3.33180       -4.79440
