51
rmsd80.gzmat
C          0.00000        0.00000        0.00000
H          1.12370        0.00000        0.00000
N         -0.49300        0.00000       -1.39690
C         -0.41760       -1.22920       -2.18320
C         -1.63930        0.81730       -1.51840
O         -2.36370        0.88070       -2.48230
N         -1.80150        1.54710       -0.31600
C         -2.44130        2.85910       -0.37940
C         -0.59660        1.39100        0.54540
C          0.44610        2.43970        0.30180
C          1.03210        3.12860        1.29640
N          0.67720        2.94010        2.64440
C          1.30880        3.61740        3.71680
O          0.89210        3.43040        4.83540
C          2.45900        4.52380        3.41140
C         -0.38840        2.05830        2.93470
C         -1.00590        1.34260        1.97970
N         -0.50760       -1.13070        0.76180
C          0.34180       -2.15030        1.16900
O          1.52750       -2.10730        0.91910
C         -0.30560       -3.25080        1.93340
C          0.32500       -3.69590        3.09030
C         -0.24970       -4.73350        3.83120
C          0.42160       -5.21230        5.07230
C         -1.44660       -5.30750        3.40480
C         -2.06930       -4.86250        2.23460
C         -3.35050       -5.48680        1.79850
C         -1.49340       -3.83210        1.49110
H         -0.61540       -0.98450       -3.24530
H         -1.14590       -1.99320       -1.86560
H          0.59950       -1.65440       -2.10510
H         -1.76810        3.65620       -0.73490
H         -2.80920        3.12630        0.62770
H         -3.30970        2.80730       -1.06570
H          0.71920        2.60050       -0.73900
H          1.80990        3.87250        1.10330
H          3.27800        4.00570        2.89100
H          2.88190        4.92170        4.35280
H          2.15780        5.39400        2.81100
H         -0.67040        2.00710        3.99640
H         -1.85310        0.70380        2.21700
H         -1.49650       -1.15280        0.96620
H          1.26560       -3.24470        3.40830
H          0.02960       -6.17650        5.42190
H          0.29050       -4.49240        5.89510
H          1.50430       -5.34190        4.92460
H         -1.89880       -6.11040        3.98270
H         -3.62830       -5.21920        0.76980
H         -4.18190       -5.17400        2.44920
H         -3.30410       -6.58470        1.84100
H         -1.96290       -3.49760        0.56820
