51
rmsd12.gzmat
C          0.00000        0.00000        0.00000
H          1.12300        0.00000        0.00000
N         -0.49840        0.00000       -1.39340
C         -0.42440       -1.22860       -2.18060
C         -1.64550        0.81860       -1.50870
O         -2.37140        0.88350       -2.47170
N         -1.80430        1.54530       -0.30580
C         -2.45730        2.85080       -0.36190
C         -0.59630        1.39200        0.55030
C          0.44310        2.44380        0.30990
C          1.05500        3.10160        1.31020
N          0.72220        2.88360        2.65970
C          1.39400        3.51400        3.73630
O          0.99280        3.31210        4.85800
C          2.56600        4.39180        3.43030
C         -0.35520        2.01510        2.94740
C         -0.99660        1.32870        1.98650
N         -0.51000       -1.13130        0.76080
C          0.35620       -2.01330        1.39280
O          1.55710       -1.88380        1.30100
C         -0.31320       -3.08770        2.17630
C         -1.23470       -3.93700        1.56980
C         -1.83920       -4.94440        2.32630
C         -2.81950       -5.86290        1.68060
C         -1.51610       -5.08430        3.67750
C         -0.58890       -4.22950        4.27720
C         -0.23520       -4.39230        5.71560
C          0.02140       -3.22630        3.52000
H         -0.81820       -1.03350       -3.19730
H         -0.99930       -2.06030       -1.74280
H          0.63240       -1.53680       -2.27030
H         -1.79560        3.65380       -0.72620
H         -2.81650        3.11610        0.64870
H         -3.33380        2.78960       -1.03730
H          0.69250        2.63160       -0.73220
H          1.83620        3.84330        1.12160
H          3.35650        3.86120        2.87940
H          3.02080        4.75110        4.37180
H          2.28110        5.28660        2.85870
H         -0.62560        1.94760        4.01110
H         -1.85210        0.69860        2.21820
H         -1.51160       -1.20470        0.87400
H         -1.47530       -3.82870        0.51430
H         -3.33130       -6.51540        2.40010
H         -2.32300       -6.51970        0.94930
H         -3.60220       -5.30950        1.14060
H         -1.98770       -5.86710        4.26730
H          0.02730       -3.43640        6.19170
H          0.63540       -5.05800        5.82920
H         -1.05440       -4.82790        6.30340
H          0.76030       -2.56380        3.97120
