rmsd49.gzmat
 OpenBabel08211713413D

 51 53  0  0  1  0  0  0  0  0999 V2000
    0.0000    0.0000    0.0000 C   0  0  1  0  0  0  0  0  0  0  0  0
    1.1236    0.0000    0.0000 H   0  0  0  0  0  0  0  0  0  0  0  0
   -0.4998    0.0000   -1.3928 N   0  0  0  0  0  0  0  0  0  0  0  0
   -0.4038   -1.2206   -2.1890 C   0  0  0  0  0  0  0  0  0  0  0  0
   -1.6541    0.8079   -1.5058 C   0  0  0  0  0  0  0  0  0  0  0  0
   -2.3861    0.8614   -2.4642 O   0  0  0  0  0  0  0  0  0  0  0  0
   -1.8107    1.5385   -0.3026 N   0  0  0  0  0  0  0  0  0  0  0  0
   -2.4493    2.8517   -0.3659 C   0  0  0  0  0  0  0  0  0  0  0  0
   -0.5916    1.3936    0.5432 C   0  0  2  0  0  0  0  0  0  0  0  0
    0.4397    2.4469    0.2719 C   0  0  0  0  0  0  0  0  0  0  0  0
    1.0105    3.1763    1.2462 C   0  0  0  0  0  0  0  0  0  0  0  0
    0.6536    3.0256    2.5983 N   0  0  0  0  0  0  0  0  0  0  0  0
    1.2540    3.7651    3.6472 C   0  0  0  0  0  0  0  0  0  0  0  0
    0.8598    3.5813    4.7746 O   0  0  0  0  0  0  0  0  0  0  0  0
    2.3417    4.7349    3.3085 C   0  0  0  0  0  0  0  0  0  0  0  0
   -0.3718    2.1065    2.9180 C   0  0  0  0  0  0  0  0  0  0  0  0
   -0.9742    1.3515    1.9839 C   0  0  0  0  0  0  0  0  0  0  0  0
   -0.5074   -1.1340    0.7589 N   0  0  0  0  0  0  0  0  0  0  0  0
    0.3638   -2.0643    1.3082 C   0  0  0  0  0  0  0  0  0  0  0  0
    1.5626   -1.9513    1.1727 O   0  0  0  0  0  0  0  0  0  0  0  0
   -0.2901   -3.1672    2.0646 C   0  0  0  0  0  0  0  0  0  0  0  0
   -1.2079   -4.0060    1.4384 C   0  0  0  0  0  0  0  0  0  0  0  0
   -1.7877   -5.0498    2.1643 C   0  0  0  0  0  0  0  0  0  0  0  0
   -2.7563   -5.9648    1.4961 C   0  0  0  0  0  0  0  0  0  0  0  0
   -1.4466   -5.2338    3.5057 C   0  0  0  0  0  0  0  0  0  0  0  0
   -0.5227   -4.3894    4.1250 C   0  0  0  0  0  0  0  0  0  0  0  0
   -0.1446   -4.6066    5.5501 C   0  0  0  0  0  0  0  0  0  0  0  0
    0.0639   -3.3509    3.3980 C   0  0  0  0  0  0  0  0  0  0  0  0
   -0.6351   -0.9767   -3.2441 H   0  0  0  0  0  0  0  0  0  0  0  0
   -1.0970   -2.0114   -1.8588 H   0  0  0  0  0  0  0  0  0  0  0  0
    0.6295   -1.6085   -2.1389 H   0  0  0  0  0  0  0  0  0  0  0  0
   -1.7766    3.6460   -0.7289 H   0  0  0  0  0  0  0  0  0  0  0  0
   -2.8062    3.1241    0.6437 H   0  0  0  0  0  0  0  0  0  0  0  0
   -3.3246    2.7999   -1.0430 H   0  0  0  0  0  0  0  0  0  0  0  0
    0.7157    2.5783   -0.7726 H   0  0  0  0  0  0  0  0  0  0  0  0
    1.7806    3.9231    1.0328 H   0  0  0  0  0  0  0  0  0  0  0  0
    3.2096    4.2458    2.8420 H   0  0  0  0  0  0  0  0  0  0  0  0
    2.7096    5.2213    4.2311 H   0  0  0  0  0  0  0  0  0  0  0  0
    1.9958    5.5409    2.6460 H   0  0  0  0  0  0  0  0  0  0  0  0
   -0.6370    2.0606    3.9843 H   0  0  0  0  0  0  0  0  0  0  0  0
   -1.7877    0.6782    2.2439 H   0  0  0  0  0  0  0  0  0  0  0  0
   -1.5072   -1.2064    0.8852 H   0  0  0  0  0  0  0  0  0  0  0  0
   -1.4627   -3.8619    0.3907 H   0  0  0  0  0  0  0  0  0  0  0  0
   -3.2636   -6.6371    2.2005 H   0  0  0  0  0  0  0  0  0  0  0  0
   -2.2489   -6.6020    0.7547 H   0  0  0  0  0  0  0  0  0  0  0  0
   -3.5421   -5.4100    0.9621 H   0  0  0  0  0  0  0  0  0  0  0  0
   -1.8995   -6.0444    4.0724 H   0  0  0  0  0  0  0  0  0  0  0  0
    0.1132   -3.6687    6.0621 H   0  0  0  0  0  0  0  0  0  0  0  0
    0.7349   -5.2665    5.6222 H   0  0  0  0  0  0  0  0  0  0  0  0
   -0.9484   -5.0773    6.1320 H   0  0  0  0  0  0  0  0  0  0  0  0
    0.8011   -2.6963    3.8633 H   0  0  0  0  0  0  0  0  0  0  0  0
  1  9  1  0  0  0  0
  1 18  1  0  0  0  0
  1  2  1  1  0  0  0
  3  1  1  0  0  0  0
  4 31  1  0  0  0  0
  4 30  1  0  0  0  0
  4  3  1  0  0  0  0
  5  3  1  0  0  0  0
  5  7  1  0  0  0  0
  6  5  2  0  0  0  0
  7  9  1  0  0  0  0
  8  7  1  0  0  0  0
  8 33  1  0  0  0  0
  9 10  1  6  0  0  0
  9 17  1  0  0  0  0
 10 11  2  0  0  0  0
 11 12  1  0  0  0  0
 12 16  1  0  0  0  0
 12 13  1  0  0  0  0
 13 14  2  0  0  0  0
 15 13  1  0  0  0  0
 15 38  1  0  0  0  0
 16 40  1  0  0  0  0
 17 41  1  0  0  0  0
 17 16  2  0  0  0  0
 18 42  1  0  0  0  0
 18 19  1  0  0  0  0
 19 21  1  0  0  0  0
 20 19  2  0  0  0  0
 21 28  1  0  0  0  0
 22 21  2  0  0  0  0
 22 23  1  0  0  0  0
 23 25  2  0  0  0  0
 24 23  1  0  0  0  0
 24 44  1  0  0  0  0
 25 47  1  0  0  0  0
 25 26  1  0  0  0  0
 26 27  1  0  0  0  0
 27 49  1  0  0  0  0
 27 48  1  0  0  0  0
 27 50  1  0  0  0  0
 28 51  1  0  0  0  0
 28 26  2  0  0  0  0
 29  4  1  0  0  0  0
 32  8  1  0  0  0  0
 34  8  1  0  0  0  0
 35 10  1  0  0  0  0
 36 11  1  0  0  0  0
 37 15  1  0  0  0  0
 39 15  1  0  0  0  0
 43 22  1  0  0  0  0
 45 24  1  0  0  0  0
 46 24  1  0  0  0  0
M  END
$$$$
