
     RDKit          3D

 51 53  0  0  0  0  0  0  0  0999 V2000
    0.1531   -0.1026    0.0502 C   0  0  1  0  0  0  0  0  0  0  0  0
    1.2405   -0.1525    0.1913 H   0  0  0  0  0  0  0  0  0  0  0  0
   -0.2384   -0.0941   -1.3387 N   0  0  0  0  0  0  0  0  0  0  0  0
    0.1159   -1.1531   -2.2517 C   0  0  0  0  0  0  0  0  0  0  0  0
   -1.3509    0.7131   -1.5402 C   0  0  0  0  0  0  0  0  0  0  0  0
   -2.0118    0.7857   -2.5576 O   0  0  0  0  0  0  0  0  0  0  0  0
   -1.5619    1.4153   -0.3629 N   0  0  0  0  0  0  0  0  0  0  0  0
   -2.4256    2.5712   -0.3299 C   0  0  0  0  0  0  0  0  0  0  0  0
   -0.4008    1.2816    0.5414 C   0  0  0  0  0  0  0  0  0  0  0  0
    0.6114    2.3718    0.2878 C   0  0  0  0  0  0  0  0  0  0  0  0
    1.0067    3.2519    1.2197 C   0  0  0  0  0  0  0  0  0  0  0  0
    0.5354    3.2174    2.5367 N   0  0  0  0  0  0  0  0  0  0  0  0
    0.9300    4.1232    3.5404 C   0  0  0  0  0  0  0  0  0  0  0  0
    0.4761    4.0381    4.6610 O   0  0  0  0  0  0  0  0  0  0  0  0
    1.9331    5.1890    3.1524 C   0  0  0  0  0  0  0  0  0  0  0  0
   -0.3773    2.2081    2.8692 C   0  0  0  0  0  0  0  0  0  0  0  0
   -0.8127    1.2993    1.9846 C   0  0  0  0  0  0  0  0  0  0  0  0
   -0.3933   -1.2388    0.7574 N   0  0  0  0  0  0  0  0  0  0  0  0
    0.3612   -2.0123    1.6045 C   0  0  0  0  0  0  0  0  0  0  0  0
    1.5459   -1.7936    1.8031 O   0  0  0  0  0  0  0  0  0  0  0  0
   -0.3667   -3.1393    2.2824 C   0  0  0  0  0  0  0  0  0  0  0  0
   -1.5812   -3.6654    1.8130 C   0  0  0  0  0  0  0  0  0  0  0  0
   -2.2118   -4.7188    2.4815 C   0  0  0  0  0  0  0  0  0  0  0  0
   -3.5054   -5.3056    1.9753 C   0  0  0  0  0  0  0  0  0  0  0  0
   -1.6022   -5.2351    3.6365 C   0  0  0  0  0  0  0  0  0  0  0  0
   -0.3873   -4.7361    4.1205 C   0  0  0  0  0  0  0  0  0  0  0  0
    0.2504   -5.2981    5.3659 C   0  0  0  0  0  0  0  0  0  0  0  0
    0.2262   -3.6867    3.4231 C   0  0  0  0  0  0  0  0  0  0  0  0
   -0.4045   -0.9664   -3.2004 H   0  0  0  0  0  0  0  0  0  0  0  0
   -0.1852   -2.1444   -1.8677 H   0  0  0  0  0  0  0  0  0  0  0  0
    1.2033   -1.1682   -2.4294 H   0  0  0  0  0  0  0  0  0  0  0  0
   -1.8642    3.5144   -0.4633 H   0  0  0  0  0  0  0  0  0  0  0  0
   -2.9644    2.6240    0.6285 H   0  0  0  0  0  0  0  0  0  0  0  0
   -3.1483    2.4736   -1.1507 H   0  0  0  0  0  0  0  0  0  0  0  0
    1.0227    2.4463   -0.7209 H   0  0  0  0  0  0  0  0  0  0  0  0
    1.7273    4.0332    0.9894 H   0  0  0  0  0  0  0  0  0  0  0  0
    2.8790    4.7463    2.8040 H   0  0  0  0  0  0  0  0  0  0  0  0
    2.1264    5.7956    4.0443 H   0  0  0  0  0  0  0  0  0  0  0  0
    1.5467    5.8373    2.3510 H   0  0  0  0  0  0  0  0  0  0  0  0
   -0.6902    2.2311    3.9116 H   0  0  0  0  0  0  0  0  0  0  0  0
   -1.5233    0.5446    2.3218 H   0  0  0  0  0  0  0  0  0  0  0  0
   -1.3956   -1.3749    0.7200 H   0  0  0  0  0  0  0  0  0  0  0  0
   -2.0369   -3.2832    0.8960 H   0  0  0  0  0  0  0  0  0  0  0  0
   -4.2839   -5.2872    2.7552 H   0  0  0  0  0  0  0  0  0  0  0  0
   -3.3743   -6.3589    1.6764 H   0  0  0  0  0  0  0  0  0  0  0  0
   -3.8868   -4.7546    1.1033 H   0  0  0  0  0  0  0  0  0  0  0  0
   -2.0891   -6.0578    4.1693 H   0  0  0  0  0  0  0  0  0  0  0  0
    1.3083   -5.5506    5.1913 H   0  0  0  0  0  0  0  0  0  0  0  0
   -0.2657   -6.2051    5.7127 H   0  0  0  0  0  0  0  0  0  0  0  0
    0.2272   -4.5626    6.1875 H   0  0  0  0  0  0  0  0  0  0  0  0
    1.1811   -3.2730    3.7536 H   0  0  0  0  0  0  0  0  0  0  0  0
  1  2  1  6
  1  3  1  0
  1  9  1  0
  1 18  1  0
  3  4  1  0
  3  5  1  0
  4 29  1  0
  4 30  1  0
  4 31  1  0
  5  6  2  0
  5  7  1  0
  7  8  1  0
  7  9  1  0
  8 32  1  0
  8 33  1  0
  8 34  1  0
  9 10  1  0
  9 17  1  0
 10 11  2  0
 10 35  1  0
 11 12  1  0
 11 36  1  0
 12 13  1  0
 12 16  1  0
 13 14  2  0
 13 15  1  0
 15 37  1  0
 15 38  1  0
 15 39  1  0
 16 17  2  0
 16 40  1  0
 17 41  1  0
 18 19  1  0
 18 42  1  0
 19 20  2  0
 19 21  1  0
 21 22  2  0
 21 28  1  0
 22 23  1  0
 22 43  1  0
 23 24  1  0
 23 25  2  0
 24 44  1  0
 24 45  1  0
 24 46  1  0
 25 26  1  0
 25 47  1  0
 26 27  1  0
 26 28  2  0
 27 48  1  0
 27 49  1  0
 27 50  1  0
 28 51  1  0
M  END

