
     RDKit          3D

 51 53  0  0  0  0  0  0  0  0999 V2000
    0.1124   -0.1493   -0.0259 C   0  0  1  0  0  0  0  0  0  0  0  0
    1.2058   -0.2407    0.0073 H   0  0  0  0  0  0  0  0  0  0  0  0
   -0.4060   -0.0328   -1.3677 N   0  0  0  0  0  0  0  0  0  0  0  0
   -0.1764   -1.0363   -2.3782 C   0  0  0  0  0  0  0  0  0  0  0  0
   -1.5043    0.8167   -1.4074 C   0  0  0  0  0  0  0  0  0  0  0  0
   -2.2548    0.9782   -2.3497 O   0  0  0  0  0  0  0  0  0  0  0  0
   -1.5801    1.4408   -0.1710 N   0  0  0  0  0  0  0  0  0  0  0  0
   -2.3967    2.6155    0.0212 C   0  0  0  0  0  0  0  0  0  0  0  0
   -0.3445    1.2127    0.6066 C   0  0  0  0  0  0  0  0  0  0  0  0
    0.6762    2.2891    0.3292 C   0  0  0  0  0  0  0  0  0  0  0  0
    1.1857    3.0931    1.2744 C   0  0  0  0  0  0  0  0  0  0  0  0
    0.8383    2.9822    2.6253 N   0  0  0  0  0  0  0  0  0  0  0  0
    1.3539    3.8075    3.6434 C   0  0  0  0  0  0  0  0  0  0  0  0
    1.0042    3.6588    4.7943 O   0  0  0  0  0  0  0  0  0  0  0  0
    2.3502    4.8707    3.2314 C   0  0  0  0  0  0  0  0  0  0  0  0
   -0.0718    1.9771    2.9771 C   0  0  0  0  0  0  0  0  0  0  0  0
   -0.6180    1.1426    2.0808 C   0  0  0  0  0  0  0  0  0  0  0  0
   -0.4060   -1.3153    0.6532 N   0  0  0  0  0  0  0  0  0  0  0  0
    0.3964   -2.1715    1.3662 C   0  0  0  0  0  0  0  0  0  0  0  0
    1.6026   -2.0067    1.4593 O   0  0  0  0  0  0  0  0  0  0  0  0
   -0.3063   -3.3189    2.0366 C   0  0  0  0  0  0  0  0  0  0  0  0
   -1.5825   -3.7678    1.6595 C   0  0  0  0  0  0  0  0  0  0  0  0
   -2.1870   -4.8432    2.3168 C   0  0  0  0  0  0  0  0  0  0  0  0
   -3.5484   -5.3465    1.9078 C   0  0  0  0  0  0  0  0  0  0  0  0
   -1.4876   -5.4612    3.3661 C   0  0  0  0  0  0  0  0  0  0  0  0
   -0.2106   -5.0408    3.7556 C   0  0  0  0  0  0  0  0  0  0  0  0
    0.5239   -5.7119    4.8885 C   0  0  0  0  0  0  0  0  0  0  0  0
    0.3739   -3.9665    3.0711 C   0  0  0  0  0  0  0  0  0  0  0  0
   -0.7736   -0.7677   -3.2596 H   0  0  0  0  0  0  0  0  0  0  0  0
   -0.4785   -2.0420   -2.0346 H   0  0  0  0  0  0  0  0  0  0  0  0
    0.8889   -1.0729   -2.6570 H   0  0  0  0  0  0  0  0  0  0  0  0
   -1.8180    3.5495   -0.1025 H   0  0  0  0  0  0  0  0  0  0  0  0
   -2.8412    2.6167    1.0281 H   0  0  0  0  0  0  0  0  0  0  0  0
   -3.1959    2.5953   -0.7314 H   0  0  0  0  0  0  0  0  0  0  0  0
    0.9941    2.4205   -0.7070 H   0  0  0  0  0  0  0  0  0  0  0  0
    1.9075    3.8683    1.0278 H   0  0  0  0  0  0  0  0  0  0  0  0
    3.2449    4.4282    2.7670 H   0  0  0  0  0  0  0  0  0  0  0  0
    2.6449    5.4109    4.1381 H   0  0  0  0  0  0  0  0  0  0  0  0
    1.9118    5.5812    2.5137 H   0  0  0  0  0  0  0  0  0  0  0  0
   -0.2847    1.9374    4.0440 H   0  0  0  0  0  0  0  0  0  0  0  0
   -1.3182    0.3858    2.4347 H   0  0  0  0  0  0  0  0  0  0  0  0
   -1.4117   -1.4167    0.7062 H   0  0  0  0  0  0  0  0  0  0  0  0
   -2.1110   -3.3058    0.8217 H   0  0  0  0  0  0  0  0  0  0  0  0
   -4.2448   -5.3519    2.7621 H   0  0  0  0  0  0  0  0  0  0  0  0
   -3.4933   -6.3815    1.5312 H   0  0  0  0  0  0  0  0  0  0  0  0
   -3.9896   -4.7243    1.1155 H   0  0  0  0  0  0  0  0  0  0  0  0
   -1.9531   -6.3021    3.8895 H   0  0  0  0  0  0  0  0  0  0  0  0
    1.5471   -5.9896    4.5894 H   0  0  0  0  0  0  0  0  0  0  0  0
    0.0066   -6.6219    5.2255 H   0  0  0  0  0  0  0  0  0  0  0  0
    0.6150   -5.0358    5.7552 H   0  0  0  0  0  0  0  0  0  0  0  0
    1.3733   -3.6107    3.3295 H   0  0  0  0  0  0  0  0  0  0  0  0
  1  2  1  6
  1  3  1  0
  1  9  1  0
  1 18  1  0
  3  4  1  0
  3  5  1  0
  4 29  1  0
  4 30  1  0
  4 31  1  0
  5  6  2  0
  5  7  1  0
  7  8  1  0
  7  9  1  0
  8 32  1  0
  8 33  1  0
  8 34  1  0
  9 10  1  0
  9 17  1  0
 10 11  2  0
 10 35  1  0
 11 12  1  0
 11 36  1  0
 12 13  1  0
 12 16  1  0
 13 14  2  0
 13 15  1  0
 15 37  1  0
 15 38  1  0
 15 39  1  0
 16 17  2  0
 16 40  1  0
 17 41  1  0
 18 19  1  0
 18 42  1  0
 19 20  2  0
 19 21  1  0
 21 22  2  0
 21 28  1  0
 22 23  1  0
 22 43  1  0
 23 24  1  0
 23 25  2  0
 24 44  1  0
 24 45  1  0
 24 46  1  0
 25 26  1  0
 25 47  1  0
 26 27  1  0
 26 28  2  0
 27 48  1  0
 27 49  1  0
 27 50  1  0
 28 51  1  0
M  END

