rmsd8.gzmat
 OpenBabel08211713413D

 51 53  0  0  1  0  0  0  0  0999 V2000
    0.0000    0.0000    0.0000 C   0  0  1  0  0  0  0  0  0  0  0  0
    1.1244    0.0000    0.0000 H   0  0  0  0  0  0  0  0  0  0  0  0
   -0.4901    0.0000   -1.3963 N   0  0  0  0  0  0  0  0  0  0  0  0
   -0.4048   -1.2291   -2.1806 C   0  0  0  0  0  0  0  0  0  0  0  0
   -1.6253    0.8284   -1.5273 C   0  0  0  0  0  0  0  0  0  0  0  0
   -2.3434    0.8983   -2.4954 O   0  0  0  0  0  0  0  0  0  0  0  0
   -1.7851    1.5667   -0.3284 N   0  0  0  0  0  0  0  0  0  0  0  0
   -2.3923    2.8937   -0.4065 C   0  0  0  0  0  0  0  0  0  0  0  0
   -0.5937    1.3914    0.5464 C   0  0  2  0  0  0  0  0  0  0  0  0
    0.4677    2.4280    0.3313 C   0  0  0  0  0  0  0  0  0  0  0  0
    1.1014    3.0368    1.3487 C   0  0  0  0  0  0  0  0  0  0  0  0
    0.7670    2.7849    2.6920 N   0  0  0  0  0  0  0  0  0  0  0  0
    1.4749    3.3422    3.7854 C   0  0  0  0  0  0  0  0  0  0  0  0
    1.0711    3.1187    4.9020 O   0  0  0  0  0  0  0  0  0  0  0  0
    2.6886    4.1707    3.5044 C   0  0  0  0  0  0  0  0  0  0  0  0
   -0.3553    1.9664    2.9552 C   0  0  0  0  0  0  0  0  0  0  0  0
   -1.0194    1.3291    1.9761 C   0  0  0  0  0  0  0  0  0  0  0  0
   -0.5049   -1.1310    0.7640 N   0  0  0  0  0  0  0  0  0  0  0  0
    0.3471   -2.1601    1.1386 C   0  0  0  0  0  0  0  0  0  0  0  0
    1.5226   -2.1283    0.8406 O   0  0  0  0  0  0  0  0  0  0  0  0
   -0.2688   -3.2553    1.9352 C   0  0  0  0  0  0  0  0  0  0  0  0
   -1.4856   -3.8252    1.5700 C   0  0  0  0  0  0  0  0  0  0  0  0
   -2.0129   -4.8660    2.3394 C   0  0  0  0  0  0  0  0  0  0  0  0
   -3.3109   -5.4860    1.9489 C   0  0  0  0  0  0  0  0  0  0  0  0
   -1.3156   -5.3245    3.4583 C   0  0  0  0  0  0  0  0  0  0  0  0
   -0.0906   -4.7550    3.8122 C   0  0  0  0  0  0  0  0  0  0  0  0
    0.6649   -5.2770    4.9855 C   0  0  0  0  0  0  0  0  0  0  0  0
    0.4355   -3.7127    3.0464 C   0  0  0  0  0  0  0  0  0  0  0  0
   -0.6028   -0.9896   -3.2430 H   0  0  0  0  0  0  0  0  0  0  0  0
   -1.1257   -1.9991   -1.8608 H   0  0  0  0  0  0  0  0  0  0  0  0
    0.6168   -1.6442   -2.0983 H   0  0  0  0  0  0  0  0  0  0  0  0
   -1.6966    3.6715   -0.7621 H   0  0  0  0  0  0  0  0  0  0  0  0
   -2.7612    3.1794    0.5948 H   0  0  0  0  0  0  0  0  0  0  0  0
   -3.2570    2.8572   -1.0983 H   0  0  0  0  0  0  0  0  0  0  0  0
    0.7163    2.6421   -0.7057 H   0  0  0  0  0  0  0  0  0  0  0  0
    1.9016    3.7634    1.1818 H   0  0  0  0  0  0  0  0  0  0  0  0
    3.4573    3.6150    2.9473 H   0  0  0  0  0  0  0  0  0  0  0  0
    3.1536    4.4863    4.4569 H   0  0  0  0  0  0  0  0  0  0  0  0
    2.4512    5.0907    2.9517 H   0  0  0  0  0  0  0  0  0  0  0  0
   -0.6398    1.8968    4.0148 H   0  0  0  0  0  0  0  0  0  0  0  0
   -1.9123    0.7450    2.1863 H   0  0  0  0  0  0  0  0  0  0  0  0
   -1.4879   -1.1446    0.9936 H   0  0  0  0  0  0  0  0  0  0  0  0
   -2.0200   -3.4805    0.6871 H   0  0  0  0  0  0  0  0  0  0  0  0
   -3.6833   -6.2035    2.6919 H   0  0  0  0  0  0  0  0  0  0  0  0
   -3.2156   -6.0322    0.9976 H   0  0  0  0  0  0  0  0  0  0  0  0
   -4.0985   -4.7303    1.8132 H   0  0  0  0  0  0  0  0  0  0  0  0
   -1.7251   -6.1356    4.0563 H   0  0  0  0  0  0  0  0  0  0  0  0
    1.3326   -4.5230    5.4261 H   0  0  0  0  0  0  0  0  0  0  0  0
    1.2942   -6.1319    4.6894 H   0  0  0  0  0  0  0  0  0  0  0  0
    0.0017   -5.6265    5.7884 H   0  0  0  0  0  0  0  0  0  0  0  0
    1.3967   -3.2650    3.3036 H   0  0  0  0  0  0  0  0  0  0  0  0
  1  9  1  0  0  0  0
  1 18  1  0  0  0  0
  1  2  1  1  0  0  0
  3  1  1  0  0  0  0
  4 31  1  0  0  0  0
  4 30  1  0  0  0  0
  4  3  1  0  0  0  0
  5  3  1  0  0  0  0
  5  7  1  0  0  0  0
  6  5  2  0  0  0  0
  7  9  1  0  0  0  0
  8  7  1  0  0  0  0
  8 33  1  0  0  0  0
  9 10  1  6  0  0  0
  9 17  1  0  0  0  0
 10 11  2  0  0  0  0
 11 12  1  0  0  0  0
 12 16  1  0  0  0  0
 12 13  1  0  0  0  0
 13 14  2  0  0  0  0
 15 13  1  0  0  0  0
 15 38  1  0  0  0  0
 16 40  1  0  0  0  0
 17 41  1  0  0  0  0
 17 16  2  0  0  0  0
 18 42  1  0  0  0  0
 18 19  1  0  0  0  0
 19 21  1  0  0  0  0
 20 19  2  0  0  0  0
 21 28  1  0  0  0  0
 22 21  2  0  0  0  0
 22 23  1  0  0  0  0
 23 25  2  0  0  0  0
 24 23  1  0  0  0  0
 24 44  1  0  0  0  0
 25 26  1  0  0  0  0
 25 47  1  0  0  0  0
 26 27  1  0  0  0  0
 27 48  1  0  0  0  0
 27 50  1  0  0  0  0
 28 51  1  0  0  0  0
 28 26  2  0  0  0  0
 29  4  1  0  0  0  0
 32  8  1  0  0  0  0
 34  8  1  0  0  0  0
 35 10  1  0  0  0  0
 36 11  1  0  0  0  0
 37 15  1  0  0  0  0
 39 15  1  0  0  0  0
 43 22  1  0  0  0  0
 45 24  1  0  0  0  0
 46 24  1  0  0  0  0
 49 27  1  0  0  0  0
M  END
$$$$
