rmsd62.gzmat
 OpenBabel08211713413D

 51 53  0  0  1  0  0  0  0  0999 V2000
    0.0000    0.0000    0.0000 C   0  0  1  0  0  0  0  0  0  0  0  0
    1.1239    0.0000    0.0000 H   0  0  0  0  0  0  0  0  0  0  0  0
   -0.4956    0.0000   -1.3926 N   0  0  0  0  0  0  0  0  0  0  0  0
   -0.4302   -1.2314   -2.1756 C   0  0  0  0  0  0  0  0  0  0  0  0
   -1.6236    0.8412   -1.5218 C   0  0  0  0  0  0  0  0  0  0  0  0
   -2.3422    0.9121   -2.4899 O   0  0  0  0  0  0  0  0  0  0  0  0
   -1.7747    1.5826   -0.3270 N   0  0  0  0  0  0  0  0  0  0  0  0
   -2.3775    2.9115   -0.4015 C   0  0  0  0  0  0  0  0  0  0  0  0
   -0.5916    1.3928    0.5540 C   0  0  2  0  0  0  0  0  0  0  0  0
    0.4769    2.4254    0.3635 C   0  0  0  0  0  0  0  0  0  0  0  0
    1.1200    2.9968    1.3971 C   0  0  0  0  0  0  0  0  0  0  0  0
    0.7820    2.7135    2.7332 N   0  0  0  0  0  0  0  0  0  0  0  0
    1.5158    3.2046    3.8407 C   0  0  0  0  0  0  0  0  0  0  0  0
    1.1088    2.9590    4.9517 O   0  0  0  0  0  0  0  0  0  0  0  0
    2.7597    3.9933    3.5794 C   0  0  0  0  0  0  0  0  0  0  0  0
   -0.3573    1.9123    2.9750 C   0  0  0  0  0  0  0  0  0  0  0  0
   -1.0295    1.3107    1.9792 C   0  0  0  0  0  0  0  0  0  0  0  0
   -0.5064   -1.1333    0.7598 N   0  0  0  0  0  0  0  0  0  0  0  0
    0.3653   -1.9850    1.4255 C   0  0  0  0  0  0  0  0  0  0  0  0
    1.5648   -1.8275    1.3564 O   0  0  0  0  0  0  0  0  0  0  0  0
   -0.2923   -3.0644    2.2112 C   0  0  0  0  0  0  0  0  0  0  0  0
    0.0493   -3.1994    3.5532 C   0  0  0  0  0  0  0  0  0  0  0  0
   -0.5523   -4.2049    4.3152 C   0  0  0  0  0  0  0  0  0  0  0  0
   -0.1963   -4.3663    5.7531 C   0  0  0  0  0  0  0  0  0  0  0  0
   -1.4775   -5.0643    3.7209 C   0  0  0  0  0  0  0  0  0  0  0  0
   -1.8065   -4.9288    2.3697 C   0  0  0  0  0  0  0  0  0  0  0  0
   -2.7830   -5.8640    1.7429 C   0  0  0  0  0  0  0  0  0  0  0  0
   -1.2102   -3.9218    1.6087 C   0  0  0  0  0  0  0  0  0  0  0  0
   -0.8088   -1.0330   -3.1975 H   0  0  0  0  0  0  0  0  0  0  0  0
   -1.0219   -2.0543   -1.7424 H   0  0  0  0  0  0  0  0  0  0  0  0
    0.6236   -1.5554   -2.2519 H   0  0  0  0  0  0  0  0  0  0  0  0
   -1.6738    3.6906   -0.7383 H   0  0  0  0  0  0  0  0  0  0  0  0
   -2.7600    3.1880    0.5977 H   0  0  0  0  0  0  0  0  0  0  0  0
   -3.2325    2.8855   -1.1061 H   0  0  0  0  0  0  0  0  0  0  0  0
    0.7257    2.6654   -0.6673 H   0  0  0  0  0  0  0  0  0  0  0  0
    1.9288    3.7180    1.2494 H   0  0  0  0  0  0  0  0  0  0  0  0
    3.5064    3.4194    3.0095 H   0  0  0  0  0  0  0  0  0  0  0  0
    3.2366    4.2691    4.5386 H   0  0  0  0  0  0  0  0  0  0  0  0
    2.5591    4.9338    3.0473 H   0  0  0  0  0  0  0  0  0  0  0  0
   -0.6467    1.8255    4.0319 H   0  0  0  0  0  0  0  0  0  0  0  0
   -1.9339    0.7383    2.1705 H   0  0  0  0  0  0  0  0  0  0  0  0
   -1.5075   -1.2200    0.8602 H   0  0  0  0  0  0  0  0  0  0  0  0
    0.7859   -2.5313    4.0005 H   0  0  0  0  0  0  0  0  0  0  0  0
   -1.0394   -4.7366    6.3521 H   0  0  0  0  0  0  0  0  0  0  0  0
    0.1328   -3.4232    6.2126 H   0  0  0  0  0  0  0  0  0  0  0  0
    0.6272   -5.0875    5.8732 H   0  0  0  0  0  0  0  0  0  0  0  0
   -1.9451   -5.8477    4.3131 H   0  0  0  0  0  0  0  0  0  0  0  0
   -3.2593   -5.4403    0.8480 H   0  0  0  0  0  0  0  0  0  0  0  0
   -3.5923   -6.1426    2.4327 H   0  0  0  0  0  0  0  0  0  0  0  0
   -2.2876   -6.7979    1.4336 H   0  0  0  0  0  0  0  0  0  0  0  0
   -1.4535   -3.8188    0.5532 H   0  0  0  0  0  0  0  0  0  0  0  0
  1  9  1  0  0  0  0
  1 18  1  0  0  0  0
  1  2  1  1  0  0  0
  3  1  1  0  0  0  0
  4 30  1  0  0  0  0
  4  3  1  0  0  0  0
  5  3  1  0  0  0  0
  5  7  1  0  0  0  0
  6  5  2  0  0  0  0
  7  9  1  0  0  0  0
  8  7  1  0  0  0  0
  8 33  1  0  0  0  0
  9 10  1  6  0  0  0
  9 17  1  0  0  0  0
 10 11  2  0  0  0  0
 11 12  1  0  0  0  0
 12 16  1  0  0  0  0
 12 13  1  0  0  0  0
 13 14  2  0  0  0  0
 15 13  1  0  0  0  0
 15 38  1  0  0  0  0
 16 40  1  0  0  0  0
 17 41  1  0  0  0  0
 17 16  2  0  0  0  0
 18 42  1  0  0  0  0
 18 19  1  0  0  0  0
 19 21  1  0  0  0  0
 20 19  2  0  0  0  0
 21 22  1  0  0  0  0
 22 43  1  0  0  0  0
 22 23  2  0  0  0  0
 23 24  1  0  0  0  0
 24 46  1  0  0  0  0
 24 45  1  0  0  0  0
 24 44  1  0  0  0  0
 25 47  1  0  0  0  0
 25 23  1  0  0  0  0
 26 25  2  0  0  0  0
 27 26  1  0  0  0  0
 27 49  1  0  0  0  0
 28 21  2  0  0  0  0
 28 26  1  0  0  0  0
 29  4  1  0  0  0  0
 31  4  1  0  0  0  0
 32  8  1  0  0  0  0
 34  8  1  0  0  0  0
 35 10  1  0  0  0  0
 36 11  1  0  0  0  0
 37 15  1  0  0  0  0
 39 15  1  0  0  0  0
 48 27  1  0  0  0  0
 50 27  1  0  0  0  0
 51 28  1  0  0  0  0
M  END
$$$$
