22

O          0.00660        0.09810        0.03450
C          1.20680        0.00090        0.05440
O          1.91260       -0.11230        1.17990
C          2.08510        0.03210       -1.20960
H          1.66840       -0.71980       -1.90640
O          3.39550       -0.33150       -0.80660
C          2.03620        1.42090       -1.91530
C          0.63970        1.67640       -2.49780
C          2.41990        2.53390       -0.92740
C          3.02510        1.40350       -3.10140
O          4.39140        1.22750       -2.72280
H          2.84560       -0.22250        0.89110
H          4.03560        0.06550       -1.43230
H          0.60880        2.66070       -2.99200
H         -0.12490        1.64650       -1.71230
H          0.37600        0.91170       -3.24630
H          2.50610        3.50360       -1.44460
H          3.37570        2.31880       -0.42540
H          1.65500        2.64560       -0.14470
H          2.90640        2.33260       -3.68730
H          2.78830        0.56100       -3.76960
H          4.71900        2.05550       -2.34660
