22
rmsd5.gzmat
O          0.00000        0.00000        0.00000
C          1.20180        0.00000        0.00000
O          1.86770        0.00000        1.17370
C          2.05560        0.03360       -1.26770
H          2.88250        0.77800       -1.16870
O          1.29320        0.55590       -2.32270
C          2.60480       -1.36420       -1.65360
C          1.45630       -2.32010       -1.98120
C          3.50410       -1.18860       -2.88140
C          3.42260       -1.95970       -0.48940
O          4.17310       -0.95780        0.17440
H          2.84670       -0.16360        1.07810
H          0.36560        0.21600       -2.28760
H          1.81770       -3.33630       -2.17750
H          0.91550       -1.99850       -2.88170
H          0.72070       -2.38300       -1.16810
H          3.83480       -2.15170       -3.28450
H          4.39420       -0.59040       -2.66560
H          2.96190       -0.67060       -3.68890
H          4.10700       -2.75550       -0.82950
H          2.78130       -2.36000        0.32160
H          4.82480       -0.54270       -0.42490
