
     RDKit          3D

 22 21  0  0  0  0  0  0  0  0999 V2000
   -0.0053    0.1236   -0.0374 O   0  0  0  0  0  0  0  0  0  0  0  0
    1.2006    0.0371   -0.0082 C   0  0  0  0  0  0  0  0  0  0  0  0
    1.8818   -0.0367    1.1293 O   0  0  0  0  0  0  0  0  0  0  0  0
    2.0009    0.0229   -1.3206 C   0  0  2  0  0  0  0  0  0  0  0  0
    2.8378    0.7364   -1.2033 H   0  0  0  0  0  0  0  0  0  0  0  0
    1.1676    0.4621   -2.3533 O   0  0  0  0  0  0  0  0  0  0  0  0
    2.6153   -1.3784   -1.6627 C   0  0  0  0  0  0  0  0  0  0  0  0
    1.4931   -2.3650   -2.0056 C   0  0  0  0  0  0  0  0  0  0  0  0
    3.5361   -1.1825   -2.8771 C   0  0  0  0  0  0  0  0  0  0  0  0
    3.4153   -1.9477   -0.4774 C   0  0  0  0  0  0  0  0  0  0  0  0
    4.2033   -0.9722    0.2103 O   0  0  0  0  0  0  0  0  0  0  0  0
    2.8451   -0.1491    0.9458 H   0  0  0  0  0  0  0  0  0  0  0  0
    0.2690    0.4472   -1.9728 H   0  0  0  0  0  0  0  0  0  0  0  0
    1.9047   -3.3620   -2.2307 H   0  0  0  0  0  0  0  0  0  0  0  0
    0.9375   -2.0147   -2.8858 H   0  0  0  0  0  0  0  0  0  0  0  0
    0.7794   -2.4699   -1.1731 H   0  0  0  0  0  0  0  0  0  0  0  0
    3.9110   -2.1496   -3.2477 H   0  0  0  0  0  0  0  0  0  0  0  0
    4.4080   -0.5514   -2.6293 H   0  0  0  0  0  0  0  0  0  0  0  0
    2.9907   -0.6815   -3.6889 H   0  0  0  0  0  0  0  0  0  0  0  0
    4.0512   -2.7814   -0.8246 H   0  0  0  0  0  0  0  0  0  0  0  0
    2.7355   -2.3522    0.2859 H   0  0  0  0  0  0  0  0  0  0  0  0
    4.8532   -0.5942   -0.3981 H   0  0  0  0  0  0  0  0  0  0  0  0
  1  2  2  0
  2  3  1  0
  2  4  1  0
  3 12  1  0
  4  5  1  1
  4  6  1  0
  4  7  1  0
  6 13  1  0
  7  8  1  0
  7  9  1  0
  7 10  1  0
  8 14  1  0
  8 15  1  0
  8 16  1  0
  9 17  1  0
  9 18  1  0
  9 19  1  0
 10 11  1  0
 10 20  1  0
 10 21  1  0
 11 22  1  0
M  END

