22
rmsd49.gzmat
O          0.00000        0.00000        0.00000
C          1.20200        0.00000        0.00000
O          1.85330        0.00000        1.18410
C          2.06590        0.00200       -1.26500
H          1.79460       -0.87420       -1.90130
O          3.38510       -0.22230       -0.82010
C          1.91840        1.33390       -2.04310
C          0.52240        1.40390       -2.66780
C          2.14370        2.51900       -1.10300
C          2.94720        1.37450       -3.19730
O          4.27410        1.45900       -2.70560
H          2.84390       -0.05910        1.07460
H          4.03060        0.26260       -1.39860
H          0.34890        2.36350       -3.16750
H         -0.26870        1.29980       -1.90640
H          0.35510        0.60920       -3.40320
H          2.20840        3.46660       -1.64840
H          3.05590        2.40240       -0.50500
H          1.31280        2.62550       -0.38830
H          2.75880        2.22040       -3.88060
H          2.96340        0.43280       -3.77880
H          4.44330        2.33780       -2.30520
