rmsd50.gzmat
 OpenBabel08211713373D

 22 21  0  0  1  0  0  0  0  0999 V2000
    0.0000    0.0000    0.0000 O   0  0  0  0  0  0  0  0  0  0  0  0
    1.2014    0.0000    0.0000 C   0  0  0  0  0  0  0  0  0  0  0  0
    1.8558    0.0000    1.1830 O   0  0  0  0  0  0  0  0  0  0  0  0
    2.0631    0.0159   -1.2650 C   0  0  2  0  0  0  0  0  0  0  0  0
    1.7141   -0.7823   -1.9630 H   0  0  0  0  0  0  0  0  0  0  0  0
    3.3584   -0.3493   -0.8423 O   0  0  0  0  0  0  0  0  0  0  0  0
    2.0408    1.4101   -1.9415 C   0  0  0  0  0  0  0  0  0  0  0  0
    0.6357    1.6955   -2.4759 C   0  0  0  0  0  0  0  0  0  0  0  0
    2.4573    2.4880   -0.9396 C   0  0  0  0  0  0  0  0  0  0  0  0
    3.0143    1.4028   -3.1438 C   0  0  0  0  0  0  0  0  0  0  0  0
    4.3606    1.2832   -2.7162 O   0  0  0  0  0  0  0  0  0  0  0  0
    2.8433   -0.0859    1.0704 H   0  0  0  0  0  0  0  0  0  0  0  0
    4.0372    0.0680   -1.4342 H   0  0  0  0  0  0  0  0  0  0  0  0
    0.5706    2.6863   -2.9389 H   0  0  0  0  0  0  0  0  0  0  0  0
   -0.1171    1.6754   -1.6705 H   0  0  0  0  0  0  0  0  0  0  0  0
    0.3120    0.9576   -3.2183 H   0  0  0  0  0  0  0  0  0  0  0  0
    2.5386    3.4733   -1.4112 H   0  0  0  0  0  0  0  0  0  0  0  0
    3.4161    2.2550   -0.4601 H   0  0  0  0  0  0  0  0  0  0  0  0
    1.7191    2.5884   -0.1291 H   0  0  0  0  0  0  0  0  0  0  0  0
    2.9080    2.3093   -3.7628 H   0  0  0  0  0  0  0  0  0  0  0  0
    2.8835    0.5080   -3.7826 H   0  0  0  0  0  0  0  0  0  0  0  0
    4.6662    2.1093   -2.2869 H   0  0  0  0  0  0  0  0  0  0  0  0
  1  2  2  0  0  0  0
  2  3  1  0  0  0  0
  4  5  1  6  0  0  0
  4  6  1  0  0  0  0
  4  2  1  0  0  0  0
  7  4  1  0  0  0  0
  7  9  1  0  0  0  0
  8  7  1  0  0  0  0
  8 15  1  0  0  0  0
  9 18  1  0  0  0  0
  9 19  1  0  0  0  0
 10 11  1  0  0  0  0
 10  7  1  0  0  0  0
 11 22  1  0  0  0  0
 12  3  1  0  0  0  0
 13  6  1  0  0  0  0
 14  8  1  0  0  0  0
 16  8  1  0  0  0  0
 17  9  1  0  0  0  0
 20 10  1  0  0  0  0
 21 10  1  0  0  0  0
M  END
$$$$
