
     RDKit          3D

 22 21  0  0  0  0  0  0  0  0999 V2000
    0.0012   -0.0382    0.0474 O   0  0  0  0  0  0  0  0  0  0  0  0
    1.2048    0.0130    0.0534 C   0  0  0  0  0  0  0  0  0  0  0  0
    1.9176    0.0902    1.1782 O   0  0  0  0  0  0  0  0  0  0  0  0
    2.1007   -0.0495   -1.2097 C   0  0  2  0  0  0  0  0  0  0  0  0
    2.1088   -1.1103   -1.5175 H   0  0  0  0  0  0  0  0  0  0  0  0
    3.4357    0.2831   -0.8394 O   0  0  0  0  0  0  0  0  0  0  0  0
    1.5976    0.7961   -2.4126 C   0  0  0  0  0  0  0  0  0  0  0  0
    2.6085    0.6542   -3.5644 C   0  0  0  0  0  0  0  0  0  0  0  0
    0.2210    0.3177   -2.8967 C   0  0  0  0  0  0  0  0  0  0  0  0
    1.4891    2.2729   -1.9874 C   0  0  0  0  0  0  0  0  0  0  0  0
    2.7356    2.8113   -1.5294 O   0  0  0  0  0  0  0  0  0  0  0  0
    2.8552    0.1300    0.8860 H   0  0  0  0  0  0  0  0  0  0  0  0
    3.4921    1.2586   -0.9230 H   0  0  0  0  0  0  0  0  0  0  0  0
    2.2866    1.2547   -4.4307 H   0  0  0  0  0  0  0  0  0  0  0  0
    2.6770   -0.3947   -3.8917 H   0  0  0  0  0  0  0  0  0  0  0  0
    3.6211    0.9664   -3.2734 H   0  0  0  0  0  0  0  0  0  0  0  0
   -0.0765    0.8816   -3.7956 H   0  0  0  0  0  0  0  0  0  0  0  0
   -0.5457    0.4337   -2.1223 H   0  0  0  0  0  0  0  0  0  0  0  0
    0.2604   -0.7483   -3.1712 H   0  0  0  0  0  0  0  0  0  0  0  0
    0.7833    2.3705   -1.1491 H   0  0  0  0  0  0  0  0  0  0  0  0
    1.0924    2.8750   -2.8237 H   0  0  0  0  0  0  0  0  0  0  0  0
    3.2490    3.0992   -2.2953 H   0  0  0  0  0  0  0  0  0  0  0  0
  1  2  2  0
  2  3  1  0
  2  4  1  0
  3 12  1  0
  4  5  1  6
  4  6  1  0
  4  7  1  0
  6 13  1  0
  7  8  1  0
  7  9  1  0
  7 10  1  0
  8 14  1  0
  8 15  1  0
  8 16  1  0
  9 17  1  0
  9 18  1  0
  9 19  1  0
 10 11  1  0
 10 20  1  0
 10 21  1  0
 11 22  1  0
M  END

