22
rmsd67.gzmat
O          0.00000        0.00000        0.00000
C          1.20100        0.00000        0.00000
O          1.84430        0.00000        1.19080
C          2.10780       -0.05040       -1.23440
H          2.24630       -1.11720       -1.53830
O          3.39290        0.35320       -0.82030
C          1.59940        0.80420       -2.41940
C          2.60660        0.67620       -3.56890
C          0.23040        0.30690       -2.88560
C          1.46920        2.28280       -1.99510
O          2.73420        2.81890       -1.64150
H          2.83590        0.05030        1.09610
H          3.46990        1.34300       -0.91320
H          2.35790        1.34230       -4.40170
H          2.62380       -0.34530       -3.97130
H          3.63200        0.89740       -3.24600
H         -0.10220        0.82830       -3.79010
H         -0.54910        0.45400       -2.12080
H          0.24290       -0.76510       -3.11570
H          0.87970        2.40390       -1.06380
H          1.01530        2.89980       -2.78850
H          3.27730        2.98390       -2.44030
