rmsd80.gzmat
 OpenBabel08211713373D

 22 21  0  0  1  0  0  0  0  0999 V2000
    0.0000    0.0000    0.0000 O   0  0  0  0  0  0  0  0  0  0  0  0
    1.2017    0.0000    0.0000 C   0  0  0  0  0  0  0  0  0  0  0  0
    1.8542    0.0000    1.1835 O   0  0  0  0  0  0  0  0  0  0  0  0
    2.0667   -0.0064   -1.2642 C   0  0  2  0  0  0  0  0  0  0  0  0
    1.8225   -0.9106   -1.8726 H   0  0  0  0  0  0  0  0  0  0  0  0
    3.3916   -0.1822   -0.8145 O   0  0  0  0  0  0  0  0  0  0  0  0
    1.8788    1.2946   -2.0843 C   0  0  0  0  0  0  0  0  0  0  0  0
    0.4957    1.2823   -2.7401 C   0  0  0  0  0  0  0  0  0  0  0  0
    2.0262    2.5179   -1.1781 C   0  0  0  0  0  0  0  0  0  0  0  0
    2.9327    1.3429   -3.2156 C   0  0  0  0  0  0  0  0  0  0  0  0
    4.2393    1.5259   -2.6966 O   0  0  0  0  0  0  0  0  0  0  0  0
    2.8455   -0.0588    1.0720 H   0  0  0  0  0  0  0  0  0  0  0  0
    4.0208    0.3456   -1.3720 H   0  0  0  0  0  0  0  0  0  0  0  0
    0.3025    2.2060   -3.2969 H   0  0  0  0  0  0  0  0  0  0  0  0
   -0.3066    1.1941   -1.9884 H   0  0  0  0  0  0  0  0  0  0  0  0
    0.3709    0.4418   -3.4318 H   0  0  0  0  0  0  0  0  0  0  0  0
    2.0206    3.4530   -1.7489 H   0  0  0  0  0  0  0  0  0  0  0  0
    2.9463    2.4808   -0.5820 H   0  0  0  0  0  0  0  0  0  0  0  0
    1.1930    2.5870   -0.4611 H   0  0  0  0  0  0  0  0  0  0  0  0
    2.7167    2.1432   -3.9431 H   0  0  0  0  0  0  0  0  0  0  0  0
    3.0182    0.3771   -3.7505 H   0  0  0  0  0  0  0  0  0  0  0  0
    4.3426    2.4255   -2.3202 H   0  0  0  0  0  0  0  0  0  0  0  0
  1  2  2  0  0  0  0
  2  3  1  0  0  0  0
  4  5  1  6  0  0  0
  4  6  1  0  0  0  0
  4  2  1  0  0  0  0
  7  4  1  0  0  0  0
  7  9  1  0  0  0  0
  8  7  1  0  0  0  0
  8 15  1  0  0  0  0
  9 18  1  0  0  0  0
  9 19  1  0  0  0  0
 10 11  1  0  0  0  0
 10  7  1  0  0  0  0
 11 22  1  0  0  0  0
 12  3  1  0  0  0  0
 13  6  1  0  0  0  0
 14  8  1  0  0  0  0
 16  8  1  0  0  0  0
 17  9  1  0  0  0  0
 20 10  1  0  0  0  0
 21 10  1  0  0  0  0
M  END
$$$$
