rmsd67.gzmat
 OpenBabel08211713373D

 22 21  0  0  1  0  0  0  0  0999 V2000
    0.0000    0.0000    0.0000 O   0  0  0  0  0  0  0  0  0  0  0  0
    1.2010    0.0000    0.0000 C   0  0  0  0  0  0  0  0  0  0  0  0
    1.8443    0.0000    1.1908 O   0  0  0  0  0  0  0  0  0  0  0  0
    2.1078   -0.0504   -1.2344 C   0  0  2  0  0  0  0  0  0  0  0  0
    2.2463   -1.1172   -1.5383 H   0  0  0  0  0  0  0  0  0  0  0  0
    3.3929    0.3532   -0.8203 O   0  0  0  0  0  0  0  0  0  0  0  0
    1.5994    0.8042   -2.4194 C   0  0  0  0  0  0  0  0  0  0  0  0
    2.6066    0.6762   -3.5689 C   0  0  0  0  0  0  0  0  0  0  0  0
    0.2304    0.3069   -2.8856 C   0  0  0  0  0  0  0  0  0  0  0  0
    1.4692    2.2828   -1.9951 C   0  0  0  0  0  0  0  0  0  0  0  0
    2.7342    2.8189   -1.6415 O   0  0  0  0  0  0  0  0  0  0  0  0
    2.8359    0.0503    1.0961 H   0  0  0  0  0  0  0  0  0  0  0  0
    3.4699    1.3430   -0.9132 H   0  0  0  0  0  0  0  0  0  0  0  0
    2.3579    1.3423   -4.4017 H   0  0  0  0  0  0  0  0  0  0  0  0
    2.6238   -0.3453   -3.9713 H   0  0  0  0  0  0  0  0  0  0  0  0
    3.6320    0.8974   -3.2460 H   0  0  0  0  0  0  0  0  0  0  0  0
   -0.1022    0.8283   -3.7901 H   0  0  0  0  0  0  0  0  0  0  0  0
   -0.5491    0.4540   -2.1208 H   0  0  0  0  0  0  0  0  0  0  0  0
    0.2429   -0.7651   -3.1157 H   0  0  0  0  0  0  0  0  0  0  0  0
    0.8797    2.4039   -1.0638 H   0  0  0  0  0  0  0  0  0  0  0  0
    1.0153    2.8998   -2.7885 H   0  0  0  0  0  0  0  0  0  0  0  0
    3.2773    2.9839   -2.4403 H   0  0  0  0  0  0  0  0  0  0  0  0
  1  2  2  0  0  0  0
  2  3  1  0  0  0  0
  4  5  1  6  0  0  0
  4  6  1  0  0  0  0
  4  2  1  0  0  0  0
  7 10  1  0  0  0  0
  7  4  1  0  0  0  0
  8 16  1  0  0  0  0
  8  7  1  0  0  0  0
  9  7  1  0  0  0  0
  9 18  1  0  0  0  0
 10 11  1  0  0  0  0
 10 20  1  0  0  0  0
 12  3  1  0  0  0  0
 13  6  1  0  0  0  0
 14  8  1  0  0  0  0
 15  8  1  0  0  0  0
 17  9  1  0  0  0  0
 19  9  1  0  0  0  0
 21 10  1  0  0  0  0
 22 11  1  0  0  0  0
M  END
$$$$
