rmsd21.gzmat
 OpenBabel08211713373D

 22 21  0  0  1  0  0  0  0  0999 V2000
    0.0000    0.0000    0.0000 O   0  0  0  0  0  0  0  0  0  0  0  0
    1.2017    0.0000    0.0000 C   0  0  0  0  0  0  0  0  0  0  0  0
    1.8551    0.0000    1.1832 O   0  0  0  0  0  0  0  0  0  0  0  0
    2.0657    0.0093   -1.2651 C   0  0  2  0  0  0  0  0  0  0  0  0
    1.7821   -0.8526   -1.9155 H   0  0  0  0  0  0  0  0  0  0  0  0
    3.3823   -0.2421   -0.8278 O   0  0  0  0  0  0  0  0  0  0  0  0
    1.9277    1.3578   -2.0158 C   0  0  0  0  0  0  0  0  0  0  0  0
    0.5377    1.4340   -2.6525 C   0  0  0  0  0  0  0  0  0  0  0  0
    2.1378    2.5237   -1.0481 C   0  0  0  0  0  0  0  0  0  0  0  0
    2.9691    1.4285   -3.1566 C   0  0  0  0  0  0  0  0  0  0  0  0
    4.2898    1.5021   -2.6469 O   0  0  0  0  0  0  0  0  0  0  0  0
    2.8439   -0.0776    1.0704 H   0  0  0  0  0  0  0  0  0  0  0  0
    4.0323    0.2631   -1.3819 H   0  0  0  0  0  0  0  0  0  0  0  0
    0.3757    2.3908   -3.1606 H   0  0  0  0  0  0  0  0  0  0  0  0
   -0.2599    1.3397   -1.8967 H   0  0  0  0  0  0  0  0  0  0  0  0
    0.3717    0.6343   -3.3830 H   0  0  0  0  0  0  0  0  0  0  0  0
    2.1544    3.4887   -1.5663 H   0  0  0  0  0  0  0  0  0  0  0  0
    3.0692    2.4212   -0.4775 H   0  0  0  0  0  0  0  0  0  0  0  0
    1.3224    2.5837   -0.3104 H   0  0  0  0  0  0  0  0  0  0  0  0
    2.7872    2.2916   -3.8195 H   0  0  0  0  0  0  0  0  0  0  0  0
    2.9940    0.5028   -3.7623 H   0  0  0  0  0  0  0  0  0  0  0  0
    4.4471    2.3658   -2.2104 H   0  0  0  0  0  0  0  0  0  0  0  0
  1  2  2  0  0  0  0
  2  3  1  0  0  0  0
  4  5  1  6  0  0  0
  4  6  1  0  0  0  0
  4  2  1  0  0  0  0
  7  4  1  0  0  0  0
  7  9  1  0  0  0  0
  8  7  1  0  0  0  0
  8 15  1  0  0  0  0
  9 18  1  0  0  0  0
  9 19  1  0  0  0  0
 10 11  1  0  0  0  0
 10  7  1  0  0  0  0
 11 22  1  0  0  0  0
 12  3  1  0  0  0  0
 13  6  1  0  0  0  0
 14  8  1  0  0  0  0
 16  8  1  0  0  0  0
 17  9  1  0  0  0  0
 20 10  1  0  0  0  0
 21 10  1  0  0  0  0
M  END
$$$$
