rmsd49.gzmat
 OpenBabel08211713373D

 22 21  0  0  1  0  0  0  0  0999 V2000
    0.0000    0.0000    0.0000 O   0  0  0  0  0  0  0  0  0  0  0  0
    1.2020    0.0000    0.0000 C   0  0  0  0  0  0  0  0  0  0  0  0
    1.8533    0.0000    1.1841 O   0  0  0  0  0  0  0  0  0  0  0  0
    2.0659    0.0020   -1.2650 C   0  0  2  0  0  0  0  0  0  0  0  0
    1.7946   -0.8742   -1.9013 H   0  0  0  0  0  0  0  0  0  0  0  0
    3.3851   -0.2223   -0.8201 O   0  0  0  0  0  0  0  0  0  0  0  0
    1.9184    1.3339   -2.0431 C   0  0  0  0  0  0  0  0  0  0  0  0
    0.5224    1.4039   -2.6678 C   0  0  0  0  0  0  0  0  0  0  0  0
    2.1437    2.5190   -1.1030 C   0  0  0  0  0  0  0  0  0  0  0  0
    2.9472    1.3745   -3.1973 C   0  0  0  0  0  0  0  0  0  0  0  0
    4.2741    1.4590   -2.7056 O   0  0  0  0  0  0  0  0  0  0  0  0
    2.8439   -0.0591    1.0746 H   0  0  0  0  0  0  0  0  0  0  0  0
    4.0306    0.2626   -1.3986 H   0  0  0  0  0  0  0  0  0  0  0  0
    0.3489    2.3635   -3.1675 H   0  0  0  0  0  0  0  0  0  0  0  0
   -0.2687    1.2998   -1.9064 H   0  0  0  0  0  0  0  0  0  0  0  0
    0.3551    0.6092   -3.4032 H   0  0  0  0  0  0  0  0  0  0  0  0
    2.2084    3.4666   -1.6484 H   0  0  0  0  0  0  0  0  0  0  0  0
    3.0559    2.4024   -0.5050 H   0  0  0  0  0  0  0  0  0  0  0  0
    1.3128    2.6255   -0.3883 H   0  0  0  0  0  0  0  0  0  0  0  0
    2.7588    2.2204   -3.8806 H   0  0  0  0  0  0  0  0  0  0  0  0
    2.9634    0.4328   -3.7788 H   0  0  0  0  0  0  0  0  0  0  0  0
    4.4433    2.3378   -2.3052 H   0  0  0  0  0  0  0  0  0  0  0  0
  1  2  2  0  0  0  0
  2  3  1  0  0  0  0
  4  5  1  6  0  0  0
  4  6  1  0  0  0  0
  4  2  1  0  0  0  0
  7  4  1  0  0  0  0
  7  9  1  0  0  0  0
  8  7  1  0  0  0  0
  8 15  1  0  0  0  0
  9 18  1  0  0  0  0
  9 19  1  0  0  0  0
 10 11  1  0  0  0  0
 10  7  1  0  0  0  0
 11 22  1  0  0  0  0
 12  3  1  0  0  0  0
 13  6  1  0  0  0  0
 14  8  1  0  0  0  0
 16  8  1  0  0  0  0
 17  9  1  0  0  0  0
 20 10  1  0  0  0  0
 21 10  1  0  0  0  0
M  END
$$$$
