
     RDKit          3D

 22 21  0  0  0  0  0  0  0  0999 V2000
    0.0066    0.0981    0.0345 O   0  0  0  0  0  0  0  0  0  0  0  0
    1.2068    0.0009    0.0544 C   0  0  0  0  0  0  0  0  0  0  0  0
    1.9126   -0.1123    1.1799 O   0  0  0  0  0  0  0  0  0  0  0  0
    2.0851    0.0321   -1.2096 C   0  0  2  0  0  0  0  0  0  0  0  0
    1.6684   -0.7198   -1.9064 H   0  0  0  0  0  0  0  0  0  0  0  0
    3.3955   -0.3315   -0.8066 O   0  0  0  0  0  0  0  0  0  0  0  0
    2.0362    1.4209   -1.9153 C   0  0  0  0  0  0  0  0  0  0  0  0
    0.6397    1.6764   -2.4978 C   0  0  0  0  0  0  0  0  0  0  0  0
    2.4199    2.5339   -0.9274 C   0  0  0  0  0  0  0  0  0  0  0  0
    3.0251    1.4035   -3.1014 C   0  0  0  0  0  0  0  0  0  0  0  0
    4.3914    1.2275   -2.7228 O   0  0  0  0  0  0  0  0  0  0  0  0
    2.8456   -0.2225    0.8911 H   0  0  0  0  0  0  0  0  0  0  0  0
    4.0356    0.0655   -1.4323 H   0  0  0  0  0  0  0  0  0  0  0  0
    0.6088    2.6607   -2.9920 H   0  0  0  0  0  0  0  0  0  0  0  0
   -0.1249    1.6465   -1.7123 H   0  0  0  0  0  0  0  0  0  0  0  0
    0.3760    0.9117   -3.2463 H   0  0  0  0  0  0  0  0  0  0  0  0
    2.5061    3.5036   -1.4446 H   0  0  0  0  0  0  0  0  0  0  0  0
    3.3757    2.3188   -0.4254 H   0  0  0  0  0  0  0  0  0  0  0  0
    1.6550    2.6456   -0.1447 H   0  0  0  0  0  0  0  0  0  0  0  0
    2.9064    2.3326   -3.6873 H   0  0  0  0  0  0  0  0  0  0  0  0
    2.7883    0.5610   -3.7696 H   0  0  0  0  0  0  0  0  0  0  0  0
    4.7190    2.0555   -2.3466 H   0  0  0  0  0  0  0  0  0  0  0  0
  1  2  2  0
  2  3  1  0
  2  4  1  0
  3 12  1  0
  4  5  1  6
  4  6  1  0
  4  7  1  0
  6 13  1  0
  7  8  1  0
  7  9  1  0
  7 10  1  0
  8 14  1  0
  8 15  1  0
  8 16  1  0
  9 17  1  0
  9 18  1  0
  9 19  1  0
 10 11  1  0
 10 20  1  0
 10 21  1  0
 11 22  1  0
M  END

