40
rmsd48.gzmat
O          0.00000        0.00000        0.00000
C          1.36040        0.00000        0.00000
C          1.91130        0.00000        1.29780
C          3.29440       -0.00770        1.43370
C          4.11810       -0.00970        0.30540
C          3.55680       -0.00310       -0.96670
C          2.17110        0.00160       -1.13240
C          1.03860        0.00000        2.47810
C          0.80670        1.11140        3.19510
C         -0.06560        1.10650        4.37610
C          0.49210        1.06340        5.67050
O          1.85190        1.02970        5.66100
C          2.50570        0.93070        6.91770
C         -0.31150        1.05970        6.80760
C         -1.69770        1.10490        6.64990
C         -2.26580        1.15100        5.38160
C         -1.44850        1.15080        4.24810
C          1.39550        2.44670        2.88070
C          0.44250       -1.33160        2.79430
C         -0.64770        0.03090       -1.26320
H          3.73250       -0.00970        2.43260
H          5.19730       -0.01490        0.42660
H          4.20040       -0.00080       -1.84500
H          1.74880        0.00700       -2.13020
H          3.56350        0.88950        6.62290
H          2.21950        0.01270        7.43980
H          2.31300        1.81600        7.53090
H          0.11660        1.02380        7.80220
H         -2.33550        1.10440        7.53250
H         -3.34560        1.18560        5.26700
H         -1.89290        1.18280        3.25270
H          2.05940        2.42440        2.00590
H          1.98740        2.82110        3.73030
H          0.60740        3.18520        2.67460
H         -0.30330       -1.60860        2.03270
H         -0.06040       -1.35130        3.77060
H          1.20850       -2.11950        2.80470
H         -1.70830        0.05390       -0.97670
H         -0.42660       -0.87270       -1.83890
H         -0.38390        0.93520       -1.81940
