rmsd189.gzmat
 OpenBabel08211713373D

 40 41  0  0  0  0  0  0  0  0999 V2000
    0.0000    0.0000    0.0000 O   0  0  0  0  0  0  0  0  0  0  0  0
    1.3602    0.0000    0.0000 C   0  0  0  0  0  0  0  0  0  0  0  0
    1.9123    0.0000    1.2974 C   0  0  0  0  0  0  0  0  0  0  0  0
    3.2957   -0.0147    1.4326 C   0  0  0  0  0  0  0  0  0  0  0  0
    4.1184   -0.0216    0.3036 C   0  0  0  0  0  0  0  0  0  0  0  0
    3.5558   -0.0127   -0.9680 C   0  0  0  0  0  0  0  0  0  0  0  0
    2.1703   -0.0026   -1.1327 C   0  0  0  0  0  0  0  0  0  0  0  0
    1.0394    0.0024    2.4774 C   0  0  0  0  0  0  0  0  0  0  0  0
    0.8200    1.1110    3.2025 C   0  0  0  0  0  0  0  0  0  0  0  0
   -0.0625    1.1098    4.3761 C   0  0  0  0  0  0  0  0  0  0  0  0
    0.4757    1.0014    5.6746 C   0  0  0  0  0  0  0  0  0  0  0  0
    1.8324    0.9058    5.6808 O   0  0  0  0  0  0  0  0  0  0  0  0
    2.4629    0.7224    6.9399 C   0  0  0  0  0  0  0  0  0  0  0  0
   -0.3427    1.0007    6.8013 C   0  0  0  0  0  0  0  0  0  0  0  0
   -1.7232    1.1144    6.6292 C   0  0  0  0  0  0  0  0  0  0  0  0
   -2.2720    1.2260    5.3567 C   0  0  0  0  0  0  0  0  0  0  0  0
   -1.4401    1.2229    4.2335 C   0  0  0  0  0  0  0  0  0  0  0  0
    1.4271    2.4409    2.9014 C   0  0  0  0  0  0  0  0  0  0  0  0
    0.4236   -1.3229    2.7825 C   0  0  0  0  0  0  0  0  0  0  0  0
   -0.6471    0.0214   -1.2638 C   0  0  0  0  0  0  0  0  0  0  0  0
    3.7349   -0.0197    2.4313 H   0  0  0  0  0  0  0  0  0  0  0  0
    5.1979   -0.0334    0.4238 H   0  0  0  0  0  0  0  0  0  0  0  0
    4.1983   -0.0148   -1.8471 H   0  0  0  0  0  0  0  0  0  0  0  0
    1.7478    0.0023   -2.1304 H   0  0  0  0  0  0  0  0  0  0  0  0
    3.5185    0.6197    6.6541 H   0  0  0  0  0  0  0  0  0  0  0  0
    2.1114   -0.1899    7.4301 H   0  0  0  0  0  0  0  0  0  0  0  0
    2.3218    1.5991    7.5785 H   0  0  0  0  0  0  0  0  0  0  0  0
    0.0697    0.9156    7.7995 H   0  0  0  0  0  0  0  0  0  0  0  0
   -2.3725    1.1155    7.5032 H   0  0  0  0  0  0  0  0  0  0  0  0
   -3.3474    1.3140    5.2308 H   0  0  0  0  0  0  0  0  0  0  0  0
   -1.8692    1.3061    3.2344 H   0  0  0  0  0  0  0  0  0  0  0  0
    2.0956    2.4165    2.0306 H   0  0  0  0  0  0  0  0  0  0  0  0
    2.0168    2.8028    3.7579 H   0  0  0  0  0  0  0  0  0  0  0  0
    0.6497    3.1907    2.6957 H   0  0  0  0  0  0  0  0  0  0  0  0
   -0.3646   -1.5564    2.0500 H   0  0  0  0  0  0  0  0  0  0  0  0
   -0.0334   -1.3579    3.7805 H   0  0  0  0  0  0  0  0  0  0  0  0
    1.1667   -2.1307    2.7349 H   0  0  0  0  0  0  0  0  0  0  0  0
   -1.7074    0.0205   -0.9775 H   0  0  0  0  0  0  0  0  0  0  0  0
   -0.4073   -0.8741   -1.8443 H   0  0  0  0  0  0  0  0  0  0  0  0
   -0.4008    0.9333   -1.8158 H   0  0  0  0  0  0  0  0  0  0  0  0
  1  2  1  0  0  0  0
  2  3  2  0  0  0  0
  3  4  1  0  0  0  0
  3  8  1  0  0  0  0
  4 21  1  0  0  0  0
  5 22  1  0  0  0  0
  5  4  2  0  0  0  0
  6  5  1  0  0  0  0
  7  6  2  0  0  0  0
  7  2  1  0  0  0  0
  8 19  1  0  0  0  0
  8  9  2  0  0  0  0
  9 10  1  0  0  0  0
 10 11  1  0  0  0  0
 11 12  1  0  0  0  0
 11 14  2  0  0  0  0
 12 13  1  0  0  0  0
 13 26  1  0  0  0  0
 13 27  1  0  0  0  0
 14 28  1  0  0  0  0
 15 14  1  0  0  0  0
 15 29  1  0  0  0  0
 16 15  2  0  0  0  0
 17 10  2  0  0  0  0
 17 16  1  0  0  0  0
 18  9  1  0  0  0  0
 18 33  1  0  0  0  0
 19 36  1  0  0  0  0
 20 38  1  0  0  0  0
 20  1  1  0  0  0  0
 23  6  1  0  0  0  0
 24  7  1  0  0  0  0
 25 13  1  0  0  0  0
 30 16  1  0  0  0  0
 31 17  1  0  0  0  0
 32 18  1  0  0  0  0
 34 18  1  0  0  0  0
 35 19  1  0  0  0  0
 37 19  1  0  0  0  0
 39 20  1  0  0  0  0
 40 20  1  0  0  0  0
M  END
$$$$
