rmsd48.gzmat
 OpenBabel08211713373D

 40 41  0  0  0  0  0  0  0  0999 V2000
    0.0000    0.0000    0.0000 O   0  0  0  0  0  0  0  0  0  0  0  0
    1.3604    0.0000    0.0000 C   0  0  0  0  0  0  0  0  0  0  0  0
    1.9113    0.0000    1.2978 C   0  0  0  0  0  0  0  0  0  0  0  0
    3.2944   -0.0077    1.4337 C   0  0  0  0  0  0  0  0  0  0  0  0
    4.1181   -0.0097    0.3054 C   0  0  0  0  0  0  0  0  0  0  0  0
    3.5568   -0.0031   -0.9667 C   0  0  0  0  0  0  0  0  0  0  0  0
    2.1711    0.0016   -1.1324 C   0  0  0  0  0  0  0  0  0  0  0  0
    1.0386    0.0000    2.4781 C   0  0  0  0  0  0  0  0  0  0  0  0
    0.8067    1.1114    3.1951 C   0  0  0  0  0  0  0  0  0  0  0  0
   -0.0656    1.1065    4.3761 C   0  0  0  0  0  0  0  0  0  0  0  0
    0.4921    1.0634    5.6705 C   0  0  0  0  0  0  0  0  0  0  0  0
    1.8519    1.0297    5.6610 O   0  0  0  0  0  0  0  0  0  0  0  0
    2.5057    0.9307    6.9177 C   0  0  0  0  0  0  0  0  0  0  0  0
   -0.3115    1.0597    6.8076 C   0  0  0  0  0  0  0  0  0  0  0  0
   -1.6977    1.1049    6.6499 C   0  0  0  0  0  0  0  0  0  0  0  0
   -2.2658    1.1510    5.3816 C   0  0  0  0  0  0  0  0  0  0  0  0
   -1.4485    1.1508    4.2481 C   0  0  0  0  0  0  0  0  0  0  0  0
    1.3955    2.4467    2.8807 C   0  0  0  0  0  0  0  0  0  0  0  0
    0.4425   -1.3316    2.7943 C   0  0  0  0  0  0  0  0  0  0  0  0
   -0.6477    0.0309   -1.2632 C   0  0  0  0  0  0  0  0  0  0  0  0
    3.7325   -0.0097    2.4326 H   0  0  0  0  0  0  0  0  0  0  0  0
    5.1973   -0.0149    0.4266 H   0  0  0  0  0  0  0  0  0  0  0  0
    4.2004   -0.0008   -1.8450 H   0  0  0  0  0  0  0  0  0  0  0  0
    1.7488    0.0070   -2.1302 H   0  0  0  0  0  0  0  0  0  0  0  0
    3.5635    0.8895    6.6229 H   0  0  0  0  0  0  0  0  0  0  0  0
    2.2195    0.0127    7.4398 H   0  0  0  0  0  0  0  0  0  0  0  0
    2.3130    1.8160    7.5309 H   0  0  0  0  0  0  0  0  0  0  0  0
    0.1166    1.0238    7.8022 H   0  0  0  0  0  0  0  0  0  0  0  0
   -2.3355    1.1044    7.5325 H   0  0  0  0  0  0  0  0  0  0  0  0
   -3.3456    1.1856    5.2670 H   0  0  0  0  0  0  0  0  0  0  0  0
   -1.8929    1.1828    3.2527 H   0  0  0  0  0  0  0  0  0  0  0  0
    2.0594    2.4244    2.0059 H   0  0  0  0  0  0  0  0  0  0  0  0
    1.9874    2.8211    3.7303 H   0  0  0  0  0  0  0  0  0  0  0  0
    0.6074    3.1852    2.6746 H   0  0  0  0  0  0  0  0  0  0  0  0
   -0.3033   -1.6086    2.0327 H   0  0  0  0  0  0  0  0  0  0  0  0
   -0.0604   -1.3513    3.7706 H   0  0  0  0  0  0  0  0  0  0  0  0
    1.2085   -2.1195    2.8047 H   0  0  0  0  0  0  0  0  0  0  0  0
   -1.7083    0.0539   -0.9767 H   0  0  0  0  0  0  0  0  0  0  0  0
   -0.4266   -0.8727   -1.8389 H   0  0  0  0  0  0  0  0  0  0  0  0
   -0.3839    0.9352   -1.8194 H   0  0  0  0  0  0  0  0  0  0  0  0
  1  2  1  0  0  0  0
  2  3  2  0  0  0  0
  3  4  1  0  0  0  0
  3  8  1  0  0  0  0
  4 21  1  0  0  0  0
  5 22  1  0  0  0  0
  5  4  2  0  0  0  0
  6  5  1  0  0  0  0
  7  6  2  0  0  0  0
  7  2  1  0  0  0  0
  8 19  1  0  0  0  0
  8  9  2  0  0  0  0
  9 10  1  0  0  0  0
 10 11  1  0  0  0  0
 11 14  2  0  0  0  0
 12 11  1  0  0  0  0
 12 13  1  0  0  0  0
 13 26  1  0  0  0  0
 13 27  1  0  0  0  0
 14 28  1  0  0  0  0
 15 14  1  0  0  0  0
 15 29  1  0  0  0  0
 16 15  2  0  0  0  0
 17 10  2  0  0  0  0
 17 16  1  0  0  0  0
 18  9  1  0  0  0  0
 18 33  1  0  0  0  0
 19 37  1  0  0  0  0
 19 36  1  0  0  0  0
 20 38  1  0  0  0  0
 20  1  1  0  0  0  0
 23  6  1  0  0  0  0
 24  7  1  0  0  0  0
 25 13  1  0  0  0  0
 30 16  1  0  0  0  0
 31 17  1  0  0  0  0
 32 18  1  0  0  0  0
 34 18  1  0  0  0  0
 35 19  1  0  0  0  0
 39 20  1  0  0  0  0
 40 20  1  0  0  0  0
M  END
$$$$
