rmsd181.gzmat
 OpenBabel08211713373D

 40 41  0  0  0  0  0  0  0  0999 V2000
    0.0000    0.0000    0.0000 O   0  0  0  0  0  0  0  0  0  0  0  0
    1.3604    0.0000    0.0000 C   0  0  0  0  0  0  0  0  0  0  0  0
    1.9139    0.0000    1.2965 C   0  0  0  0  0  0  0  0  0  0  0  0
    3.2974   -0.0047    1.4295 C   0  0  0  0  0  0  0  0  0  0  0  0
    4.1193   -0.0135    0.2995 C   0  0  0  0  0  0  0  0  0  0  0  0
    3.5551   -0.0199   -0.9710 C   0  0  0  0  0  0  0  0  0  0  0  0
    2.1689   -0.0109   -1.1338 C   0  0  0  0  0  0  0  0  0  0  0  0
    1.0422   -0.0230    2.4774 C   0  0  0  0  0  0  0  0  0  0  0  0
    0.7579    1.0816    3.1854 C   0  0  0  0  0  0  0  0  0  0  0  0
   -0.1177    1.0467    4.3635 C   0  0  0  0  0  0  0  0  0  0  0  0
    0.4259    1.1043    5.6630 C   0  0  0  0  0  0  0  0  0  0  0  0
    1.7828    1.2001    5.6701 O   0  0  0  0  0  0  0  0  0  0  0  0
    2.4282    1.1522    6.9341 C   0  0  0  0  0  0  0  0  0  0  0  0
   -0.3886    1.0692    6.7921 C   0  0  0  0  0  0  0  0  0  0  0  0
   -1.7710    0.9815    6.6218 C   0  0  0  0  0  0  0  0  0  0  0  0
   -2.3259    0.9296    5.3480 C   0  0  0  0  0  0  0  0  0  0  0  0
   -1.4980    0.9613    4.2230 C   0  0  0  0  0  0  0  0  0  0  0  0
    1.2866    2.4390    2.8612 C   0  0  0  0  0  0  0  0  0  0  0  0
    0.5127   -1.3803    2.8044 C   0  0  0  0  0  0  0  0  0  0  0  0
   -0.6454    0.1285   -1.2585 C   0  0  0  0  0  0  0  0  0  0  0  0
    3.7382   -0.0003    2.4269 H   0  0  0  0  0  0  0  0  0  0  0  0
    5.1992   -0.0177    0.4178 H   0  0  0  0  0  0  0  0  0  0  0  0
    4.1966   -0.0323   -1.8507 H   0  0  0  0  0  0  0  0  0  0  0  0
    1.7441   -0.0179   -2.1302 H   0  0  0  0  0  0  0  0  0  0  0  0
    3.4885    1.2090    6.6515 H   0  0  0  0  0  0  0  0  0  0  0  0
    2.2199    0.2078    7.4455 H   0  0  0  0  0  0  0  0  0  0  0  0
    2.1502    2.0111    7.5515 H   0  0  0  0  0  0  0  0  0  0  0  0
    0.0287    1.1102    7.7912 H   0  0  0  0  0  0  0  0  0  0  0  0
   -2.4169    0.9537    7.4979 H   0  0  0  0  0  0  0  0  0  0  0  0
   -3.4028    0.8625    5.2232 H   0  0  0  0  0  0  0  0  0  0  0  0
   -1.9308    0.9142    3.2231 H   0  0  0  0  0  0  0  0  0  0  0  0
    1.8578    2.4603    1.9234 H   0  0  0  0  0  0  0  0  0  0  0  0
    1.9534    2.7948    3.6626 H   0  0  0  0  0  0  0  0  0  0  0  0
    0.4703    3.1688    2.7645 H   0  0  0  0  0  0  0  0  0  0  0  0
   -0.1659   -1.7302    2.0111 H   0  0  0  0  0  0  0  0  0  0  0  0
   -0.0461   -1.4031    3.7495 H   0  0  0  0  0  0  0  0  0  0  0  0
    1.3267   -2.1142    2.8887 H   0  0  0  0  0  0  0  0  0  0  0  0
   -1.7036    0.1865   -0.9688 H   0  0  0  0  0  0  0  0  0  0  0  0
   -0.4660   -0.7533   -1.8805 H   0  0  0  0  0  0  0  0  0  0  0  0
   -0.3399    1.0464   -1.7695 H   0  0  0  0  0  0  0  0  0  0  0  0
  1  2  1  0  0  0  0
  2  3  2  0  0  0  0
  3  4  1  0  0  0  0
  3  8  1  0  0  0  0
  4 21  1  0  0  0  0
  5 22  1  0  0  0  0
  5  4  2  0  0  0  0
  6  5  1  0  0  0  0
  7  6  2  0  0  0  0
  7  2  1  0  0  0  0
  8 19  1  0  0  0  0
  8  9  2  0  0  0  0
  9 10  1  0  0  0  0
 10 11  1  0  0  0  0
 11 12  1  0  0  0  0
 11 14  2  0  0  0  0
 12 13  1  0  0  0  0
 13 26  1  0  0  0  0
 13 27  1  0  0  0  0
 14 28  1  0  0  0  0
 15 14  1  0  0  0  0
 15 29  1  0  0  0  0
 16 15  2  0  0  0  0
 17 10  2  0  0  0  0
 17 16  1  0  0  0  0
 18  9  1  0  0  0  0
 18 33  1  0  0  0  0
 19 37  1  0  0  0  0
 19 36  1  0  0  0  0
 20 38  1  0  0  0  0
 20  1  1  0  0  0  0
 23  6  1  0  0  0  0
 24  7  1  0  0  0  0
 25 13  1  0  0  0  0
 30 16  1  0  0  0  0
 31 17  1  0  0  0  0
 32 18  1  0  0  0  0
 34 18  1  0  0  0  0
 35 19  1  0  0  0  0
 39 20  1  0  0  0  0
 40 20  1  0  0  0  0
M  END
$$$$
