40
rmsd218.gzmat
O          0.00000        0.00000        0.00000
C          1.36040        0.00000        0.00000
C          1.91470        0.00000        1.29640
C          3.29860        0.01320        1.42820
C          4.11980        0.02050        0.29820
C          3.55480        0.01250       -0.97220
C          2.16860        0.00320       -1.13420
C          1.04860       -0.00900        2.48200
C          0.83620       -1.12600        3.19640
C         -0.02060       -1.14780        4.38790
C          0.55090       -1.19070        5.67620
O          1.91120       -1.19140        5.65760
C          2.57360       -1.15890        6.91340
C         -0.24060       -1.23260        6.82110
C         -1.62880       -1.23340        6.67860
C         -2.21120       -1.19040        5.41670
C         -1.40610       -1.14760        4.27570
C          1.44550       -2.44900        2.86710
C          0.44380        1.31610        2.80670
C         -0.64740       -0.08110       -1.26150
H          3.74030        0.01300        2.42550
H          5.19950        0.03050        0.41710
H          4.19520        0.01310       -1.85260
H          1.74360       -0.00000       -2.13090
H          3.63020       -1.13400        6.61390
H          2.36170       -2.06230        7.49340
H          2.31350       -0.25480        7.47260
H          0.19940       -1.26700        7.81060
H         -2.25700       -1.26910        7.56720
H         -3.29250       -1.19040        5.31350
H         -1.86220       -1.11370        3.28540
H          1.88840       -2.47440        1.86220
H          0.70060       -3.25570        2.91600
H          2.24260       -2.69370        3.58750
H          1.20750        2.10610        2.84070
H         -0.07410        1.32080        3.77540
H         -0.29040        1.60280        2.03690
H         -1.70800       -0.10070       -0.97490
H         -0.37870       -1.00400       -1.78440
H         -0.43120        0.80140       -1.87090
