rmsd218.gzmat
 OpenBabel08211713373D

 40 41  0  0  0  0  0  0  0  0999 V2000
    0.0000    0.0000    0.0000 O   0  0  0  0  0  0  0  0  0  0  0  0
    1.3604    0.0000    0.0000 C   0  0  0  0  0  0  0  0  0  0  0  0
    1.9147    0.0000    1.2964 C   0  0  0  0  0  0  0  0  0  0  0  0
    3.2986    0.0132    1.4282 C   0  0  0  0  0  0  0  0  0  0  0  0
    4.1198    0.0205    0.2982 C   0  0  0  0  0  0  0  0  0  0  0  0
    3.5548    0.0125   -0.9722 C   0  0  0  0  0  0  0  0  0  0  0  0
    2.1686    0.0032   -1.1342 C   0  0  0  0  0  0  0  0  0  0  0  0
    1.0486   -0.0090    2.4820 C   0  0  0  0  0  0  0  0  0  0  0  0
    0.8362   -1.1260    3.1964 C   0  0  0  0  0  0  0  0  0  0  0  0
   -0.0206   -1.1478    4.3879 C   0  0  0  0  0  0  0  0  0  0  0  0
    0.5509   -1.1907    5.6762 C   0  0  0  0  0  0  0  0  0  0  0  0
    1.9112   -1.1914    5.6576 O   0  0  0  0  0  0  0  0  0  0  0  0
    2.5736   -1.1589    6.9134 C   0  0  0  0  0  0  0  0  0  0  0  0
   -0.2406   -1.2326    6.8211 C   0  0  0  0  0  0  0  0  0  0  0  0
   -1.6288   -1.2334    6.6786 C   0  0  0  0  0  0  0  0  0  0  0  0
   -2.2112   -1.1904    5.4167 C   0  0  0  0  0  0  0  0  0  0  0  0
   -1.4061   -1.1476    4.2757 C   0  0  0  0  0  0  0  0  0  0  0  0
    1.4455   -2.4490    2.8671 C   0  0  0  0  0  0  0  0  0  0  0  0
    0.4438    1.3161    2.8067 C   0  0  0  0  0  0  0  0  0  0  0  0
   -0.6474   -0.0811   -1.2615 C   0  0  0  0  0  0  0  0  0  0  0  0
    3.7403    0.0130    2.4255 H   0  0  0  0  0  0  0  0  0  0  0  0
    5.1995    0.0305    0.4171 H   0  0  0  0  0  0  0  0  0  0  0  0
    4.1952    0.0131   -1.8526 H   0  0  0  0  0  0  0  0  0  0  0  0
    1.7436   -0.0000   -2.1309 H   0  0  0  0  0  0  0  0  0  0  0  0
    3.6302   -1.1340    6.6139 H   0  0  0  0  0  0  0  0  0  0  0  0
    2.3617   -2.0623    7.4934 H   0  0  0  0  0  0  0  0  0  0  0  0
    2.3135   -0.2548    7.4726 H   0  0  0  0  0  0  0  0  0  0  0  0
    0.1994   -1.2670    7.8106 H   0  0  0  0  0  0  0  0  0  0  0  0
   -2.2570   -1.2691    7.5672 H   0  0  0  0  0  0  0  0  0  0  0  0
   -3.2925   -1.1904    5.3135 H   0  0  0  0  0  0  0  0  0  0  0  0
   -1.8622   -1.1137    3.2854 H   0  0  0  0  0  0  0  0  0  0  0  0
    1.8884   -2.4744    1.8622 H   0  0  0  0  0  0  0  0  0  0  0  0
    0.7006   -3.2557    2.9160 H   0  0  0  0  0  0  0  0  0  0  0  0
    2.2426   -2.6937    3.5875 H   0  0  0  0  0  0  0  0  0  0  0  0
    1.2075    2.1061    2.8407 H   0  0  0  0  0  0  0  0  0  0  0  0
   -0.0741    1.3208    3.7754 H   0  0  0  0  0  0  0  0  0  0  0  0
   -0.2904    1.6028    2.0369 H   0  0  0  0  0  0  0  0  0  0  0  0
   -1.7080   -0.1007   -0.9749 H   0  0  0  0  0  0  0  0  0  0  0  0
   -0.3787   -1.0040   -1.7844 H   0  0  0  0  0  0  0  0  0  0  0  0
   -0.4312    0.8014   -1.8709 H   0  0  0  0  0  0  0  0  0  0  0  0
  1  2  1  0  0  0  0
  2  3  2  0  0  0  0
  3  4  1  0  0  0  0
  3  8  1  0  0  0  0
  4 21  1  0  0  0  0
  5 22  1  0  0  0  0
  5  4  2  0  0  0  0
  6  5  1  0  0  0  0
  7  6  2  0  0  0  0
  7  2  1  0  0  0  0
  8 19  1  0  0  0  0
  8  9  2  0  0  0  0
  9 10  1  0  0  0  0
 10 11  1  0  0  0  0
 11 14  2  0  0  0  0
 12 11  1  0  0  0  0
 12 13  1  0  0  0  0
 13 27  1  0  0  0  0
 13 26  1  0  0  0  0
 14 28  1  0  0  0  0
 15 14  1  0  0  0  0
 15 29  1  0  0  0  0
 16 15  2  0  0  0  0
 17 10  2  0  0  0  0
 17 16  1  0  0  0  0
 18 33  1  0  0  0  0
 18  9  1  0  0  0  0
 18 34  1  0  0  0  0
 19 35  1  0  0  0  0
 19 36  1  0  0  0  0
 20 38  1  0  0  0  0
 20  1  1  0  0  0  0
 23  6  1  0  0  0  0
 24  7  1  0  0  0  0
 25 13  1  0  0  0  0
 30 16  1  0  0  0  0
 31 17  1  0  0  0  0
 32 18  1  0  0  0  0
 37 19  1  0  0  0  0
 39 20  1  0  0  0  0
 40 20  1  0  0  0  0
M  END
$$$$
