rmsd240.gzmat
 OpenBabel08211713373D

 40 41  0  0  0  0  0  0  0  0999 V2000
    0.0000    0.0000    0.0000 O   0  0  0  0  0  0  0  0  0  0  0  0
    1.3605    0.0000    0.0000 C   0  0  0  0  0  0  0  0  0  0  0  0
    1.9134    0.0000    1.2970 C   0  0  0  0  0  0  0  0  0  0  0  0
    3.2966   -0.0168    1.4312 C   0  0  0  0  0  0  0  0  0  0  0  0
    4.1189   -0.0237    0.3016 C   0  0  0  0  0  0  0  0  0  0  0  0
    3.5557   -0.0143   -0.9696 C   0  0  0  0  0  0  0  0  0  0  0  0
    2.1696   -0.0040   -1.1335 C   0  0  0  0  0  0  0  0  0  0  0  0
    1.0410    0.0166    2.4778 C   0  0  0  0  0  0  0  0  0  0  0  0
    0.7752    1.1504    3.1465 C   0  0  0  0  0  0  0  0  0  0  0  0
   -0.0938    1.1784    4.3284 C   0  0  0  0  0  0  0  0  0  0  0  0
    0.4568    1.3447    5.6160 C   0  0  0  0  0  0  0  0  0  0  0  0
    1.8112    1.4714    5.6048 O   0  0  0  0  0  0  0  0  0  0  0  0
    2.4608    1.5854    6.8626 C   0  0  0  0  0  0  0  0  0  0  0  0
   -0.3490    1.3743    6.7513 C   0  0  0  0  0  0  0  0  0  0  0  0
   -1.7305    1.2477    6.5990 C   0  0  0  0  0  0  0  0  0  0  0  0
   -2.2925    1.0918    5.3370 C   0  0  0  0  0  0  0  0  0  0  0  0
   -1.4730    1.0564    4.2059 C   0  0  0  0  0  0  0  0  0  0  0  0
    1.3379    2.4813    2.7712 C   0  0  0  0  0  0  0  0  0  0  0  0
    0.4866   -1.3185    2.8482 C   0  0  0  0  0  0  0  0  0  0  0  0
   -0.6463    0.0915   -1.2613 C   0  0  0  0  0  0  0  0  0  0  0  0
    3.7367   -0.0192    2.4291 H   0  0  0  0  0  0  0  0  0  0  0  0
    5.1986   -0.0336    0.4202 H   0  0  0  0  0  0  0  0  0  0  0  0
    4.1979   -0.0146   -1.8490 H   0  0  0  0  0  0  0  0  0  0  0  0
    1.7453   -0.0002   -2.1302 H   0  0  0  0  0  0  0  0  0  0  0  0
    3.5153    1.6790    6.5686 H   0  0  0  0  0  0  0  0  0  0  0  0
    2.3100    0.6833    7.4628 H   0  0  0  0  0  0  0  0  0  0  0  0
    2.1333    2.4813    7.3980 H   0  0  0  0  0  0  0  0  0  0  0  0
    0.0743    1.4930    7.7416 H   0  0  0  0  0  0  0  0  0  0  0  0
   -2.3691    1.2709    7.4808 H   0  0  0  0  0  0  0  0  0  0  0  0
   -3.3685    0.9952    5.2253 H   0  0  0  0  0  0  0  0  0  0  0  0
   -1.9127    0.9312    3.2156 H   0  0  0  0  0  0  0  0  0  0  0  0
    1.7142    2.5054    1.7396 H   0  0  0  0  0  0  0  0  0  0  0  0
    2.1754    2.7410    3.4389 H   0  0  0  0  0  0  0  0  0  0  0  0
    0.5864    3.2777    2.8616 H   0  0  0  0  0  0  0  0  0  0  0  0
   -0.2741   -1.6325    2.1161 H   0  0  0  0  0  0  0  0  0  0  0  0
    0.0130   -1.3209    3.8392 H   0  0  0  0  0  0  0  0  0  0  0  0
    1.2705   -2.0888    2.8585 H   0  0  0  0  0  0  0  0  0  0  0  0
   -1.7068    0.1106   -0.9744 H   0  0  0  0  0  0  0  0  0  0  0  0
   -0.4328   -0.7878   -1.8759 H   0  0  0  0  0  0  0  0  0  0  0  0
   -0.3743    1.0168   -1.7783 H   0  0  0  0  0  0  0  0  0  0  0  0
  1  2  1  0  0  0  0
  2  3  2  0  0  0  0
  3  4  1  0  0  0  0
  3  8  1  0  0  0  0
  4 21  1  0  0  0  0
  5 22  1  0  0  0  0
  5  4  2  0  0  0  0
  6  5  1  0  0  0  0
  7  6  2  0  0  0  0
  7  2  1  0  0  0  0
  8 19  1  0  0  0  0
  8  9  2  0  0  0  0
  9 10  1  0  0  0  0
 10 11  1  0  0  0  0
 11 14  2  0  0  0  0
 12 11  1  0  0  0  0
 12 13  1  0  0  0  0
 13 27  1  0  0  0  0
 13 26  1  0  0  0  0
 14 28  1  0  0  0  0
 15 14  1  0  0  0  0
 15 29  1  0  0  0  0
 16 15  2  0  0  0  0
 17 10  2  0  0  0  0
 17 16  1  0  0  0  0
 18 34  1  0  0  0  0
 18  9  1  0  0  0  0
 18 33  1  0  0  0  0
 19 37  1  0  0  0  0
 19 36  1  0  0  0  0
 20 38  1  0  0  0  0
 20  1  1  0  0  0  0
 23  6  1  0  0  0  0
 24  7  1  0  0  0  0
 25 13  1  0  0  0  0
 30 16  1  0  0  0  0
 31 17  1  0  0  0  0
 32 18  1  0  0  0  0
 35 19  1  0  0  0  0
 39 20  1  0  0  0  0
 40 20  1  0  0  0  0
M  END
$$$$
