rmsd68.gzmat
 OpenBabel08211713373D

 40 41  0  0  0  0  0  0  0  0999 V2000
    0.0000    0.0000    0.0000 O   0  0  0  0  0  0  0  0  0  0  0  0
    1.3603    0.0000    0.0000 C   0  0  0  0  0  0  0  0  0  0  0  0
    1.9133    0.0000    1.2971 C   0  0  0  0  0  0  0  0  0  0  0  0
    3.2966   -0.0164    1.4311 C   0  0  0  0  0  0  0  0  0  0  0  0
    4.1185   -0.0325    0.3015 C   0  0  0  0  0  0  0  0  0  0  0  0
    3.5548   -0.0285   -0.9696 C   0  0  0  0  0  0  0  0  0  0  0  0
    2.1689   -0.0099   -1.1336 C   0  0  0  0  0  0  0  0  0  0  0  0
    1.0415    0.0022    2.4783 C   0  0  0  0  0  0  0  0  0  0  0  0
    0.8003    1.1170    3.1864 C   0  0  0  0  0  0  0  0  0  0  0  0
   -0.0607    1.1150    4.3754 C   0  0  0  0  0  0  0  0  0  0  0  0
    0.5082    1.0607    5.6642 C   0  0  0  0  0  0  0  0  0  0  0  0
    1.8684    1.0396    5.6441 O   0  0  0  0  0  0  0  0  0  0  0  0
    2.5285    0.8217    6.8823 C   0  0  0  0  0  0  0  0  0  0  0  0
   -0.2858    1.0482    6.8080 C   0  0  0  0  0  0  0  0  0  0  0  0
   -1.6730    1.1027    6.6625 C   0  0  0  0  0  0  0  0  0  0  0  0
   -2.2514    1.1676    5.3997 C   0  0  0  0  0  0  0  0  0  0  0  0
   -1.4442    1.1717    4.2595 C   0  0  0  0  0  0  0  0  0  0  0  0
    1.3788    2.4530    2.8569 C   0  0  0  0  0  0  0  0  0  0  0  0
    0.4683   -1.3357    2.8098 C   0  0  0  0  0  0  0  0  0  0  0  0
   -0.6475    0.1122   -1.2592 C   0  0  0  0  0  0  0  0  0  0  0  0
    3.7378   -0.0143    2.4285 H   0  0  0  0  0  0  0  0  0  0  0  0
    5.1983   -0.0479    0.4203 H   0  0  0  0  0  0  0  0  0  0  0  0
    4.1969   -0.0412   -1.8486 H   0  0  0  0  0  0  0  0  0  0  0  0
    1.7446   -0.0060   -2.1305 H   0  0  0  0  0  0  0  0  0  0  0  0
    3.5843    0.7925    6.5785 H   0  0  0  0  0  0  0  0  0  0  0  0
    2.2311   -0.1349    7.3221 H   0  0  0  0  0  0  0  0  0  0  0  0
    2.3518    1.6519    7.5724 H   0  0  0  0  0  0  0  0  0  0  0  0
    0.1505    1.0010    7.7986 H   0  0  0  0  0  0  0  0  0  0  0  0
   -2.3045    1.0959    7.5494 H   0  0  0  0  0  0  0  0  0  0  0  0
   -3.3317    1.2133    5.2954 H   0  0  0  0  0  0  0  0  0  0  0  0
   -1.8962    1.2155    3.2681 H   0  0  0  0  0  0  0  0  0  0  0  0
    1.8553    2.4765    1.8674 H   0  0  0  0  0  0  0  0  0  0  0  0
    2.1422    2.7339    3.5998 H   0  0  0  0  0  0  0  0  0  0  0  0
    0.6073    3.2358    2.8667 H   0  0  0  0  0  0  0  0  0  0  0  0
   -0.1070   -1.7337    1.9595 H   0  0  0  0  0  0  0  0  0  0  0  0
   -0.2054   -1.3074    3.6768 H   0  0  0  0  0  0  0  0  0  0  0  0
    1.2642   -2.0596    3.0366 H   0  0  0  0  0  0  0  0  0  0  0  0
   -1.7078    0.1228   -0.9702 H   0  0  0  0  0  0  0  0  0  0  0  0
   -0.4334   -0.7544   -1.8915 H   0  0  0  0  0  0  0  0  0  0  0  0
   -0.3776    1.0478   -1.7580 H   0  0  0  0  0  0  0  0  0  0  0  0
  1  2  1  0  0  0  0
  2  3  2  0  0  0  0
  3  4  1  0  0  0  0
  3  8  1  0  0  0  0
  4 21  1  0  0  0  0
  5 22  1  0  0  0  0
  5  4  2  0  0  0  0
  6  5  1  0  0  0  0
  7  6  2  0  0  0  0
  7  2  1  0  0  0  0
  8 19  1  0  0  0  0
  8  9  2  0  0  0  0
  9 10  1  0  0  0  0
 10 11  1  0  0  0  0
 11 14  2  0  0  0  0
 12 11  1  0  0  0  0
 12 13  1  0  0  0  0
 13 26  1  0  0  0  0
 13 27  1  0  0  0  0
 14 28  1  0  0  0  0
 15 14  1  0  0  0  0
 15 29  1  0  0  0  0
 16 15  2  0  0  0  0
 17 10  2  0  0  0  0
 17 16  1  0  0  0  0
 18 34  1  0  0  0  0
 18  9  1  0  0  0  0
 18 33  1  0  0  0  0
 19 37  1  0  0  0  0
 19 36  1  0  0  0  0
 20 38  1  0  0  0  0
 20  1  1  0  0  0  0
 23  6  1  0  0  0  0
 24  7  1  0  0  0  0
 25 13  1  0  0  0  0
 30 16  1  0  0  0  0
 31 17  1  0  0  0  0
 32 18  1  0  0  0  0
 35 19  1  0  0  0  0
 39 20  1  0  0  0  0
 40 20  1  0  0  0  0
M  END
$$$$
