27
rmsd155.gzmat
S          0.00000        0.00000        0.00000
C          1.76150        0.00000        0.00000
C          2.54980        0.00000        1.08620
C          2.11880        0.05120        2.45050
O          3.19570       -0.01280        3.32830
C          2.64510        0.07760        4.59620
N          3.57630        0.04040        5.67460
O          4.75910       -0.11130        5.42460
O          3.12000        0.16560        6.80250
C          1.27490        0.19130        4.54240
C          0.93510        0.17210        3.15460
S          2.44870        0.00170       -1.63390
C          0.90630        0.07260       -2.50270
C         -0.20600        0.08470       -1.75690
S         -1.88040        0.15050       -2.30010
C         -2.07700        1.91460       -2.70580
S          1.07390        0.18470       -4.24950
C          0.12930       -1.23460       -4.88320
H          3.65000       -0.03230        0.97610
H          0.58980        0.28050        5.36690
H         -0.06510        0.24630        2.77770
H         -3.11930        2.07620       -3.01110
H         -1.42750        2.22810       -3.53140
H         -1.87190        2.56140       -1.84510
H          0.57230       -1.53200       -5.84330
H         -0.92440       -0.98440       -5.05610
H          0.16630       -2.10350       -4.21590
