27
rmsd162.gzmat
S          0.00000        0.00000        0.00000
C          1.76330        0.00000        0.00000
C          2.52800        0.00000        1.10680
C          2.05500        0.00040        2.45520
O          0.68410       -0.03090        2.62860
C          0.48390       -0.02050        4.00290
N         -0.87600       -0.05310        4.41870
O         -1.75180       -0.09460        3.57110
O         -1.08710       -0.03860        5.62410
C          1.68220        0.01570        4.68230
C          2.69790        0.02770        3.68280
S          2.45010        0.00990       -1.62590
C          0.90870        0.01250       -2.49440
C         -0.21650        0.00890       -1.76000
S         -1.81410        0.04100       -2.47160
C         -2.98210       -0.21660       -1.10450
S          1.02590        0.09480       -4.24700
C          0.89830       -1.65480       -4.73830
H          3.62680        0.00250        1.03100
H          1.83010        0.03210        5.74810
H          3.75280        0.05280        3.86100
H         -3.98980       -0.26010       -1.54370
H         -2.98210        0.60310       -0.37380
H         -2.82100       -1.15940       -0.56670
H          0.95530       -1.69760       -5.83370
H         -0.05190       -2.10550       -4.43140
H          1.71440       -2.26020       -4.33050
