rmsd119.gzmat
 OpenBabel08211713413D

 27 28  0  0  0  0  0  0  0  0999 V2000
    0.0000    0.0000    0.0000 S   0  0  0  0  0  0  0  0  0  0  0  0
    1.7635    0.0000    0.0000 C   0  0  0  0  0  0  0  0  0  0  0  0
    2.5240    0.0000    1.1098 C   0  0  0  0  0  0  0  0  0  0  0  0
    2.0398   -0.0188    2.4542 C   0  0  0  0  0  0  0  0  0  0  0  0
    0.6676   -0.0786    2.6107 O   0  0  0  0  0  0  0  0  0  0  0  0
    0.4505   -0.0974    3.9821 C   0  0  0  0  0  0  0  0  0  0  0  0
   -0.9139   -0.1619    4.3786 N   0  0  0  0  0  0  0  0  0  0  0  0
   -1.7783   -0.1788    3.5187 O   0  0  0  0  0  0  0  0  0  0  0  0
   -1.1403   -0.1979    5.5806 O   0  0  0  0  0  0  0  0  0  0  0  0
    1.6399   -0.0504    4.6765 C   0  0  0  0  0  0  0  0  0  0  0  0
    2.6672    0.0010    3.6898 C   0  0  0  0  0  0  0  0  0  0  0  0
    2.4502   -0.0023   -1.6249 S   0  0  0  0  0  0  0  0  0  0  0  0
    0.9081   -0.0464   -2.4928 C   0  0  0  0  0  0  0  0  0  0  0  0
   -0.2174   -0.0309   -1.7591 C   0  0  0  0  0  0  0  0  0  0  0  0
   -1.8172   -0.0165   -2.4658 S   0  0  0  0  0  0  0  0  0  0  0  0
   -2.9806   -0.2011   -1.0823 C   0  0  0  0  0  0  0  0  0  0  0  0
    1.0342   -0.0564   -4.2468 S   0  0  0  0  0  0  0  0  0  0  0  0
    0.7626   -1.8151   -4.6400 C   0  0  0  0  0  0  0  0  0  0  0  0
    3.6225    0.0104    1.0404 H   0  0  0  0  0  0  0  0  0  0  0  0
    1.7747   -0.0521    5.7440 H   0  0  0  0  0  0  0  0  0  0  0  0
    3.7191    0.0463    3.8823 H   0  0  0  0  0  0  0  0  0  0  0  0
   -3.9934   -0.2166   -1.5110 H   0  0  0  0  0  0  0  0  0  0  0  0
   -2.9449    0.6329   -0.3686 H   0  0  0  0  0  0  0  0  0  0  0  0
   -2.8475   -1.1373   -0.5254 H   0  0  0  0  0  0  0  0  0  0  0  0
    0.9941   -1.9636   -5.7023 H   0  0  0  0  0  0  0  0  0  0  0  0
   -0.2767   -2.1186   -4.4728 H   0  0  0  0  0  0  0  0  0  0  0  0
    1.4119   -2.4755   -4.0559 H   0  0  0  0  0  0  0  0  0  0  0  0
  2  1  1  0  0  0  0
  2  3  1  0  0  0  0
  3  4  1  0  0  0  0
  4  5  1  0  0  0  0
  4 11  2  0  0  0  0
  5  6  1  0  0  0  0
  6  7  1  0  0  0  0
  6 10  2  0  0  0  0
  7  9  2  0  0  0  0
  8  7  2  0  0  0  0
 10 20  1  0  0  0  0
 11 21  1  0  0  0  0
 11 10  1  0  0  0  0
 12  2  2  0  0  0  0
 13 14  2  0  0  0  0
 13 12  1  0  0  0  0
 14  1  1  0  0  0  0
 15 14  1  0  0  0  0
 15 16  1  0  0  0  0
 16 24  1  0  0  0  0
 16 23  1  0  0  0  0
 17 13  1  0  0  0  0
 18 26  1  0  0  0  0
 18 17  1  0  0  0  0
 18 27  1  0  0  0  0
 19  3  1  0  0  0  0
 22 16  1  0  0  0  0
 25 18  1  0  0  0  0
M  RAD  1   3   2
M  END
$$$$
