27
rmsd118.gzmat
S          0.00000        0.00000        0.00000
C          1.76470        0.00000        0.00000
C          2.54000        0.00000        1.09460
C          2.06220       -0.02740        2.44680
O          2.93060        0.60370        3.32660
C          2.34120        0.47970        4.57570
N          3.05860        1.07220        5.65550
O          4.13160        1.60300        5.42760
O          2.54300        1.00740        6.76310
C          1.15220       -0.20970        4.50450
C          0.97430       -0.54100        3.12600
S          2.45460        0.03190       -1.63060
C          0.91180        0.09260       -2.50210
C         -0.20270        0.08940       -1.75930
S         -1.87950        0.13310       -2.29370
C         -2.05710        1.83150       -2.92390
S          1.08930        0.21140       -4.24720
C          0.15110       -1.20570       -4.89410
H          3.63950        0.04570        1.01290
H          0.48570       -0.45520        5.31220
H          0.15050       -1.10240        2.73150
H         -3.12430        2.00760       -3.11710
H         -1.51050        1.99170       -3.86100
H         -1.71790        2.58050       -2.19870
H          0.57290       -1.46810       -5.87420
H         -0.91190       -0.97220       -5.03180
H          0.22300       -2.09110       -4.25220
