27

S         -0.08230        0.10180       -0.01550
C          1.67710       -0.06080       -0.02540
C          2.46780       -0.15260        1.08070
C          2.04090       -0.13010        2.44590
O          3.03600       -0.23540        3.37470
C          2.45640       -0.19620        4.59150
N          3.29750       -0.29020        5.73950
O          4.50160       -0.40180        5.56100
O          2.72920       -0.25020        6.82710
C          1.09300       -0.06700        4.49310
C          0.81640       -0.02380        3.10310
S          2.35930       -0.09950       -1.65740
C          0.83290        0.06480       -2.52270
C         -0.29140        0.16610       -1.77050
S         -1.94780        0.34210       -2.36380
C         -1.89380        2.07210       -2.95880
S          0.92710        0.11050       -4.29000
C          0.17230       -1.50600       -4.69620
H          3.54610       -0.25490        0.93730
H          0.40110       -0.01280        5.32820
H         -0.16220        0.07250        2.64330
H         -2.90470        2.29710       -3.32760
H         -1.16890        2.16530       -3.77800
H         -1.64340        2.75120       -2.13280
H          0.21580       -1.59170       -5.79120
H         -0.87300       -1.52930       -4.36150
H          0.75020       -2.32100       -4.24010
