rmsd118.gzmat
 OpenBabel08211713413D

 27 28  0  0  0  0  0  0  0  0999 V2000
    0.0000    0.0000    0.0000 S   0  0  0  0  0  0  0  0  0  0  0  0
    1.7647    0.0000    0.0000 C   0  0  0  0  0  0  0  0  0  0  0  0
    2.5400    0.0000    1.0946 C   0  0  0  0  0  0  0  0  0  0  0  0
    2.0622   -0.0274    2.4468 C   0  0  0  0  0  0  0  0  0  0  0  0
    2.9306    0.6037    3.3266 O   0  0  0  0  0  0  0  0  0  0  0  0
    2.3412    0.4797    4.5757 C   0  0  0  0  0  0  0  0  0  0  0  0
    3.0586    1.0722    5.6555 N   0  0  0  0  0  0  0  0  0  0  0  0
    4.1316    1.6030    5.4276 O   0  0  0  0  0  0  0  0  0  0  0  0
    2.5430    1.0074    6.7631 O   0  0  0  0  0  0  0  0  0  0  0  0
    1.1522   -0.2097    4.5045 C   0  0  0  0  0  0  0  0  0  0  0  0
    0.9743   -0.5410    3.1260 C   0  0  0  0  0  0  0  0  0  0  0  0
    2.4546    0.0319   -1.6306 S   0  0  0  0  0  0  0  0  0  0  0  0
    0.9118    0.0926   -2.5021 C   0  0  0  0  0  0  0  0  0  0  0  0
   -0.2027    0.0894   -1.7593 C   0  0  0  0  0  0  0  0  0  0  0  0
   -1.8795    0.1331   -2.2937 S   0  0  0  0  0  0  0  0  0  0  0  0
   -2.0571    1.8315   -2.9239 C   0  0  0  0  0  0  0  0  0  0  0  0
    1.0893    0.2114   -4.2472 S   0  0  0  0  0  0  0  0  0  0  0  0
    0.1511   -1.2057   -4.8941 C   0  0  0  0  0  0  0  0  0  0  0  0
    3.6395    0.0457    1.0129 H   0  0  0  0  0  0  0  0  0  0  0  0
    0.4857   -0.4552    5.3122 H   0  0  0  0  0  0  0  0  0  0  0  0
    0.1505   -1.1024    2.7315 H   0  0  0  0  0  0  0  0  0  0  0  0
   -3.1243    2.0076   -3.1171 H   0  0  0  0  0  0  0  0  0  0  0  0
   -1.5105    1.9917   -3.8610 H   0  0  0  0  0  0  0  0  0  0  0  0
   -1.7179    2.5805   -2.1987 H   0  0  0  0  0  0  0  0  0  0  0  0
    0.5729   -1.4681   -5.8742 H   0  0  0  0  0  0  0  0  0  0  0  0
   -0.9119   -0.9722   -5.0318 H   0  0  0  0  0  0  0  0  0  0  0  0
    0.2230   -2.0911   -4.2522 H   0  0  0  0  0  0  0  0  0  0  0  0
  1  2  1  0  0  0  0
  2  3  1  0  0  0  0
  3  4  1  0  0  0  0
  4 11  2  0  0  0  0
  4  5  1  0  0  0  0
  5  6  1  0  0  0  0
  6  7  1  0  0  0  0
  7  9  2  0  0  0  0
  8  7  2  0  0  0  0
 10  6  2  0  0  0  0
 10 20  1  0  0  0  0
 11 10  1  0  0  0  0
 12  2  2  0  0  0  0
 13 14  2  0  0  0  0
 13 12  1  0  0  0  0
 14  1  1  0  0  0  0
 15 14  1  0  0  0  0
 16 15  1  0  0  0  0
 16 24  1  0  0  0  0
 17 13  1  0  0  0  0
 18 27  1  0  0  0  0
 18 17  1  0  0  0  0
 19  3  1  0  0  0  0
 21 11  1  0  0  0  0
 22 16  1  0  0  0  0
 23 16  1  0  0  0  0
 25 18  1  0  0  0  0
 26 18  1  0  0  0  0
M  RAD  1   3   2
M  END
$$$$
