36
rmsd29.gzmat
S          0.00000        0.00000        0.00000
S          2.06090        0.00000        0.00000
C          2.24020        0.00000        1.81600
N          3.34050        0.09500        2.45900
C          4.62540        0.24010        1.91210
C          5.03270        1.46240        1.35910
C          6.35250        1.61220        0.94460
C          7.25680        0.55950        1.07470
C          6.84400       -0.65380        1.62540
C          5.53020       -0.82330        2.04880
N          1.03270       -0.20320        2.49970
C         -0.18380       -0.07740        1.81600
N         -1.29340       -0.05590        2.45120
C         -2.57800       -0.04940        1.88200
C         -3.09170       -1.18970        1.24780
C         -4.40860       -1.18100        0.79780
C         -5.20630       -0.05090        0.97090
C         -4.68920        1.07890        1.60510
C         -3.37760        1.08840        2.06740
C          1.03420       -0.13000        3.98410
C          0.96160        1.31120        4.48250
H          4.32780        2.28560        1.26790
H          6.67870        2.55900        0.51570
H          8.28670        0.68410        0.74870
H          7.55420       -1.47350        1.72590
H          5.20170       -1.76330        2.48790
H         -2.47070       -2.07370        1.12090
H         -4.81680       -2.06370        0.30630
H         -6.23310       -0.04980        0.61220
H         -5.31520        1.96000        1.74010
H         -2.96980        1.96150        2.57230
H          1.96460       -0.62900        4.34960
H          0.16490       -0.72400        4.35500
H          1.80600        1.90820        4.11500
H          0.99090        1.34440        5.57840
H          0.03300        1.80130        4.16280
