36
rmsd44.gzmat
S          0.00000        0.00000        0.00000
S          2.06010        0.00000        0.00000
C          2.24280        0.00000        1.81710
N          3.35440       -0.06330        2.44660
C          4.62980       -0.07560        1.85410
C          5.18830        1.10500        1.34410
C          6.48900        1.08200        0.85080
C          7.22710       -0.10080        0.86240
C          6.66840       -1.26830        1.38190
C          5.37030       -1.26570        1.88220
N          1.03000        0.12960        2.50740
C         -0.18150       -0.00920        1.81620
N         -1.29110       -0.08300        2.44700
C         -2.57030       -0.10170        1.86400
C         -3.16710        1.09280        1.43660
C         -4.47570        1.06580        0.96450
C         -5.18350       -0.13440        0.91690
C         -4.58500       -1.31750        1.34980
C         -3.27770       -1.31180        1.82550
C          1.03060       -0.01900        3.98610
C          1.08540       -1.48670        4.40350
H          4.61320        2.02840        1.34400
H          6.93040        1.99410        0.45150
H          8.24060       -0.11160        0.46810
H          7.25000       -2.18900        1.39560
H          4.92940       -2.17070        2.29460
H         -2.61470        2.02840        1.48500
H         -4.94780        1.98890        0.63090
H         -6.20460       -0.14820        0.54260
H         -5.14350       -2.25210        1.31590
H         -2.80440       -2.22920        2.16920
H          0.10900        0.47330        4.38110
H          1.90990        0.54250        4.38430
H          0.24420       -2.05500        3.98730
H          1.03860       -1.58270        5.49480
H          2.01580       -1.96490        4.07090
