rmsd40.gzmat
 OpenBabel08211713383D

 36 38  0  0  0  0  0  0  0  0999 V2000
    0.0000    0.0000    0.0000 S   0  0  0  0  0  0  0  0  0  0  0  0
    2.0601    0.0000    0.0000 S   0  0  0  0  0  0  0  0  0  0  0  0
    2.2421    0.0000    1.8167 C   0  0  0  0  0  0  0  0  0  0  0  0
    3.3526   -0.0701    2.4463 N   0  0  0  0  0  0  0  0  0  0  0  0
    4.6270   -0.1118    1.8527 C   0  0  0  0  0  0  0  0  0  0  0  0
    5.2617    1.0771    1.4664 C   0  0  0  0  0  0  0  0  0  0  0  0
    6.5625    1.0215    0.9762 C   0  0  0  0  0  0  0  0  0  0  0  0
    7.2248   -0.2009    0.8704 C   0  0  0  0  0  0  0  0  0  0  0  0
    6.5886   -1.3782    1.2628 C   0  0  0  0  0  0  0  0  0  0  0  0
    5.2883   -1.3442    1.7559 C   0  0  0  0  0  0  0  0  0  0  0  0
    1.0306    0.1436    2.5064 N   0  0  0  0  0  0  0  0  0  0  0  0
   -0.1810    0.0005    1.8173 C   0  0  0  0  0  0  0  0  0  0  0  0
   -1.2910   -0.0753    2.4481 N   0  0  0  0  0  0  0  0  0  0  0  0
   -2.5680   -0.1042    1.8610 C   0  0  0  0  0  0  0  0  0  0  0  0
   -3.3010   -1.2984    1.9153 C   0  0  0  0  0  0  0  0  0  0  0  0
   -4.6051   -1.3156    1.4316 C   0  0  0  0  0  0  0  0  0  0  0  0
   -5.1767   -0.1588    0.9022 C   0  0  0  0  0  0  0  0  0  0  0  0
   -4.4435    1.0260    0.8568 C   0  0  0  0  0  0  0  0  0  0  0  0
   -3.1366    1.0636    1.3329 C   0  0  0  0  0  0  0  0  0  0  0  0
    1.0334    0.0189    3.9872 C   0  0  0  0  0  0  0  0  0  0  0  0
    1.0686   -1.4416    4.4318 C   0  0  0  0  0  0  0  0  0  0  0  0
    4.7435    2.0292    1.5575 H   0  0  0  0  0  0  0  0  0  0  0  0
    7.0646    1.9392    0.6732 H   0  0  0  0  0  0  0  0  0  0  0  0
    8.2404   -0.2348    0.4825 H   0  0  0  0  0  0  0  0  0  0  0  0
    7.1103   -2.3306    1.1804 H   0  0  0  0  0  0  0  0  0  0  0  0
    4.7855   -2.2572    2.0676 H   0  0  0  0  0  0  0  0  0  0  0  0
   -2.8488   -2.1944    2.3356 H   0  0  0  0  0  0  0  0  0  0  0  0
   -5.1817   -2.2390    1.4668 H   0  0  0  0  0  0  0  0  0  0  0  0
   -6.1968   -0.1806    0.5255 H   0  0  0  0  0  0  0  0  0  0  0  0
   -4.8937    1.9286    0.4456 H   0  0  0  0  0  0  0  0  0  0  0  0
   -2.5648    1.9888    1.3058 H   0  0  0  0  0  0  0  0  0  0  0  0
    0.1195    0.5303    4.3753 H   0  0  0  0  0  0  0  0  0  0  0  0
    1.9217    0.5747    4.3736 H   0  0  0  0  0  0  0  0  0  0  0  0
    0.2043   -1.9996    4.0499 H   0  0  0  0  0  0  0  0  0  0  0  0
    1.0478   -1.5149    5.5256 H   0  0  0  0  0  0  0  0  0  0  0  0
    1.9798   -1.9469    4.0860 H   0  0  0  0  0  0  0  0  0  0  0  0
  1 12  1  0  0  0  0
  2  1  1  0  0  0  0
  2  3  1  0  0  0  0
  3  4  2  0  0  0  0
  3 11  1  0  0  0  0
  5  4  1  0  0  0  0
  6 22  1  0  0  0  0
  6  5  2  0  0  0  0
  7  6  1  0  0  0  0
  8  7  2  0  0  0  0
  8  9  1  0  0  0  0
  9 10  2  0  0  0  0
 10  5  1  0  0  0  0
 10 26  1  0  0  0  0
 11 20  1  0  0  0  0
 12 13  2  0  0  0  0
 12 11  1  0  0  0  0
 14 15  1  0  0  0  0
 14 13  1  0  0  0  0
 15 27  1  0  0  0  0
 16 28  1  0  0  0  0
 16 15  2  0  0  0  0
 17 16  1  0  0  0  0
 18 17  2  0  0  0  0
 18 19  1  0  0  0  0
 19 14  2  0  0  0  0
 20 33  1  0  0  0  0
 20 32  1  0  0  0  0
 20 21  1  0  0  0  0
 21 35  1  0  0  0  0
 23  7  1  0  0  0  0
 24  8  1  0  0  0  0
 25  9  1  0  0  0  0
 29 17  1  0  0  0  0
 30 18  1  0  0  0  0
 31 19  1  0  0  0  0
 34 21  1  0  0  0  0
 36 21  1  0  0  0  0
M  END
$$$$
