rmsd104.gzmat
 OpenBabel08211713383D

 36 38  0  0  0  0  0  0  0  0999 V2000
    0.0000    0.0000    0.0000 S   0  0  0  0  0  0  0  0  0  0  0  0
    2.0602    0.0000    0.0000 S   0  0  0  0  0  0  0  0  0  0  0  0
    2.2434    0.0000    1.8162 C   0  0  0  0  0  0  0  0  0  0  0  0
    3.3517   -0.0530    2.4518 N   0  0  0  0  0  0  0  0  0  0  0  0
    4.6375   -0.0349    1.8872 C   0  0  0  0  0  0  0  0  0  0  0  0
    5.1445    1.1271    1.2881 C   0  0  0  0  0  0  0  0  0  0  0  0
    6.4627    1.1413    0.8432 C   0  0  0  0  0  0  0  0  0  0  0  0
    7.2697    0.0143    0.9920 C   0  0  0  0  0  0  0  0  0  0  0  0
    6.7599   -1.1363    1.5931 C   0  0  0  0  0  0  0  0  0  0  0  0
    5.4450   -1.1709    2.0450 C   0  0  0  0  0  0  0  0  0  0  0  0
    1.0294    0.1100    2.5078 N   0  0  0  0  0  0  0  0  0  0  0  0
   -0.1821   -0.0284    1.8168 C   0  0  0  0  0  0  0  0  0  0  0  0
   -1.2888   -0.1196    2.4503 N   0  0  0  0  0  0  0  0  0  0  0  0
   -2.5712   -0.1597    1.8777 C   0  0  0  0  0  0  0  0  0  0  0  0
   -3.1441    0.9853    1.3071 C   0  0  0  0  0  0  0  0  0  0  0  0
   -4.4568    0.9300    0.8482 C   0  0  0  0  0  0  0  0  0  0  0  0
   -5.1918   -0.2494    0.9542 C   0  0  0  0  0  0  0  0  0  0  0  0
   -4.6179   -1.3824    1.5309 C   0  0  0  0  0  0  0  0  0  0  0  0
   -3.3080   -1.3474    1.9962 C   0  0  0  0  0  0  0  0  0  0  0  0
    1.0326   -0.0559    3.9848 C   0  0  0  0  0  0  0  0  0  0  0  0
    1.0291   -1.5292    4.3860 C   0  0  0  0  0  0  0  0  0  0  0  0
    4.5184    2.0104    1.1861 H   0  0  0  0  0  0  0  0  0  0  0  0
    6.8647    2.0395    0.3766 H   0  0  0  0  0  0  0  0  0  0  0  0
    8.2984    0.0333    0.6402 H   0  0  0  0  0  0  0  0  0  0  0  0
    7.3941   -2.0137    1.7110 H   0  0  0  0  0  0  0  0  0  0  0  0
    5.0405   -2.0615    2.5211 H   0  0  0  0  0  0  0  0  0  0  0  0
   -2.5729    1.9081    1.2358 H   0  0  0  0  0  0  0  0  0  0  0  0
   -4.9097    1.8149    0.4031 H   0  0  0  0  0  0  0  0  0  0  0  0
   -6.2157   -0.2867    0.5899 H   0  0  0  0  0  0  0  0  0  0  0  0
   -5.1978   -2.3003    1.6184 H   0  0  0  0  0  0  0  0  0  0  0  0
   -2.8527   -2.2235    2.4529 H   0  0  0  0  0  0  0  0  0  0  0  0
    0.1343    0.4694    4.3895 H   0  0  0  0  0  0  0  0  0  0  0  0
    1.9354    0.4650    4.3860 H   0  0  0  0  0  0  0  0  0  0  0  0
    0.1093   -2.0320    4.0612 H   0  0  0  0  0  0  0  0  0  0  0  0
    1.0946   -1.6343    5.4752 H   0  0  0  0  0  0  0  0  0  0  0  0
    1.8815   -2.0676    3.9535 H   0  0  0  0  0  0  0  0  0  0  0  0
  1 12  1  0  0  0  0
  2  1  1  0  0  0  0
  2  3  1  0  0  0  0
  3  4  2  0  0  0  0
  3 11  1  0  0  0  0
  5 10  1  0  0  0  0
  5  4  1  0  0  0  0
  6  5  2  0  0  0  0
  7  8  2  0  0  0  0
  7  6  1  0  0  0  0
  8  9  1  0  0  0  0
  9 25  1  0  0  0  0
  9 10  2  0  0  0  0
 10 26  1  0  0  0  0
 11 20  1  0  0  0  0
 12 13  2  0  0  0  0
 12 11  1  0  0  0  0
 14 19  1  0  0  0  0
 14 13  1  0  0  0  0
 15 14  2  0  0  0  0
 16 17  2  0  0  0  0
 16 15  1  0  0  0  0
 17 18  1  0  0  0  0
 18 30  1  0  0  0  0
 18 19  2  0  0  0  0
 19 31  1  0  0  0  0
 20 33  1  0  0  0  0
 20 21  1  0  0  0  0
 20 32  1  0  0  0  0
 21 35  1  0  0  0  0
 22  6  1  0  0  0  0
 23  7  1  0  0  0  0
 24  8  1  0  0  0  0
 27 15  1  0  0  0  0
 28 16  1  0  0  0  0
 29 17  1  0  0  0  0
 34 21  1  0  0  0  0
 36 21  1  0  0  0  0
M  END
$$$$
