36
rmsd3.gzmat
S          0.00000        0.00000        0.00000
S          2.06030        0.00000        0.00000
C          2.24420        0.00000        1.81670
N          3.35290        0.05060        2.45120
C          4.63860        0.05160        1.88560
C          5.41970        1.20790        2.03030
C          6.73520        1.19900        1.57950
C          7.27170        0.05360        0.99180
C          6.49110       -1.09320        0.85520
C          5.17170       -1.10410        1.29800
N          1.02860       -0.09980        2.50740
C         -0.17930        0.06870        1.81540
N         -1.28290        0.18090        2.45050
C         -2.56160        0.30170        1.88160
C         -2.95920        1.49780        1.26700
C         -4.26960        1.62490        0.81720
C         -5.17410        0.57550        0.97350
C         -4.77230       -0.60960        1.58980
C         -3.46730       -0.75620        2.04800
C          1.03070        0.06560        3.98450
C          1.04660        1.53790        4.38900
H          4.99420        2.09390        2.49610
H          7.34900        2.09190        1.68900
H          8.30110        0.05470        0.64130
H          6.91390       -1.98750        0.39940
H          4.56530       -2.00170        1.20260
H         -2.25460        2.31860        1.15360
H         -4.58800        2.55060        0.33970
H         -6.19580        0.68230        0.61670
H         -5.48340       -1.42530        1.71450
H         -3.14560       -1.67490        2.53510
H          1.92510       -0.46840        4.38700
H          0.12320       -0.44680        4.38590
H          1.92470        2.05830        3.98660
H          1.07680        1.63990        5.48040
H          0.14890        2.06180        4.03580
