rmsd27.gzmat
 OpenBabel08211713383D

 36 38  0  0  0  0  0  0  0  0999 V2000
    0.0000    0.0000    0.0000 S   0  0  0  0  0  0  0  0  0  0  0  0
    2.0608    0.0000    0.0000 S   0  0  0  0  0  0  0  0  0  0  0  0
    2.2435    0.0000    1.8170 C   0  0  0  0  0  0  0  0  0  0  0  0
    3.3521   -0.0712    2.4498 N   0  0  0  0  0  0  0  0  0  0  0  0
    4.6323   -0.0875    1.8703 C   0  0  0  0  0  0  0  0  0  0  0  0
    5.1781    1.0728    1.3030 C   0  0  0  0  0  0  0  0  0  0  0  0
    6.4874    1.0460    0.8329 C   0  0  0  0  0  0  0  0  0  0  0  0
    7.2464   -0.1197    0.9258 C   0  0  0  0  0  0  0  0  0  0  0  0
    6.6990   -1.2677    1.4981 C   0  0  0  0  0  0  0  0  0  0  0  0
    5.3924   -1.2615    1.9746 C   0  0  0  0  0  0  0  0  0  0  0  0
    1.0308    0.1350    2.5061 N   0  0  0  0  0  0  0  0  0  0  0  0
   -0.1797   -0.0217    1.8168 C   0  0  0  0  0  0  0  0  0  0  0  0
   -1.2856   -0.1192    2.4501 N   0  0  0  0  0  0  0  0  0  0  0  0
   -2.5675   -0.1620    1.8760 C   0  0  0  0  0  0  0  0  0  0  0  0
   -3.1985    1.0246    1.4764 C   0  0  0  0  0  0  0  0  0  0  0  0
   -4.5139    0.9742    1.0257 C   0  0  0  0  0  0  0  0  0  0  0  0
   -5.1921   -0.2425    0.9645 C   0  0  0  0  0  0  0  0  0  0  0  0
   -4.5567   -1.4184    1.3623 C   0  0  0  0  0  0  0  0  0  0  0  0
   -3.2448   -1.3883    1.8244 C   0  0  0  0  0  0  0  0  0  0  0  0
    1.0298    0.0100    3.9873 C   0  0  0  0  0  0  0  0  0  0  0  0
    1.0109   -1.4501    4.4340 C   0  0  0  0  0  0  0  0  0  0  0  0
    4.5872    1.9842    1.2433 H   0  0  0  0  0  0  0  0  0  0  0  0
    6.9191    1.9421    0.3890 H   0  0  0  0  0  0  0  0  0  0  0  0
    8.2680   -0.1334    0.5537 H   0  0  0  0  0  0  0  0  0  0  0  0
    7.2969   -2.1750    1.5733 H   0  0  0  0  0  0  0  0  0  0  0  0
    4.9588   -2.1502    2.4284 H   0  0  0  0  0  0  0  0  0  0  0  0
   -2.6653    1.9715    1.5292 H   0  0  0  0  0  0  0  0  0  0  0  0
   -5.0145    1.8912    0.7186 H   0  0  0  0  0  0  0  0  0  0  0  0
   -6.2187   -0.2742    0.6067 H   0  0  0  0  0  0  0  0  0  0  0  0
   -5.0894   -2.3671    1.3121 H   0  0  0  0  0  0  0  0  0  0  0  0
   -2.7463   -2.2992    2.1488 H   0  0  0  0  0  0  0  0  0  0  0  0
    0.1351    0.5564    4.3726 H   0  0  0  0  0  0  0  0  0  0  0  0
    1.9374    0.5319    4.3760 H   0  0  0  0  0  0  0  0  0  0  0  0
    0.1188   -1.9727    4.0654 H   0  0  0  0  0  0  0  0  0  0  0  0
    1.0029   -1.5209    5.5281 H   0  0  0  0  0  0  0  0  0  0  0  0
    1.8942   -1.9933    4.0757 H   0  0  0  0  0  0  0  0  0  0  0  0
  1 12  1  0  0  0  0
  2  1  1  0  0  0  0
  2  3  1  0  0  0  0
  3  4  2  0  0  0  0
  3 11  1  0  0  0  0
  5 10  1  0  0  0  0
  5  4  1  0  0  0  0
  6  5  2  0  0  0  0
  7  8  2  0  0  0  0
  7  6  1  0  0  0  0
  8  9  1  0  0  0  0
  9 25  1  0  0  0  0
  9 10  2  0  0  0  0
 10 26  1  0  0  0  0
 11 20  1  0  0  0  0
 12 13  2  0  0  0  0
 12 11  1  0  0  0  0
 14 13  1  0  0  0  0
 15 27  1  0  0  0  0
 15 14  2  0  0  0  0
 16 15  1  0  0  0  0
 17 16  2  0  0  0  0
 17 18  1  0  0  0  0
 18 19  2  0  0  0  0
 19 14  1  0  0  0  0
 19 31  1  0  0  0  0
 20 32  1  0  0  0  0
 20 33  1  0  0  0  0
 20 21  1  0  0  0  0
 21 35  1  0  0  0  0
 22  6  1  0  0  0  0
 23  7  1  0  0  0  0
 24  8  1  0  0  0  0
 28 16  1  0  0  0  0
 29 17  1  0  0  0  0
 30 18  1  0  0  0  0
 34 21  1  0  0  0  0
 36 21  1  0  0  0  0
M  END
$$$$
