24
rmsd201.gzmat
N          0.00000        0.00000        0.00000
C          1.38600        0.00000        0.00000
O          2.02380        0.00000        1.03760
N          1.99870        0.06110       -1.26190
C          3.43240       -0.22800       -1.32020
H          3.88860       -0.13860       -0.28480
C          4.12840        0.74430       -2.29610
C          4.14120        2.17390       -1.76630
S          5.41020        2.43270       -0.46550
C          4.45910        2.38390        1.08300
C          3.70190       -1.64570       -1.81580
O          4.64180       -2.34770       -1.57180
O          2.71120       -2.06410       -2.64950
H         -0.54840        0.08470       -0.82330
H         -0.47600        0.06380        0.87920
H          1.47650       -0.19590       -2.09200
H          3.61020        0.72140       -3.27850
H          5.16210        0.38760       -2.49940
H          3.14020        2.46290       -1.39400
H          4.38070        2.88210       -2.58320
H          5.16330        2.25900        1.91500
H          3.75060        1.54360        1.12750
H          3.89600        3.30730        1.24440
H          2.83570       -2.98540       -2.98610
