24

N         -0.04820       -0.09250       -0.15940
C          1.31510       -0.29070       -0.08180
O          1.85900       -0.85810        0.84830
N          2.02330        0.20560       -1.16770
C          3.42680       -0.13390       -1.26300
H          3.90810        0.12790       -0.30980
C          4.08510        0.65670       -2.41000
C          5.61180        0.63780       -2.37310
S          6.39010        1.52400       -3.76870
C          6.17380        0.28440       -5.08450
C          3.68570       -1.62900       -1.44300
O          4.72570       -2.17690       -1.17710
O          2.64440       -2.26880       -2.00970
H         -0.40170        0.69090       -0.69650
H         -0.54790       -0.29580        0.69830
H          1.52240        0.24410       -2.04990
H          3.73110        1.69710       -2.34540
H          3.72360        0.25760       -3.37400
H          6.00140       -0.39000       -2.33480
H          5.97360        1.14540       -1.46530
H          6.63660        0.69790       -5.99190
H          5.11200        0.08540       -5.29620
H          6.68000       -0.65840       -4.82570
H          2.89990       -3.20450       -2.08240
