rmsd201.gzmat
 OpenBabel08211713423D

 24 23  0  0  1  0  0  0  0  0999 V2000
    0.0000    0.0000    0.0000 N   0  0  0  0  0  0  0  0  0  0  0  0
    1.3860    0.0000    0.0000 C   0  0  0  0  0  0  0  0  0  0  0  0
    2.0238    0.0000    1.0376 O   0  0  0  0  0  0  0  0  0  0  0  0
    1.9987    0.0611   -1.2619 N   0  0  0  0  0  0  0  0  0  0  0  0
    3.4324   -0.2280   -1.3202 C   0  0  2  0  0  0  0  0  0  0  0  0
    3.8886   -0.1386   -0.2848 H   0  0  0  0  0  0  0  0  0  0  0  0
    4.1284    0.7443   -2.2961 C   0  0  0  0  0  0  0  0  0  0  0  0
    4.1412    2.1739   -1.7663 C   0  0  0  0  0  0  0  0  0  0  0  0
    5.4102    2.4327   -0.4655 S   0  0  0  0  0  0  0  0  0  0  0  0
    4.4591    2.3839    1.0830 C   0  0  0  0  0  0  0  0  0  0  0  0
    3.7019   -1.6457   -1.8158 C   0  0  0  0  0  0  0  0  0  0  0  0
    4.6418   -2.3477   -1.5718 O   0  0  0  0  0  0  0  0  0  0  0  0
    2.7112   -2.0641   -2.6495 O   0  0  0  0  0  0  0  0  0  0  0  0
   -0.5484    0.0847   -0.8233 H   0  0  0  0  0  0  0  0  0  0  0  0
   -0.4760    0.0638    0.8792 H   0  0  0  0  0  0  0  0  0  0  0  0
    1.4765   -0.1959   -2.0920 H   0  0  0  0  0  0  0  0  0  0  0  0
    3.6102    0.7214   -3.2785 H   0  0  0  0  0  0  0  0  0  0  0  0
    5.1621    0.3876   -2.4994 H   0  0  0  0  0  0  0  0  0  0  0  0
    3.1402    2.4629   -1.3940 H   0  0  0  0  0  0  0  0  0  0  0  0
    4.3807    2.8821   -2.5832 H   0  0  0  0  0  0  0  0  0  0  0  0
    5.1633    2.2590    1.9150 H   0  0  0  0  0  0  0  0  0  0  0  0
    3.7506    1.5436    1.1275 H   0  0  0  0  0  0  0  0  0  0  0  0
    3.8960    3.3073    1.2444 H   0  0  0  0  0  0  0  0  0  0  0  0
    2.8357   -2.9854   -2.9861 H   0  0  0  0  0  0  0  0  0  0  0  0
  1  2  1  0  0  0  0
  1 15  1  0  0  0  0
  2  3  2  0  0  0  0
  4  2  1  0  0  0  0
  5  4  1  0  0  0  0
  5  6  1  1  0  0  0
  7  8  1  0  0  0  0
  7  5  1  0  0  0  0
  8 19  1  0  0  0  0
  8  9  1  0  0  0  0
  9 10  1  0  0  0  0
 10 22  1  0  0  0  0
 10 23  1  0  0  0  0
 10 21  1  0  0  0  0
 11 12  2  0  0  0  0
 11  5  1  0  0  0  0
 13 11  1  0  0  0  0
 14  1  1  0  0  0  0
 16  4  1  0  0  0  0
 17  7  1  0  0  0  0
 18  7  1  0  0  0  0
 20  8  1  0  0  0  0
 24 13  1  0  0  0  0
M  END
$$$$
