
     RDKit          3D

 24 23  0  0  0  0  0  0  0  0999 V2000
    0.0370   -0.1527    0.0269 N   0  0  0  0  0  0  0  0  0  0  0  0
    1.4013    0.0096    0.0472 C   0  0  0  0  0  0  0  0  0  0  0  0
    2.0510    0.0044    1.0818 O   0  0  0  0  0  0  0  0  0  0  0  0
    1.9738    0.2340   -1.1898 N   0  0  0  0  0  0  0  0  0  0  0  0
    3.4119    0.2340   -1.3242 C   0  0  2  0  0  0  0  0  0  0  0  0
    3.8361   -0.2361   -0.4216 H   0  0  0  0  0  0  0  0  0  0  0  0
    4.0223    1.6476   -1.4564 C   0  0  0  0  0  0  0  0  0  0  0  0
    3.6488    2.5502   -0.2841 C   0  0  0  0  0  0  0  0  0  0  0  0
    4.3824    4.2194   -0.3763 S   0  0  0  0  0  0  0  0  0  0  0  0
    6.1160    3.8322    0.0213 C   0  0  0  0  0  0  0  0  0  0  0  0
    3.7851   -0.6144   -2.5268 C   0  0  0  0  0  0  0  0  0  0  0  0
    2.9959   -1.0570   -3.3276 O   0  0  0  0  0  0  0  0  0  0  0  0
    5.1104   -0.7970   -2.6281 O   0  0  0  0  0  0  0  0  0  0  0  0
   -0.4728   -0.3270   -0.8289 H   0  0  0  0  0  0  0  0  0  0  0  0
   -0.3907   -0.4335    0.8992 H   0  0  0  0  0  0  0  0  0  0  0  0
    1.4677   -0.0092   -2.0356 H   0  0  0  0  0  0  0  0  0  0  0  0
    3.6797    2.1113   -2.3965 H   0  0  0  0  0  0  0  0  0  0  0  0
    5.1151    1.5399   -1.5286 H   0  0  0  0  0  0  0  0  0  0  0  0
    3.9077    2.0822    0.6781 H   0  0  0  0  0  0  0  0  0  0  0  0
    2.5619    2.7160   -0.2662 H   0  0  0  0  0  0  0  0  0  0  0  0
    6.6581    4.7881    0.0502 H   0  0  0  0  0  0  0  0  0  0  0  0
    6.5838    3.1898   -0.7402 H   0  0  0  0  0  0  0  0  0  0  0  0
    6.1957    3.3499    1.0080 H   0  0  0  0  0  0  0  0  0  0  0  0
    5.2671   -1.3176   -3.4348 H   0  0  0  0  0  0  0  0  0  0  0  0
  1  2  1  0
  1 14  1  0
  1 15  1  0
  2  3  2  0
  2  4  1  0
  4  5  1  0
  4 16  1  0
  5  6  1  1
  5  7  1  0
  5 11  1  0
  7  8  1  0
  7 17  1  0
  7 18  1  0
  8  9  1  0
  8 19  1  0
  8 20  1  0
  9 10  1  0
 10 21  1  0
 10 22  1  0
 10 23  1  0
 11 12  2  0
 11 13  1  0
 13 24  1  0
M  END

