24
rmsd14.gzmat
N          0.00000        0.00000        0.00000
C          1.38910        0.00000        0.00000
O          2.03060        0.00000        1.03420
N          1.99310       -0.01350       -1.26460
C          3.44550        0.15500       -1.31270
H          3.90750       -0.32250       -0.39660
C          3.90250        1.62650       -1.42730
C          3.65530        2.36100       -0.11690
S          4.24860        4.09200       -0.16710
C          6.05900        3.90060       -0.11640
C          3.90700       -0.56530       -2.57400
O          3.33530       -0.64980       -3.62660
O          5.13260       -1.10360       -2.37670
H         -0.54090       -0.15040       -0.82180
H         -0.46930       -0.11170        0.87900
H          1.48570        0.28300       -2.08970
H          3.37830        2.12780       -2.26700
H          4.98140        1.64470       -1.69300
H          4.10460        1.81910        0.73850
H          2.57180        2.41320        0.11730
H          6.50020        4.89010        0.05790
H          6.45590        3.51240       -1.05970
H          6.38320        3.24230        0.69580
H          5.48830       -1.58660       -3.16570
