rmsd14.gzmat
 OpenBabel08211713423D

 24 23  0  0  1  0  0  0  0  0999 V2000
    0.0000    0.0000    0.0000 N   0  0  0  0  0  0  0  0  0  0  0  0
    1.3891    0.0000    0.0000 C   0  0  0  0  0  0  0  0  0  0  0  0
    2.0306    0.0000    1.0342 O   0  0  0  0  0  0  0  0  0  0  0  0
    1.9931   -0.0135   -1.2646 N   0  0  0  0  0  0  0  0  0  0  0  0
    3.4455    0.1550   -1.3127 C   0  0  2  0  0  0  0  0  0  0  0  0
    3.9075   -0.3225   -0.3966 H   0  0  0  0  0  0  0  0  0  0  0  0
    3.9025    1.6265   -1.4273 C   0  0  0  0  0  0  0  0  0  0  0  0
    3.6553    2.3610   -0.1169 C   0  0  0  0  0  0  0  0  0  0  0  0
    4.2486    4.0920   -0.1671 S   0  0  0  0  0  0  0  0  0  0  0  0
    6.0590    3.9006   -0.1164 C   0  0  0  0  0  0  0  0  0  0  0  0
    3.9070   -0.5653   -2.5740 C   0  0  0  0  0  0  0  0  0  0  0  0
    3.3353   -0.6498   -3.6266 O   0  0  0  0  0  0  0  0  0  0  0  0
    5.1326   -1.1036   -2.3767 O   0  0  0  0  0  0  0  0  0  0  0  0
   -0.5409   -0.1504   -0.8218 H   0  0  0  0  0  0  0  0  0  0  0  0
   -0.4693   -0.1117    0.8790 H   0  0  0  0  0  0  0  0  0  0  0  0
    1.4857    0.2830   -2.0897 H   0  0  0  0  0  0  0  0  0  0  0  0
    3.3783    2.1278   -2.2670 H   0  0  0  0  0  0  0  0  0  0  0  0
    4.9814    1.6447   -1.6930 H   0  0  0  0  0  0  0  0  0  0  0  0
    4.1046    1.8191    0.7385 H   0  0  0  0  0  0  0  0  0  0  0  0
    2.5718    2.4132    0.1173 H   0  0  0  0  0  0  0  0  0  0  0  0
    6.5002    4.8901    0.0579 H   0  0  0  0  0  0  0  0  0  0  0  0
    6.4559    3.5124   -1.0597 H   0  0  0  0  0  0  0  0  0  0  0  0
    6.3832    3.2423    0.6958 H   0  0  0  0  0  0  0  0  0  0  0  0
    5.4883   -1.5866   -3.1657 H   0  0  0  0  0  0  0  0  0  0  0  0
  1 15  1  0  0  0  0
  2  1  1  0  0  0  0
  2  3  2  0  0  0  0
  4  2  1  0  0  0  0
  5  4  1  0  0  0  0
  5  6  1  1  0  0  0
  7  5  1  0  0  0  0
  7  8  1  0  0  0  0
  8 20  1  0  0  0  0
  8 19  1  0  0  0  0
  9  8  1  0  0  0  0
  9 10  1  0  0  0  0
 10 21  1  0  0  0  0
 10 23  1  0  0  0  0
 11 13  1  0  0  0  0
 11  5  1  0  0  0  0
 12 11  2  0  0  0  0
 14  1  1  0  0  0  0
 16  4  1  0  0  0  0
 17  7  1  0  0  0  0
 18  7  1  0  0  0  0
 22 10  1  0  0  0  0
 24 13  1  0  0  0  0
M  END
$$$$
