
     RDKit          3D

 24 23  0  0  0  0  0  0  0  0999 V2000
   -0.0047    0.0381   -0.0369 N   0  0  0  0  0  0  0  0  0  0  0  0
    1.3732    0.1233    0.0112 C   0  0  0  0  0  0  0  0  0  0  0  0
    1.9837    0.2282    1.0677 O   0  0  0  0  0  0  0  0  0  0  0  0
    1.9919    0.1266   -1.2091 N   0  0  0  0  0  0  0  0  0  0  0  0
    3.4308    0.1754   -1.3304 C   0  0  2  0  0  0  0  0  0  0  0  0
    3.8989   -0.5355   -0.6268 H   0  0  0  0  0  0  0  0  0  0  0  0
    4.0076    1.5723   -0.9973 C   0  0  0  0  0  0  0  0  0  0  0  0
    5.5085    1.6198   -0.7052 C   0  0  0  0  0  0  0  0  0  0  0  0
    6.1037    0.4383    0.5577 S   0  0  0  0  0  0  0  0  0  0  0  0
    5.1253    0.9673    2.0030 C   0  0  0  0  0  0  0  0  0  0  0  0
    3.7710   -0.2669   -2.7404 C   0  0  0  0  0  0  0  0  0  0  0  0
    2.9582   -0.4517   -3.6165 O   0  0  0  0  0  0  0  0  0  0  0  0
    5.0898   -0.4166   -2.9327 O   0  0  0  0  0  0  0  0  0  0  0  0
   -0.4595   -0.3749   -0.8423 H   0  0  0  0  0  0  0  0  0  0  0  0
   -0.4426   -0.1381    0.8590 H   0  0  0  0  0  0  0  0  0  0  0  0
    1.4756    0.0513   -2.0789 H   0  0  0  0  0  0  0  0  0  0  0  0
    3.4533    1.9145   -0.1124 H   0  0  0  0  0  0  0  0  0  0  0  0
    3.7688    2.2757   -1.8142 H   0  0  0  0  0  0  0  0  0  0  0  0
    5.7850    2.6413   -0.3968 H   0  0  0  0  0  0  0  0  0  0  0  0
    6.0965    1.3739   -1.6002 H   0  0  0  0  0  0  0  0  0  0  0  0
    5.4941    0.3793    2.8557 H   0  0  0  0  0  0  0  0  0  0  0  0
    4.0553    0.7610    1.8591 H   0  0  0  0  0  0  0  0  0  0  0  0
    5.2901    2.0354    2.2159 H   0  0  0  0  0  0  0  0  0  0  0  0
    5.2142   -0.6785   -3.8616 H   0  0  0  0  0  0  0  0  0  0  0  0
  1  2  1  0
  1 14  1  0
  1 15  1  0
  2  3  2  0
  2  4  1  0
  4  5  1  0
  4 16  1  0
  5  6  1  1
  5  7  1  0
  5 11  1  0
  7  8  1  0
  7 17  1  0
  7 18  1  0
  8  9  1  0
  8 19  1  0
  8 20  1  0
  9 10  1  0
 10 21  1  0
 10 22  1  0
 10 23  1  0
 11 12  2  0
 11 13  1  0
 13 24  1  0
M  END

