
     RDKit          3D

 24 23  0  0  0  0  0  0  0  0999 V2000
    0.1202    0.3788   -0.0650 N   0  0  0  0  0  0  0  0  0  0  0  0
    1.4889    0.4435   -0.2395 C   0  0  0  0  0  0  0  0  0  0  0  0
    2.2009    1.2270    0.3687 O   0  0  0  0  0  0  0  0  0  0  0  0
    1.9923   -0.4631   -1.1451 N   0  0  0  0  0  0  0  0  0  0  0  0
    3.4240   -0.5939   -1.2942 C   0  0  2  0  0  0  0  0  0  0  0  0
    3.9107   -0.4471   -0.3134 H   0  0  0  0  0  0  0  0  0  0  0  0
    3.9942    0.4739   -2.2614 C   0  0  0  0  0  0  0  0  0  0  0  0
    5.5014    0.6920   -2.1647 C   0  0  0  0  0  0  0  0  0  0  0  0
    6.1176    2.0380   -3.2368 S   0  0  0  0  0  0  0  0  0  0  0  0
    6.0398    1.2127   -4.8572 C   0  0  0  0  0  0  0  0  0  0  0  0
    3.7025   -2.0141   -1.7528 C   0  0  0  0  0  0  0  0  0  0  0  0
    2.8513   -2.8115   -2.0693 O   0  0  0  0  0  0  0  0  0  0  0  0
    5.0127   -2.3039   -1.7850 O   0  0  0  0  0  0  0  0  0  0  0  0
   -0.4596    0.0012   -0.8051 H   0  0  0  0  0  0  0  0  0  0  0  0
   -0.2719    1.1601    0.4469 H   0  0  0  0  0  0  0  0  0  0  0  0
    1.4493   -1.2706   -1.4353 H   0  0  0  0  0  0  0  0  0  0  0  0
    3.4905    1.4144   -1.9987 H   0  0  0  0  0  0  0  0  0  0  0  0
    3.6924    0.2208   -3.2913 H   0  0  0  0  0  0  0  0  0  0  0  0
    6.0670   -0.2242   -2.3851 H   0  0  0  0  0  0  0  0  0  0  0  0
    5.7686    0.9984   -1.1407 H   0  0  0  0  0  0  0  0  0  0  0  0
    6.4336    1.9245   -5.5966 H   0  0  0  0  0  0  0  0  0  0  0  0
    5.0089    0.9520   -5.1411 H   0  0  0  0  0  0  0  0  0  0  0  0
    6.6655    0.3063   -4.8719 H   0  0  0  0  0  0  0  0  0  0  0  0
    5.0939   -3.2199   -2.1034 H   0  0  0  0  0  0  0  0  0  0  0  0
  1  2  1  0
  1 14  1  0
  1 15  1  0
  2  3  2  0
  2  4  1  0
  4  5  1  0
  4 16  1  0
  5  6  1  1
  5  7  1  0
  5 11  1  0
  7  8  1  0
  7 17  1  0
  7 18  1  0
  8  9  1  0
  8 19  1  0
  8 20  1  0
  9 10  1  0
 10 21  1  0
 10 22  1  0
 10 23  1  0
 11 12  2  0
 11 13  1  0
 13 24  1  0
M  END

