24
rmsd208.gzmat
N          0.00000        0.00000        0.00000
C          1.38550        0.00000        0.00000
O          2.02920        0.00000        1.03180
N          1.99380        0.06040       -1.27050
C          3.43830       -0.17250       -1.31290
H          3.89670        0.05510       -0.30240
C          4.08430        0.71400       -2.40050
C          4.12410        2.16430       -1.93520
S          4.57410        3.32630       -3.27940
C          6.29150        2.86530       -3.66750
C          3.70190       -1.63240       -1.66660
O          2.92790       -2.42280       -2.13530
O          4.98680       -1.95730       -1.40160
H         -0.54810        0.08840       -0.82430
H         -0.47700        0.06310        0.87800
H          1.48390       -0.27310       -2.08240
H          3.51980        0.61730       -3.35120
H          5.10950        0.34080       -2.61070
H          4.80770        2.28850       -1.07580
H          3.12190        2.48900       -1.58030
H          6.67470        3.57490       -4.41190
H          6.35980        1.86020       -4.09490
H          6.94160        2.91600       -2.78890
H          5.20700       -2.90490       -1.59260
