24
rmsd183.gzmat
N          0.00000        0.00000        0.00000
C          1.38590        0.00000        0.00000
O          2.02750        0.00000        1.03270
N          1.99570        0.05390       -1.27050
C          3.43820       -0.20080       -1.31270
H          3.89370       -0.01400       -0.29360
C          4.08320        0.73010       -2.36330
C          5.59900        0.71780       -2.22520
S          6.42940        1.79070       -3.45730
C          6.07930        0.94790       -5.03240
C          3.66650       -1.64930       -1.73310
O          2.92500       -2.33950       -2.38050
O          4.86160       -2.10130       -1.29310
H         -0.54930        0.08060       -0.82400
H         -0.47570        0.07430        0.87880
H          1.48190       -0.27300       -2.08290
H          3.68030        1.75810       -2.21710
H          3.76280        0.43350       -3.38140
H          6.00240       -0.31140       -2.29130
H          5.91050        1.10180       -1.23150
H          6.74320        1.36630       -5.79980
H          5.04630        1.10790       -5.35660
H          6.26640       -0.12910       -4.98130
H          5.04070       -3.04930       -1.52190
