rmsd232.gzmat
 OpenBabel08211713423D

 24 23  0  0  1  0  0  0  0  0999 V2000
    0.0000    0.0000    0.0000 N   0  0  0  0  0  0  0  0  0  0  0  0
    1.3866    0.0000    0.0000 C   0  0  0  0  0  0  0  0  0  0  0  0
    2.0275    0.0000    1.0329 O   0  0  0  0  0  0  0  0  0  0  0  0
    1.9978    0.0555   -1.2705 N   0  0  0  0  0  0  0  0  0  0  0  0
    3.4314   -0.2389   -1.3059 C   0  0  2  0  0  0  0  0  0  0  0  0
    3.8939    0.0341   -0.3063 H   0  0  0  0  0  0  0  0  0  0  0  0
    4.0865    0.5883   -2.4358 C   0  0  0  0  0  0  0  0  0  0  0  0
    5.6000    0.6086   -2.2723 C   0  0  0  0  0  0  0  0  0  0  0  0
    6.4423    1.4931   -3.6381 S   0  0  0  0  0  0  0  0  0  0  0  0
    6.1718    0.3948   -5.0637 C   0  0  0  0  0  0  0  0  0  0  0  0
    3.7183   -1.7123   -1.5713 C   0  0  0  0  0  0  0  0  0  0  0  0
    4.7348   -2.3141   -1.3605 O   0  0  0  0  0  0  0  0  0  0  0  0
    2.6497   -2.3221   -2.1468 O   0  0  0  0  0  0  0  0  0  0  0  0
   -0.5465    0.0949   -0.8237 H   0  0  0  0  0  0  0  0  0  0  0  0
   -0.4766    0.0803    0.8775 H   0  0  0  0  0  0  0  0  0  0  0  0
    1.4788   -0.2671   -2.0810 H   0  0  0  0  0  0  0  0  0  0  0  0
    3.6740    1.6220   -2.4002 H   0  0  0  0  0  0  0  0  0  0  0  0
    3.7841    0.1881   -3.4231 H   0  0  0  0  0  0  0  0  0  0  0  0
    6.0126   -0.4161   -2.1771 H   0  0  0  0  0  0  0  0  0  0  0  0
    5.8914    1.1405   -1.3431 H   0  0  0  0  0  0  0  0  0  0  0  0
    6.8497    0.7064   -5.8685 H   0  0  0  0  0  0  0  0  0  0  0  0
    5.1471    0.4600   -5.4405 H   0  0  0  0  0  0  0  0  0  0  0  0
    6.3909   -0.6518   -4.8303 H   0  0  0  0  0  0  0  0  0  0  0  0
    2.7855   -3.2878   -2.3152 H   0  0  0  0  0  0  0  0  0  0  0  0
  1  2  1  0  0  0  0
  1 15  1  0  0  0  0
  2  3  2  0  0  0  0
  4  2  1  0  0  0  0
  5  4  1  0  0  0  0
  5  6  1  1  0  0  0
  7 17  1  0  0  0  0
  7  8  1  0  0  0  0
  7  5  1  0  0  0  0
  8 19  1  0  0  0  0
  8 20  1  0  0  0  0
  9  8  1  0  0  0  0
 10 23  1  0  0  0  0
 10  9  1  0  0  0  0
 11 12  2  0  0  0  0
 11  5  1  0  0  0  0
 13 11  1  0  0  0  0
 14  1  1  0  0  0  0
 16  4  1  0  0  0  0
 18  7  1  0  0  0  0
 21 10  1  0  0  0  0
 22 10  1  0  0  0  0
 24 13  1  0  0  0  0
M  END
$$$$
