rmsd20.gzmat
 OpenBabel08211713423D

 24 22  0  0  1  0  0  0  0  0999 V2000
    0.0000    0.0000    0.0000 N   0  0  0  0  0  0  0  0  0  0  0  0
    1.3864    0.0000    0.0000 C   0  0  0  0  0  0  0  0  0  0  0  0
    2.0288    0.0000    1.0325 O   0  0  0  0  0  0  0  0  0  0  0  0
    1.9933    0.0495   -1.2704 N   0  0  0  0  0  0  0  0  0  0  0  0
    3.4424   -0.1655   -1.3124 C   0  0  2  0  0  0  0  0  0  0  0  0
    3.8831   -0.0667   -0.2735 H   0  0  0  0  0  0  0  0  0  0  0  0
    4.0746    0.8859   -2.2509 C   0  0  0  0  0  0  0  0  0  0  0  0
    5.5927    0.8448   -2.1547 C   0  0  0  0  0  0  0  0  0  0  0  0
    6.3949    2.1743   -3.1274 S   0  0  0  0  0  0  0  0  0  0  0  0
    5.9877    1.7309   -4.8444 C   0  0  0  0  0  0  0  0  0  0  0  0
    3.7120   -1.5624   -1.8593 C   0  0  0  0  0  0  0  0  0  0  0  0
    2.9900   -2.2208   -2.5596 O   0  0  0  0  0  0  0  0  0  0  0  0
    4.9222   -2.0108   -1.4588 O   0  0  0  0  0  0  0  0  0  0  0  0
   -0.5465    0.1071   -0.8232 H   0  0  0  0  0  0  0  0  0  0  0  0
   -0.4742    0.0775    0.8791 H   0  0  0  0  0  0  0  0  0  0  0  0
    1.4872   -0.2911   -2.0822 H   0  0  0  0  0  0  0  0  0  0  0  0
    3.6847    1.8881   -1.9582 H   0  0  0  0  0  0  0  0  0  0  0  0
    3.7249    0.7309   -3.2902 H   0  0  0  0  0  0  0  0  0  0  0  0
    5.9916   -0.1413   -2.4603 H   0  0  0  0  0  0  0  0  0  0  0  0
    5.9292    0.9953   -1.1075 H   0  0  0  0  0  0  0  0  0  0  0  0
    6.5605    2.3908   -5.5085 H   0  0  0  0  0  0  0  0  0  0  0  0
    4.9249    1.8747   -5.0628 H   0  0  0  0  0  0  0  0  0  0  0  0
    6.2565    0.6973   -5.0818 H   0  0  0  0  0  0  0  0  0  0  0  0
    5.1293   -2.9318   -1.7617 H   0  0  0  0  0  0  0  0  0  0  0  0
  1  2  1  0  0  0  0
  1 15  1  0  0  0  0
  2  3  2  0  0  0  0
  4  2  1  0  0  0  0
  5  4  1  0  0  0  0
  5  6  1  1  0  0  0
  7  8  1  0  0  0  0
  7 17  1  0  0  0  0
  7  5  1  0  0  0  0
  8 20  1  0  0  0  0
  9  8  1  0  0  0  0
 11 13  1  0  0  0  0
 11  5  1  0  0  0  0
 12 11  2  0  0  0  0
 14  1  1  0  0  0  0
 16  4  1  0  0  0  0
 18  7  1  0  0  0  0
 19  8  1  0  0  0  0
 21 10  1  0  0  0  0
 22 10  1  0  0  0  0
 23 10  1  0  0  0  0
 24 13  1  0  0  0  0
M  RAD  2   9   2  10   2
M  END
$$$$
