24

N          0.03700       -0.15270        0.02690
C          1.40130        0.00960        0.04720
O          2.05100        0.00440        1.08180
N          1.97380        0.23400       -1.18980
C          3.41190        0.23400       -1.32420
H          3.83610       -0.23610       -0.42160
C          4.02230        1.64760       -1.45640
C          3.64880        2.55020       -0.28410
S          4.38240        4.21940       -0.37630
C          6.11600        3.83220        0.02130
C          3.78510       -0.61440       -2.52680
O          2.99590       -1.05700       -3.32760
O          5.11040       -0.79700       -2.62810
H         -0.47280       -0.32700       -0.82890
H         -0.39070       -0.43350        0.89920
H          1.46770       -0.00920       -2.03560
H          3.67970        2.11130       -2.39650
H          5.11510        1.53990       -1.52860
H          3.90770        2.08220        0.67810
H          2.56190        2.71600       -0.26620
H          6.65810        4.78810        0.05020
H          6.58380        3.18980       -0.74020
H          6.19570        3.34990        1.00800
H          5.26710       -1.31760       -3.43480
