24
rmsd12.gzmat
N          0.00000        0.00000        0.00000
C          1.38730        0.00000        0.00000
O          2.02900        0.00000        1.03250
N          1.99420        0.04710       -1.27370
C          3.44570       -0.15550       -1.29540
H          3.88620        0.25580       -0.33330
C          4.03060        0.58680       -2.51490
C          5.55180        0.54140       -2.57350
S          6.34630        1.58450       -1.28880
C          6.85040        0.37820       -0.02300
C          3.81630       -1.63060       -1.39500
O          4.83250       -2.16280       -1.04060
O          2.82790       -2.34060       -1.99620
H         -0.54290        0.12730       -0.82240
H         -0.47380        0.08620        0.87870
H          1.49910       -0.35260       -2.06490
H          3.66720        1.63970       -2.49020
H          3.61090        0.16200       -3.45110
H          5.90170        0.92890       -3.55150
H          5.93160       -0.49610       -2.51010
H          6.98440        0.90960        0.92730
H          7.79570       -0.10770       -0.28420
H          6.10300       -0.41000        0.13640
H          3.01460       -3.31040       -2.05990
