
     RDKit          3D

 24 23  0  0  0  0  0  0  0  0999 V2000
   -0.0482   -0.0925   -0.1594 N   0  0  0  0  0  0  0  0  0  0  0  0
    1.3151   -0.2907   -0.0818 C   0  0  0  0  0  0  0  0  0  0  0  0
    1.8590   -0.8581    0.8483 O   0  0  0  0  0  0  0  0  0  0  0  0
    2.0233    0.2056   -1.1677 N   0  0  0  0  0  0  0  0  0  0  0  0
    3.4268   -0.1339   -1.2630 C   0  0  2  0  0  0  0  0  0  0  0  0
    3.9081    0.1279   -0.3098 H   0  0  0  0  0  0  0  0  0  0  0  0
    4.0851    0.6567   -2.4100 C   0  0  0  0  0  0  0  0  0  0  0  0
    5.6118    0.6378   -2.3731 C   0  0  0  0  0  0  0  0  0  0  0  0
    6.3901    1.5240   -3.7687 S   0  0  0  0  0  0  0  0  0  0  0  0
    6.1738    0.2844   -5.0845 C   0  0  0  0  0  0  0  0  0  0  0  0
    3.6857   -1.6290   -1.4430 C   0  0  0  0  0  0  0  0  0  0  0  0
    4.7257   -2.1769   -1.1771 O   0  0  0  0  0  0  0  0  0  0  0  0
    2.6444   -2.2688   -2.0097 O   0  0  0  0  0  0  0  0  0  0  0  0
   -0.4017    0.6909   -0.6965 H   0  0  0  0  0  0  0  0  0  0  0  0
   -0.5479   -0.2958    0.6983 H   0  0  0  0  0  0  0  0  0  0  0  0
    1.5224    0.2441   -2.0499 H   0  0  0  0  0  0  0  0  0  0  0  0
    3.7311    1.6971   -2.3454 H   0  0  0  0  0  0  0  0  0  0  0  0
    3.7236    0.2576   -3.3740 H   0  0  0  0  0  0  0  0  0  0  0  0
    6.0014   -0.3900   -2.3348 H   0  0  0  0  0  0  0  0  0  0  0  0
    5.9736    1.1454   -1.4653 H   0  0  0  0  0  0  0  0  0  0  0  0
    6.6366    0.6979   -5.9919 H   0  0  0  0  0  0  0  0  0  0  0  0
    5.1120    0.0854   -5.2962 H   0  0  0  0  0  0  0  0  0  0  0  0
    6.6800   -0.6584   -4.8257 H   0  0  0  0  0  0  0  0  0  0  0  0
    2.8999   -3.2045   -2.0824 H   0  0  0  0  0  0  0  0  0  0  0  0
  1  2  1  0
  1 14  1  0
  1 15  1  0
  2  3  2  0
  2  4  1  0
  4  5  1  0
  4 16  1  0
  5  6  1  1
  5  7  1  0
  5 11  1  0
  7  8  1  0
  7 17  1  0
  7 18  1  0
  8  9  1  0
  8 19  1  0
  8 20  1  0
  9 10  1  0
 10 21  1  0
 10 22  1  0
 10 23  1  0
 11 12  2  0
 11 13  1  0
 13 24  1  0
M  END

