20

O          0.06650       -0.02400        0.09900
C          1.39520        0.03430        0.00040
O          2.12160        0.01790        0.97160
C          1.87020        0.08550       -1.44820
H          1.64450       -0.90890       -1.87650
O          3.26910        0.30720       -1.47420
P          4.28950       -0.91090       -1.06990
O          3.68920       -2.24100       -1.29250
O          5.60210       -0.59240       -1.93350
O          4.76990       -0.49320        0.40690
C          1.18460        1.17620       -2.27050
C          1.63560        1.16020       -3.72810
H         -0.15590       -0.09690        1.04410
H          6.14830        0.09710       -1.52860
H          3.96530       -0.26130        0.92180
H          0.09740        1.02480       -2.19360
H          1.40990        2.15170       -1.80760
H          1.38540        0.20060       -4.20900
H          2.72420        1.29710       -3.79970
H          1.14650        1.96370       -4.29920
