20
rmsd94.gzmat
O          0.00000        0.00000        0.00000
C          1.35650        0.00000        0.00000
O          1.96310        0.00000        1.04020
C          1.88960       -0.01350       -1.42960
H          1.32130       -0.75440       -2.04760
O          3.29050       -0.23920       -1.40910
P          3.98650       -1.66130       -1.06610
O          3.23890       -2.87430       -1.32090
O          5.29130       -1.52280       -1.95560
O          4.53920       -1.38600        0.39910
C          1.81470        1.39950       -2.04300
C          0.37290        1.84110       -2.25360
H         -0.39890       -0.02070        0.90450
H          5.78650       -0.65990       -1.67710
H          3.80990       -0.88030        0.93410
H          2.36410        2.12120       -1.40740
H          2.36310        1.38850       -3.00930
H         -0.15300        1.99210       -1.30120
H         -0.20430        1.10100       -2.82160
H          0.32570        2.78740       -2.80520
