20
rmsd1.gzmat
O          0.00000        0.00000        0.00000
C          1.35700        0.00000        0.00000
O          1.96410        0.00000        1.03940
C          1.88250       -0.01950       -1.43430
H          1.59380       -0.98860       -1.91820
O          3.27500        0.24810       -1.40160
P          4.40310       -0.88020       -1.11960
O          4.12000       -2.24590       -1.50960
O          5.60960       -0.23300       -1.91990
O          4.79660       -0.57590        0.39010
C          1.32630        1.18060       -2.22270
C          1.52810        0.97150       -3.72010
H         -0.40160       -0.01370        0.90320
H          5.81030        0.69520       -1.51400
H          3.93130       -0.36680        0.92000
H          0.25100        1.31960       -1.99290
H          1.83990        2.10920       -1.89550
H          1.00560        0.07940       -4.08380
H          2.59350        0.85020       -3.96300
H          1.15840        1.82780       -4.29450
