rmsd235.gzmat
 OpenBabel08211713423D

 20 19  0  0  1  0  0  0  0  0999 V2000
    0.0000    0.0000    0.0000 O   0  0  0  0  0  0  0  0  0  0  0  0
    1.3569    0.0000    0.0000 C   0  0  0  0  0  0  0  0  0  0  0  0
    1.9635    0.0000    1.0397 O   0  0  0  0  0  0  0  0  0  0  0  0
    1.8808   -0.0118   -1.4348 C   0  0  2  0  0  0  0  0  0  0  0  0
    1.5626   -0.9612   -1.9391 H   0  0  0  0  0  0  0  0  0  0  0  0
    3.2816    0.2098   -1.4112 O   0  0  0  0  0  0  0  0  0  0  0  0
    4.3675   -0.9494   -1.0896 P   0  0  0  0  0  0  0  0  0  0  0  0
    4.0162   -2.3210   -1.3935 O   0  0  0  0  0  0  0  0  0  0  0  0
    5.5863   -0.4063   -1.9462 O   0  0  0  0  0  0  0  0  0  0  0  0
    4.7977   -0.5729    0.3938 O   0  0  0  0  0  0  0  0  0  0  0  0
    1.3565    1.2219   -2.1931 C   0  0  0  0  0  0  0  0  0  0  0  0
    1.5920    1.0601   -3.6912 C   0  0  0  0  0  0  0  0  0  0  0  0
   -0.4020   -0.0180    0.9031 H   0  0  0  0  0  0  0  0  0  0  0  0
    5.8388    0.5333   -1.5982 H   0  0  0  0  0  0  0  0  0  0  0  0
    3.9413   -0.3470    0.9330 H   0  0  0  0  0  0  0  0  0  0  0  0
    0.2769    1.3619   -1.9835 H   0  0  0  0  0  0  0  0  0  0  0  0
    1.8691    2.1337   -1.8230 H   0  0  0  0  0  0  0  0  0  0  0  0
    1.0705    0.1834   -4.0921 H   0  0  0  0  0  0  0  0  0  0  0  0
    2.6612    0.9346   -3.9145 H   0  0  0  0  0  0  0  0  0  0  0  0
    1.2417    1.9368   -4.2468 H   0  0  0  0  0  0  0  0  0  0  0  0
  1  2  1  0  0  0  0
  1 13  1  0  0  0  0
  2  3  2  0  0  0  0
  4  5  1  6  0  0  0
  4  6  1  0  0  0  0
  4  2  1  0  0  0  0
  6  7  1  0  0  0  0
  7 10  1  0  0  0  0
  8  7  2  0  0  0  0
  9 14  1  0  0  0  0
  9  7  1  0  0  0  0
 10 15  1  0  0  0  0
 11 16  1  0  0  0  0
 11 17  1  0  0  0  0
 11  4  1  0  0  0  0
 12 11  1  0  0  0  0
 18 12  1  0  0  0  0
 19 12  1  0  0  0  0
 20 12  1  0  0  0  0
M  END
$$$$
