
     RDKit          3D

 20 19  0  0  0  0  0  0  0  0999 V2000
    0.2150    0.5760    0.2551 O   0  0  0  0  0  0  0  0  0  0  0  0
    1.4145    0.0165    0.0793 C   0  0  0  0  0  0  0  0  0  0  0  0
    2.0496   -0.4457    1.0015 O   0  0  0  0  0  0  0  0  0  0  0  0
    1.8412   -0.0007   -1.3867 C   0  0  2  0  0  0  0  0  0  0  0  0
    1.1192   -0.6674   -1.8912 H   0  0  0  0  0  0  0  0  0  0  0  0
    3.0902   -0.6442   -1.5301 O   0  0  0  0  0  0  0  0  0  0  0  0
    4.5358   -0.2543   -0.8851 P   0  0  0  0  0  0  0  0  0  0  0  0
    5.6669   -0.3799   -1.8193 O   0  0  0  0  0  0  0  0  0  0  0  0
    4.2842    1.2637   -0.3340 O   0  0  0  0  0  0  0  0  0  0  0  0
    4.6161   -1.1555    0.4274 O   0  0  0  0  0  0  0  0  0  0  0  0
    1.7855    1.3713   -2.0894 C   0  0  0  0  0  0  0  0  0  0  0  0
    0.3921    1.7949   -2.5490 C   0  0  0  0  0  0  0  0  0  0  0  0
    0.0100    0.5338    1.2063 H   0  0  0  0  0  0  0  0  0  0  0  0
    4.9608    1.8495   -0.7048 H   0  0  0  0  0  0  0  0  0  0  0  0
    3.7521   -1.1098    0.8917 H   0  0  0  0  0  0  0  0  0  0  0  0
    2.2382    2.1339   -1.4401 H   0  0  0  0  0  0  0  0  0  0  0  0
    2.4479    1.2671   -2.9632 H   0  0  0  0  0  0  0  0  0  0  0  0
   -0.2925    1.9416   -1.7027 H   0  0  0  0  0  0  0  0  0  0  0  0
   -0.0535    1.0398   -3.2175 H   0  0  0  0  0  0  0  0  0  0  0  0
    0.4488    2.7409   -3.1087 H   0  0  0  0  0  0  0  0  0  0  0  0
  1  2  1  0
  1 13  1  0
  2  3  2  0
  2  4  1  0
  4  5  1  6
  4  6  1  0
  4 11  1  0
  7  6  1  0
  7  8  2  0
  7  9  1  0
  7 10  1  0
  9 14  1  0
 10 15  1  0
 11 12  1  0
 11 16  1  0
 11 17  1  0
 12 18  1  0
 12 19  1  0
 12 20  1  0
M  END

