rmsd131.gzmat
 OpenBabel08211713423D

 20 19  0  0  1  0  0  0  0  0999 V2000
    0.0000    0.0000    0.0000 O   0  0  0  0  0  0  0  0  0  0  0  0
    1.3633    0.0000    0.0000 C   0  0  0  0  0  0  0  0  0  0  0  0
    1.9711    0.0000    1.0356 O   0  0  0  0  0  0  0  0  0  0  0  0
    1.9365   -0.0629   -1.4116 C   0  0  2  0  0  0  0  0  0  0  0  0
    3.0321   -0.3282   -1.3303 H   0  0  0  0  0  0  0  0  0  0  0  0
    2.0408    1.1807   -2.0872 O   0  0  0  0  0  0  0  0  0  0  0  0
    1.0784    2.4525   -1.9355 P   0  0  0  0  0  0  0  0  0  0  0  0
    1.5755    3.4903   -2.8139 O   0  0  0  0  0  0  0  0  0  0  0  0
   -0.4141    1.9981   -2.2026 O   0  0  0  0  0  0  0  0  0  0  0  0
    1.0350    2.6850   -0.3516 O   0  0  0  0  0  0  0  0  0  0  0  0
    1.1930   -1.0851   -2.2820 C   0  0  0  0  0  0  0  0  0  0  0  0
    1.5413   -2.5075   -1.8533 C   0  0  0  0  0  0  0  0  0  0  0  0
   -0.3904    0.1061    0.9029 H   0  0  0  0  0  0  0  0  0  0  0  0
   -0.6896    1.3431   -1.4466 H   0  0  0  0  0  0  0  0  0  0  0  0
    1.8217    3.2641   -0.0618 H   0  0  0  0  0  0  0  0  0  0  0  0
    0.0967   -0.9298   -2.2430 H   0  0  0  0  0  0  0  0  0  0  0  0
    1.4728   -0.9229   -3.3454 H   0  0  0  0  0  0  0  0  0  0  0  0
    1.2516   -2.7022   -0.8135 H   0  0  0  0  0  0  0  0  0  0  0  0
    2.6144   -2.7125   -1.9436 H   0  0  0  0  0  0  0  0  0  0  0  0
    1.0186   -3.2446   -2.4751 H   0  0  0  0  0  0  0  0  0  0  0  0
  1  2  1  0  0  0  0
  1 13  1  0  0  0  0
  2  3  2  0  0  0  0
  4  5  1  1  0  0  0
  4  2  1  0  0  0  0
  6  7  1  0  0  0  0
  6  4  1  0  0  0  0
  7 10  1  0  0  0  0
  8  7  2  0  0  0  0
  9  7  1  0  0  0  0
  9 14  1  0  0  0  0
 10 15  1  0  0  0  0
 11 16  1  0  0  0  0
 11 12  1  0  0  0  0
 11  4  1  0  0  0  0
 12 18  1  0  0  0  0
 17 11  1  0  0  0  0
 19 12  1  0  0  0  0
 20 12  1  0  0  0  0
M  END
$$$$
