20
rmsd131.gzmat
O          0.00000        0.00000        0.00000
C          1.36330        0.00000        0.00000
O          1.97110        0.00000        1.03560
C          1.93650       -0.06290       -1.41160
H          3.03210       -0.32820       -1.33030
O          2.04080        1.18070       -2.08720
P          1.07840        2.45250       -1.93550
O          1.57550        3.49030       -2.81390
O         -0.41410        1.99810       -2.20260
O          1.03500        2.68500       -0.35160
C          1.19300       -1.08510       -2.28200
C          1.54130       -2.50750       -1.85330
H         -0.39040        0.10610        0.90290
H         -0.68960        1.34310       -1.44660
H          1.82170        3.26410       -0.06180
H          0.09670       -0.92980       -2.24300
H          1.47280       -0.92290       -3.34540
H          1.25160       -2.70220       -0.81350
H          2.61440       -2.71250       -1.94360
H          1.01860       -3.24460       -2.47510
