
     RDKit          3D

 20 19  0  0  0  0  0  0  0  0999 V2000
    0.0665   -0.0240    0.0990 O   0  0  0  0  0  0  0  0  0  0  0  0
    1.3952    0.0343    0.0004 C   0  0  0  0  0  0  0  0  0  0  0  0
    2.1216    0.0179    0.9716 O   0  0  0  0  0  0  0  0  0  0  0  0
    1.8702    0.0855   -1.4482 C   0  0  2  0  0  0  0  0  0  0  0  0
    1.6445   -0.9089   -1.8765 H   0  0  0  0  0  0  0  0  0  0  0  0
    3.2691    0.3072   -1.4742 O   0  0  0  0  0  0  0  0  0  0  0  0
    4.2895   -0.9109   -1.0699 P   0  0  0  0  0  0  0  0  0  0  0  0
    3.6892   -2.2410   -1.2925 O   0  0  0  0  0  0  0  0  0  0  0  0
    5.6021   -0.5924   -1.9335 O   0  0  0  0  0  0  0  0  0  0  0  0
    4.7699   -0.4932    0.4069 O   0  0  0  0  0  0  0  0  0  0  0  0
    1.1846    1.1762   -2.2705 C   0  0  0  0  0  0  0  0  0  0  0  0
    1.6356    1.1602   -3.7281 C   0  0  0  0  0  0  0  0  0  0  0  0
   -0.1559   -0.0969    1.0441 H   0  0  0  0  0  0  0  0  0  0  0  0
    6.1483    0.0971   -1.5286 H   0  0  0  0  0  0  0  0  0  0  0  0
    3.9653   -0.2613    0.9218 H   0  0  0  0  0  0  0  0  0  0  0  0
    0.0974    1.0248   -2.1936 H   0  0  0  0  0  0  0  0  0  0  0  0
    1.4099    2.1517   -1.8076 H   0  0  0  0  0  0  0  0  0  0  0  0
    1.3854    0.2006   -4.2090 H   0  0  0  0  0  0  0  0  0  0  0  0
    2.7242    1.2971   -3.7997 H   0  0  0  0  0  0  0  0  0  0  0  0
    1.1465    1.9637   -4.2992 H   0  0  0  0  0  0  0  0  0  0  0  0
  1  2  1  0
  1 13  1  0
  2  3  2  0
  2  4  1  0
  4  5  1  6
  4  6  1  0
  4 11  1  0
  7  6  1  0
  7  8  2  0
  7  9  1  0
  7 10  1  0
  9 14  1  0
 10 15  1  0
 11 12  1  0
 11 16  1  0
 11 17  1  0
 12 18  1  0
 12 19  1  0
 12 20  1  0
M  END

