rmsd158.gzmat
 OpenBabel08211713423D

 20 19  0  0  1  0  0  0  0  0999 V2000
    0.0000    0.0000    0.0000 O   0  0  0  0  0  0  0  0  0  0  0  0
    1.3547    0.0000    0.0000 C   0  0  0  0  0  0  0  0  0  0  0  0
    1.9485    0.0000    1.0526 O   0  0  0  0  0  0  0  0  0  0  0  0
    1.8810   -0.0057   -1.4311 C   0  0  2  0  0  0  0  0  0  0  0  0
    1.2459   -0.7033   -2.0567 H   0  0  0  0  0  0  0  0  0  0  0  0
    3.1092   -0.6885   -1.5591 O   0  0  0  0  0  0  0  0  0  0  0  0
    4.5492   -0.3250   -0.9398 P   0  0  0  0  0  0  0  0  0  0  0  0
    5.5498   -1.0671   -1.6811 O   0  0  0  0  0  0  0  0  0  0  0  0
    4.5358    1.2741   -1.0396 O   0  0  0  0  0  0  0  0  0  0  0  0
    4.5257   -0.6361    0.6059 O   0  0  0  0  0  0  0  0  0  0  0  0
    1.8446    1.4174   -2.0053 C   0  0  0  0  0  0  0  0  0  0  0  0
    0.4147    1.8415   -2.3257 C   0  0  0  0  0  0  0  0  0  0  0  0
   -0.4011   -0.0002    0.9052 H   0  0  0  0  0  0  0  0  0  0  0  0
    5.4615    1.6302   -0.8044 H   0  0  0  0  0  0  0  0  0  0  0  0
    3.6123   -0.3368    0.9965 H   0  0  0  0  0  0  0  0  0  0  0  0
    2.3173    2.1481   -1.3161 H   0  0  0  0  0  0  0  0  0  0  0  0
    2.4644    1.4519   -2.9289 H   0  0  0  0  0  0  0  0  0  0  0  0
   -0.2097    1.8886   -1.4240 H   0  0  0  0  0  0  0  0  0  0  0  0
   -0.0734    1.1474   -3.0203 H   0  0  0  0  0  0  0  0  0  0  0  0
    0.3918    2.8351   -2.7885 H   0  0  0  0  0  0  0  0  0  0  0  0
  1  2  1  0  0  0  0
  1 13  1  0  0  0  0
  2  3  2  0  0  0  0
  4  5  1  6  0  0  0
  4  2  1  0  0  0  0
  6  4  1  0  0  0  0
  6  7  1  0  0  0  0
  7 10  1  0  0  0  0
  8  7  2  0  0  0  0
  9  7  1  0  0  0  0
  9 14  1  0  0  0  0
 10 15  1  0  0  0  0
 11  4  1  0  0  0  0
 11 16  1  0  0  0  0
 12 11  1  0  0  0  0
 12 18  1  0  0  0  0
 17 11  1  0  0  0  0
 19 12  1  0  0  0  0
 20 12  1  0  0  0  0
M  END
$$$$
