
     RDKit          3D

 20 19  0  0  0  0  0  0  0  0999 V2000
   -0.1349   -0.1025    0.1802 O   0  0  0  0  0  0  0  0  0  0  0  0
    0.8595    0.7543   -0.1832 C   0  0  0  0  0  0  0  0  0  0  0  0
    0.8504    1.9065    0.1546 O   0  0  0  0  0  0  0  0  0  0  0  0
    1.9022    0.0878   -1.0780 C   0  0  2  0  0  0  0  0  0  0  0  0
    1.4709    0.0724   -2.0973 H   0  0  0  0  0  0  0  0  0  0  0  0
    2.1060   -1.2564   -0.6448 O   0  0  0  0  0  0  0  0  0  0  0  0
    1.3129   -2.4828   -1.3751 P   0  0  0  0  0  0  0  0  0  0  0  0
    0.8982   -2.1564   -2.7600 O   0  0  0  0  0  0  0  0  0  0  0  0
    2.3187   -3.7234   -1.2139 O   0  0  0  0  0  0  0  0  0  0  0  0
    0.1996   -2.8819   -0.2961 O   0  0  0  0  0  0  0  0  0  0  0  0
    3.2412    0.8204   -1.0951 C   0  0  0  0  0  0  0  0  0  0  0  0
    3.2157    2.1445   -1.8571 C   0  0  0  0  0  0  0  0  0  0  0  0
   -0.7737    0.4151    0.7017 H   0  0  0  0  0  0  0  0  0  0  0  0
    2.7160   -3.9382   -2.0709 H   0  0  0  0  0  0  0  0  0  0  0  0
   -0.1840   -2.0610    0.0647 H   0  0  0  0  0  0  0  0  0  0  0  0
    3.5810    0.9707   -0.0576 H   0  0  0  0  0  0  0  0  0  0  0  0
    3.9541    0.1253   -1.5654 H   0  0  0  0  0  0  0  0  0  0  0  0
    2.5404    2.8673   -1.3797 H   0  0  0  0  0  0  0  0  0  0  0  0
    2.8821    1.9957   -2.8975 H   0  0  0  0  0  0  0  0  0  0  0  0
    4.2232    2.5863   -1.8912 H   0  0  0  0  0  0  0  0  0  0  0  0
  1  2  1  0
  1 13  1  0
  2  3  2  0
  2  4  1  0
  4  5  1  6
  4  6  1  0
  4 11  1  0
  7  6  1  0
  7  8  2  0
  7  9  1  0
  7 10  1  0
  9 14  1  0
 10 15  1  0
 11 12  1  0
 11 16  1  0
 11 17  1  0
 12 18  1  0
 12 19  1  0
 12 20  1  0
M  END

