44
rmsd8.gzmat
C          0.00000        0.00000        0.00000
C          1.40180        0.00000        0.00000
C          2.08360        0.00000        1.21250
C          1.38190        0.01530        2.41740
C         -0.01180        0.03430        2.41050
C         -0.70960        0.02490        1.20610
N         -0.64360        0.06560       -1.28250
C         -0.78270       -1.24250       -2.02330
C          0.39950       -1.33830       -2.99160
C         -0.82610       -2.46580       -1.10270
C         -2.12590       -1.08420       -2.78280
C         -2.78220        0.16300       -2.16630
C         -4.17220       -0.06510       -1.58340
N         -2.81590        1.27880       -3.14770
C         -3.20120        2.54290       -2.55430
C         -2.34290        3.30720       -1.75870
C         -2.78240        4.53140       -1.26240
C         -4.06560        4.98860       -1.55850
C         -4.91690        4.22040       -2.35200
C         -4.49010        2.99570       -2.85710
O         -1.56340        1.43700       -3.75500
O         -1.96510        0.53700       -1.04440
H          1.94750        0.01820       -0.94080
H          3.17230       -0.00450        1.21860
H          1.92190        0.01970        3.36100
H         -0.56050        0.05390        3.35080
H         -1.79860        0.04000        1.20220
H          0.46090       -0.45030       -3.63720
H          0.30340       -2.21490       -3.64160
H          1.35410       -1.42230       -2.45940
H         -1.63260       -2.38360       -0.36390
H          0.11090       -2.58650       -0.54410
H         -0.98450       -3.38800       -1.67150
H         -1.96790       -0.95070       -3.87210
H         -2.76520       -1.97370       -2.68280
H         -4.18700       -0.94880       -0.93490
H         -4.91380       -0.20320       -2.38170
H         -4.49850        0.79060       -0.97390
H         -1.34410        2.94140       -1.51960
H         -2.12000        5.13100       -0.64030
H         -4.40330        5.94740       -1.17220
H         -5.91710        4.58080       -2.58290
H         -5.13950        2.39500       -3.49150
H         -0.85150        1.41480       -3.04540
