rmsd59.gzmat
 OpenBabel08211713403D

 44 46  0  0  1  0  0  0  0  0999 V2000
    0.0000    0.0000    0.0000 C   0  0  0  0  0  0  0  0  0  0  0  0
    1.4003    0.0000    0.0000 C   0  0  0  0  0  0  0  0  0  0  0  0
    2.0846    0.0000    1.2120 C   0  0  0  0  0  0  0  0  0  0  0  0
    1.3843    0.0061    2.4171 C   0  0  0  0  0  0  0  0  0  0  0  0
   -0.0097   -0.0017    2.4115 C   0  0  0  0  0  0  0  0  0  0  0  0
   -0.7092   -0.0111    1.2093 C   0  0  0  0  0  0  0  0  0  0  0  0
   -0.7720   -0.0976   -1.2051 N   0  0  0  0  0  0  0  0  0  0  0  0
   -1.4665    1.1588   -1.6711 C   0  0  0  0  0  0  0  0  0  0  0  0
   -2.8906    1.1343   -1.1105 C   0  0  0  0  0  0  0  0  0  0  0  0
   -0.7429    2.4419   -1.2529 C   0  0  0  0  0  0  0  0  0  0  0  0
   -1.4680    1.0060   -3.2160 C   0  0  0  0  0  0  0  0  0  0  0  0
   -0.4804   -0.1397   -3.4978 C   0  0  2  0  0  0  0  0  0  0  0  0
    0.6697    0.2225   -4.4302 C   0  0  0  0  0  0  0  0  0  0  0  0
   -1.1861   -1.3457   -4.0079 N   0  0  0  0  0  0  0  0  0  0  0  0
   -0.3438   -2.5254   -3.9951 C   0  0  0  0  0  0  0  0  0  0  0  0
   -0.0254   -3.2248   -2.8272 C   0  0  0  0  0  0  0  0  0  0  0  0
    0.7796   -4.3576   -2.9085 C   0  0  0  0  0  0  0  0  0  0  0  0
    1.2560   -4.7920   -4.1448 C   0  0  0  0  0  0  0  0  0  0  0  0
    0.9257   -4.0957   -5.3068 C   0  0  0  0  0  0  0  0  0  0  0  0
    0.1218   -2.9613   -5.2404 C   0  0  0  0  0  0  0  0  0  0  0  0
   -2.3306   -1.6057   -3.2435 O   0  0  0  0  0  0  0  0  0  0  0  0
    0.1407   -0.4508   -2.2392 O   0  0  0  0  0  0  0  0  0  0  0  0
    1.9516   -0.0029   -0.9393 H   0  0  0  0  0  0  0  0  0  0  0  0
    3.1737   -0.0041    1.2160 H   0  0  0  0  0  0  0  0  0  0  0  0
    1.9241    0.0108    3.3606 H   0  0  0  0  0  0  0  0  0  0  0  0
   -0.5560   -0.0073    3.3533 H   0  0  0  0  0  0  0  0  0  0  0  0
   -1.7961   -0.0423    1.2048 H   0  0  0  0  0  0  0  0  0  0  0  0
   -3.3850    0.1732   -1.3127 H   0  0  0  0  0  0  0  0  0  0  0  0
   -3.5018    1.9228   -1.5644 H   0  0  0  0  0  0  0  0  0  0  0  0
   -2.9060    1.2895   -0.0259 H   0  0  0  0  0  0  0  0  0  0  0  0
    0.2947    2.4511   -1.6091 H   0  0  0  0  0  0  0  0  0  0  0  0
   -0.7077    2.5487   -0.1609 H   0  0  0  0  0  0  0  0  0  0  0  0
   -1.2431    3.3316   -1.6489 H   0  0  0  0  0  0  0  0  0  0  0  0
   -2.4776    0.7626   -3.6035 H   0  0  0  0  0  0  0  0  0  0  0  0
   -1.1706    1.9356   -3.7228 H   0  0  0  0  0  0  0  0  0  0  0  0
    1.1469    1.1606   -4.1235 H   0  0  0  0  0  0  0  0  0  0  0  0
    0.3134    0.3329   -5.4633 H   0  0  0  0  0  0  0  0  0  0  0  0
    1.4482   -0.5550   -4.4323 H   0  0  0  0  0  0  0  0  0  0  0  0
   -0.3898   -2.8768   -1.8603 H   0  0  0  0  0  0  0  0  0  0  0  0
    1.0405   -4.9008   -2.0014 H   0  0  0  0  0  0  0  0  0  0  0  0
    1.8841   -5.6775   -4.2041 H   0  0  0  0  0  0  0  0  0  0  0  0
    1.2934   -4.4407   -6.2709 H   0  0  0  0  0  0  0  0  0  0  0  0
   -0.1570   -2.4190   -6.1421 H   0  0  0  0  0  0  0  0  0  0  0  0
   -2.0909   -1.5495   -2.2685 H   0  0  0  0  0  0  0  0  0  0  0  0
  1  2  2  0  0  0  0
  1  6  1  0  0  0  0
  2  3  1  0  0  0  0
  3 24  1  0  0  0  0
  3  4  2  0  0  0  0
  4 25  1  0  0  0  0
  5  4  1  0  0  0  0
  5 26  1  0  0  0  0
  6  5  2  0  0  0  0
  7  1  1  0  0  0  0
  8 10  1  0  0  0  0
  8  7  1  0  0  0  0
  8  9  1  0  0  0  0
  9 30  1  0  0  0  0
 10 32  1  0  0  0  0
 11  8  1  0  0  0  0
 12 13  1  6  0  0  0
 12 11  1  0  0  0  0
 12 22  1  0  0  0  0
 13 36  1  0  0  0  0
 14 15  1  0  0  0  0
 14 12  1  0  0  0  0
 14 21  1  0  0  0  0
 15 16  2  0  0  0  0
 16 39  1  0  0  0  0
 17 16  1  0  0  0  0
 17 40  1  0  0  0  0
 18 17  2  0  0  0  0
 19 20  2  0  0  0  0
 19 18  1  0  0  0  0
 20 15  1  0  0  0  0
 21 44  1  0  0  0  0
 22  7  1  0  0  0  0
 23  2  1  0  0  0  0
 27  6  1  0  0  0  0
 28  9  1  0  0  0  0
 29  9  1  0  0  0  0
 31 10  1  0  0  0  0
 33 10  1  0  0  0  0
 34 11  1  0  0  0  0
 35 11  1  0  0  0  0
 37 13  1  0  0  0  0
 38 13  1  0  0  0  0
 41 18  1  0  0  0  0
 42 19  1  0  0  0  0
 43 20  1  0  0  0  0
M  END
$$$$
