44
rmsd60.gzmat
C          0.00000        0.00000        0.00000
C          1.40060        0.00000        0.00000
C          2.08730        0.00000        1.21040
C          1.39070        0.00570        2.41700
C         -0.00320       -0.00550        2.41270
C         -0.70500       -0.01600        1.21190
N         -0.76580       -0.09640       -1.20900
C         -1.56160        1.12150       -1.60930
C         -2.97070        0.97720       -1.03050
C         -0.92090        2.43710       -1.15690
C         -1.58150        1.02870       -3.15820
C         -0.45890        0.03600       -3.50380
C          0.65460        0.61870       -4.36660
N         -1.00300       -1.20020       -4.12730
C         -0.02030       -2.26240       -4.19540
C          0.28300       -3.08840       -3.10920
C          1.21790       -4.10760       -3.26650
C          1.84730       -4.29880       -4.49530
C          1.53750       -3.47350       -5.57540
C          0.59910       -2.45520       -5.43510
O         -2.11280       -1.66160       -3.40740
O          0.16940       -0.31710       -2.26000
H          1.95330       -0.00620       -0.93820
H          3.17650       -0.00460        1.21070
H          1.93250        0.01150        3.35910
H         -0.54880       -0.01070        3.35470
H         -1.79170       -0.05180        1.21320
H         -3.39180       -0.01570       -1.24250
H         -3.64670        1.72450       -1.46220
H         -2.98410        1.11200        0.05710
H          0.10510        2.53240       -1.53350
H         -0.86790        2.50680       -0.06290
H         -1.49120        3.30240       -1.50970
H         -2.56040        0.66970       -3.53550
H         -1.42430        2.00830       -3.63250
H          1.02080        1.56420       -3.94950
H          0.30130        0.80250       -5.39020
H          1.51590       -0.06200       -4.43160
H         -0.19680       -2.92590       -2.14470
H          1.45950       -4.75350       -2.42410
H          2.57980       -5.09380       -4.61160
H          2.02820       -3.62710       -6.53410
H          0.33680       -1.81750       -6.27680
H         -1.90330       -1.62220       -2.42430
