44
rmsd53.gzmat
C          0.00000        0.00000        0.00000
C          1.39900        0.00000        0.00000
C          2.08270        0.00000        1.21240
C          1.38080       -0.00880        2.41600
C         -0.01390       -0.03030        2.41010
C         -0.71250       -0.02930        1.20800
N         -0.78690       -0.05080       -1.20280
C         -1.32760        1.27290       -1.67440
C         -2.85140        1.17350       -1.53380
C         -0.80870        2.48020       -0.88380
C         -0.89350        1.38150       -3.15660
C         -0.11420        0.09010       -3.44320
C          1.29770        0.30700       -3.98790
N         -0.81230       -0.87920       -4.35340
C         -2.09520       -1.33580       -3.89360
C         -2.09900       -2.30220       -2.87710
C         -3.31010       -2.82910       -2.44310
C         -4.51000       -2.41140       -3.01940
C         -4.49930       -1.46220       -4.03830
C         -3.29530       -0.92000       -4.48090
O         -1.01010       -0.13830       -5.55190
O          0.05920       -0.59350       -2.20560
H          1.94620       -0.00540       -0.94050
H          3.17130        0.01070        1.21680
H          1.91960       -0.00430        3.35990
H         -0.55950       -0.05250        3.35210
H         -1.80020       -0.06350        1.19440
H         -3.24220        0.29870       -2.07780
H         -3.34850        2.06590       -1.92270
H         -3.14910        1.04480       -0.48700
H          0.28580        2.54030       -0.89710
H         -1.11580        2.43650        0.16910
H         -1.20090        3.41660       -1.29630
H         -1.76380        1.48810       -3.82920
H         -0.27450        2.27500       -3.33810
H          1.89410        0.92000       -3.30370
H          1.27070        0.79880       -4.96780
H          1.81690       -0.65470       -4.11450
H         -1.15910       -2.61670       -2.42000
H         -3.31840       -3.57100       -1.64630
H         -5.45210       -2.82830       -2.67440
H         -5.43390       -1.13850       -4.49070
H         -3.28970       -0.17920       -5.27760
H         -0.64260       -0.76180       -6.24120
