rmsd16.gzmat
 OpenBabel08211713403D

 44 46  0  0  1  0  0  0  0  0999 V2000
    0.0000    0.0000    0.0000 C   0  0  0  0  0  0  0  0  0  0  0  0
    1.4029    0.0000    0.0000 C   0  0  0  0  0  0  0  0  0  0  0  0
    2.0841    0.0000    1.2120 C   0  0  0  0  0  0  0  0  0  0  0  0
    1.3818    0.0099    2.4172 C   0  0  0  0  0  0  0  0  0  0  0  0
   -0.0115    0.0244    2.4104 C   0  0  0  0  0  0  0  0  0  0  0  0
   -0.7094    0.0194    1.2061 C   0  0  0  0  0  0  0  0  0  0  0  0
   -0.6381    0.0752   -1.2845 N   0  0  0  0  0  0  0  0  0  0  0  0
   -0.7357   -1.2202   -2.0452 C   0  0  0  0  0  0  0  0  0  0  0  0
    0.2495   -1.0963   -3.2138 C   0  0  0  0  0  0  0  0  0  0  0  0
   -0.4080   -2.4623   -1.2082 C   0  0  0  0  0  0  0  0  0  0  0  0
   -2.2021   -1.2795   -2.5407 C   0  0  0  0  0  0  0  0  0  0  0  0
   -2.8751   -0.0313   -1.9489 C   0  0  2  0  0  0  0  0  0  0  0  0
   -4.1220   -0.3164   -1.1122 C   0  0  0  0  0  0  0  0  0  0  0  0
   -3.2194    1.0336   -2.9510 N   0  0  0  0  0  0  0  0  0  0  0  0
   -2.1081    1.5080   -3.7313 C   0  0  0  0  0  0  0  0  0  0  0  0
   -1.2450    2.4232   -3.1111 C   0  0  0  0  0  0  0  0  0  0  0  0
   -0.1824    2.9548   -3.8328 C   0  0  0  0  0  0  0  0  0  0  0  0
    0.0172    2.5922   -5.1653 C   0  0  0  0  0  0  0  0  0  0  0  0
   -0.8540    1.6970   -5.7814 C   0  0  0  0  0  0  0  0  0  0  0  0
   -1.9186    1.1489   -5.0698 C   0  0  0  0  0  0  0  0  0  0  0  0
   -4.1334    0.3906   -3.8316 O   0  0  0  0  0  0  0  0  0  0  0  0
   -1.9507    0.5661   -1.0452 O   0  0  0  0  0  0  0  0  0  0  0  0
    1.9448    0.0156   -0.9434 H   0  0  0  0  0  0  0  0  0  0  0  0
    3.1727   -0.0020    1.2188 H   0  0  0  0  0  0  0  0  0  0  0  0
    1.9217    0.0108    3.3606 H   0  0  0  0  0  0  0  0  0  0  0  0
   -0.5599    0.0384    3.3510 H   0  0  0  0  0  0  0  0  0  0  0  0
   -1.7977    0.0354    1.2011 H   0  0  0  0  0  0  0  0  0  0  0  0
    0.0522   -0.1839   -3.8001 H   0  0  0  0  0  0  0  0  0  0  0  0
    0.1787   -1.9547   -3.8876 H   0  0  0  0  0  0  0  0  0  0  0  0
    1.2848   -1.0225   -2.8630 H   0  0  0  0  0  0  0  0  0  0  0  0
   -1.0381   -2.5292   -0.3134 H   0  0  0  0  0  0  0  0  0  0  0  0
    0.6356   -2.4566   -0.8681 H   0  0  0  0  0  0  0  0  0  0  0  0
   -0.5519   -3.3785   -1.7911 H   0  0  0  0  0  0  0  0  0  0  0  0
   -2.2578   -1.2830   -3.6447 H   0  0  0  0  0  0  0  0  0  0  0  0
   -2.7087   -2.2039   -2.2203 H   0  0  0  0  0  0  0  0  0  0  0  0
   -3.9027   -1.0236   -0.3051 H   0  0  0  0  0  0  0  0  0  0  0  0
   -4.9262   -0.7291   -1.7339 H   0  0  0  0  0  0  0  0  0  0  0  0
   -4.5019    0.6078   -0.6522 H   0  0  0  0  0  0  0  0  0  0  0  0
   -1.3988    2.6911   -2.0643 H   0  0  0  0  0  0  0  0  0  0  0  0
    0.4978    3.6555   -3.3512 H   0  0  0  0  0  0  0  0  0  0  0  0
    0.8506    3.0105   -5.7233 H   0  0  0  0  0  0  0  0  0  0  0  0
   -0.7027    1.4196   -6.8223 H   0  0  0  0  0  0  0  0  0  0  0  0
   -2.5949    0.4468   -5.5530 H   0  0  0  0  0  0  0  0  0  0  0  0
   -4.8746    1.0592   -3.8818 H   0  0  0  0  0  0  0  0  0  0  0  0
  1  2  2  0  0  0  0
  1  6  1  0  0  0  0
  2  3  1  0  0  0  0
  3 24  1  0  0  0  0
  3  4  2  0  0  0  0
  4 25  1  0  0  0  0
  5  4  1  0  0  0  0
  5 26  1  0  0  0  0
  6  5  2  0  0  0  0
  7 22  1  0  0  0  0
  7  1  1  0  0  0  0
  8  7  1  0  0  0  0
  8 10  1  0  0  0  0
  9 30  1  0  0  0  0
  9  8  1  0  0  0  0
 10 32  1  0  0  0  0
 10 31  1  0  0  0  0
 11 35  1  0  0  0  0
 11  8  1  0  0  0  0
 11 12  1  0  0  0  0
 12 14  1  6  0  0  0
 12 13  1  0  0  0  0
 12 22  1  0  0  0  0
 13 38  1  0  0  0  0
 13 36  1  0  0  0  0
 15 16  1  0  0  0  0
 15 14  1  0  0  0  0
 16 39  1  0  0  0  0
 17 40  1  0  0  0  0
 17 16  2  0  0  0  0
 18 17  1  0  0  0  0
 19 18  2  0  0  0  0
 19 20  1  0  0  0  0
 20 15  2  0  0  0  0
 21 14  1  0  0  0  0
 23  2  1  0  0  0  0
 27  6  1  0  0  0  0
 28  9  1  0  0  0  0
 29  9  1  0  0  0  0
 33 10  1  0  0  0  0
 34 11  1  0  0  0  0
 37 13  1  0  0  0  0
 41 18  1  0  0  0  0
 42 19  1  0  0  0  0
 43 20  1  0  0  0  0
 44 21  1  0  0  0  0
M  END
$$$$
