
     RDKit          3D

 44 46  0  0  0  0  0  0  0  0999 V2000
   -0.3841   -0.0828   -0.1922 C   0  0  0  0  0  0  0  0  0  0  0  0
    0.9675   -0.2756    0.1371 C   0  0  0  0  0  0  0  0  0  0  0  0
    1.3257   -0.6086    1.4452 C   0  0  0  0  0  0  0  0  0  0  0  0
    0.3538   -0.7430    2.4396 C   0  0  0  0  0  0  0  0  0  0  0  0
   -0.9935   -0.5661    2.1072 C   0  0  0  0  0  0  0  0  0  0  0  0
   -1.3654   -0.2581    0.7993 C   0  0  0  0  0  0  0  0  0  0  0  0
   -0.8089    0.2392   -1.4974 N   0  0  0  0  0  0  0  0  0  0  0  0
   -1.2293    1.6264   -1.8484 C   0  0  0  0  0  0  0  0  0  0  0  0
   -2.6295    1.9085   -1.3084 C   0  0  0  0  0  0  0  0  0  0  0  0
   -0.2209    2.6710   -1.3514 C   0  0  0  0  0  0  0  0  0  0  0  0
   -1.2233    1.5138   -3.3879 C   0  0  0  0  0  0  0  0  0  0  0  0
   -0.2504    0.3470   -3.6958 C   0  0  2  0  0  0  0  0  0  0  0  0
    0.9488    0.7251   -4.5489 C   0  0  0  0  0  0  0  0  0  0  0  0
   -0.9368   -0.8146   -4.3443 N   0  0  0  0  0  0  0  0  0  0  0  0
   -1.8813   -1.5443   -3.5629 C   0  0  0  0  0  0  0  0  0  0  0  0
   -1.3936   -2.4374   -2.5952 C   0  0  0  0  0  0  0  0  0  0  0  0
   -2.2792   -3.1382   -1.7813 C   0  0  0  0  0  0  0  0  0  0  0  0
   -3.6619   -2.9905   -1.9432 C   0  0  0  0  0  0  0  0  0  0  0  0
   -4.1468   -2.1366   -2.9359 C   0  0  0  0  0  0  0  0  0  0  0  0
   -3.2653   -1.4129   -3.7444 C   0  0  0  0  0  0  0  0  0  0  0  0
   -1.5489   -0.2888   -5.5188 O   0  0  0  0  0  0  0  0  0  0  0  0
    0.2431   -0.0505   -2.4377 O   0  0  0  0  0  0  0  0  0  0  0  0
    1.7232   -0.1701   -0.6392 H   0  0  0  0  0  0  0  0  0  0  0  0
    2.3806   -0.7596    1.6888 H   0  0  0  0  0  0  0  0  0  0  0  0
    0.6408   -1.0003    3.4616 H   0  0  0  0  0  0  0  0  0  0  0  0
   -1.7671   -0.6967    2.8681 H   0  0  0  0  0  0  0  0  0  0  0  0
   -2.4172   -0.1855    0.5249 H   0  0  0  0  0  0  0  0  0  0  0  0
   -3.3171    1.0971   -1.5885 H   0  0  0  0  0  0  0  0  0  0  0  0
   -3.0041    2.8534   -1.7313 H   0  0  0  0  0  0  0  0  0  0  0  0
   -2.6255    2.0112   -0.2137 H   0  0  0  0  0  0  0  0  0  0  0  0
    0.7905    2.4453   -1.7202 H   0  0  0  0  0  0  0  0  0  0  0  0
   -0.1865    2.6881   -0.2518 H   0  0  0  0  0  0  0  0  0  0  0  0
   -0.5025    3.6751   -1.7040 H   0  0  0  0  0  0  0  0  0  0  0  0
   -2.2235    1.2790   -3.7703 H   0  0  0  0  0  0  0  0  0  0  0  0
   -0.8975    2.4504   -3.8591 H   0  0  0  0  0  0  0  0  0  0  0  0
    1.4690    1.5862   -4.1065 H   0  0  0  0  0  0  0  0  0  0  0  0
    0.6184    0.9867   -5.5623 H   0  0  0  0  0  0  0  0  0  0  0  0
    1.6412   -0.1271   -4.6037 H   0  0  0  0  0  0  0  0  0  0  0  0
   -0.3166   -2.5471   -2.4755 H   0  0  0  0  0  0  0  0  0  0  0  0
   -1.8859   -3.8134   -1.0175 H   0  0  0  0  0  0  0  0  0  0  0  0
   -4.3542   -3.5502   -1.3100 H   0  0  0  0  0  0  0  0  0  0  0  0
   -5.2242   -2.0268   -3.0852 H   0  0  0  0  0  0  0  0  0  0  0  0
   -3.6390   -0.7522   -4.5253 H   0  0  0  0  0  0  0  0  0  0  0  0
   -1.2230   -0.8738   -6.2170 H   0  0  0  0  0  0  0  0  0  0  0  0
  1  2  2  0
  1  6  1  0
  1  7  1  0
  2  3  1  0
  2 23  1  0
  3  4  2  0
  3 24  1  0
  4  5  1  0
  4 25  1  0
  5  6  2  0
  5 26  1  0
  6 27  1  0
  7  8  1  0
  7 22  1  0
  8  9  1  0
  8 10  1  0
  8 11  1  0
  9 28  1  0
  9 29  1  0
  9 30  1  0
 10 31  1  0
 10 32  1  0
 10 33  1  0
 11 12  1  0
 11 34  1  0
 11 35  1  0
 12 13  1  0
 12 14  1  6
 12 22  1  0
 13 36  1  0
 13 37  1  0
 13 38  1  0
 14 15  1  0
 14 21  1  0
 15 16  2  0
 15 20  1  0
 16 17  1  0
 16 39  1  0
 17 18  2  0
 17 40  1  0
 18 19  1  0
 18 41  1  0
 19 20  2  0
 19 42  1  0
 20 43  1  0
 21 44  1  0
M  END

