rmsd54.gzmat
 OpenBabel08211713403D

 44 46  0  0  1  0  0  0  0  0999 V2000
    0.0000    0.0000    0.0000 C   0  0  0  0  0  0  0  0  0  0  0  0
    1.3996    0.0000    0.0000 C   0  0  0  0  0  0  0  0  0  0  0  0
    2.0842    0.0000    1.2120 C   0  0  0  0  0  0  0  0  0  0  0  0
    1.3842    0.0017    2.4166 C   0  0  0  0  0  0  0  0  0  0  0  0
   -0.0104   -0.0099    2.4115 C   0  0  0  0  0  0  0  0  0  0  0  0
   -0.7099   -0.0163    1.2102 C   0  0  0  0  0  0  0  0  0  0  0  0
   -0.7829   -0.0813   -1.2010 N   0  0  0  0  0  0  0  0  0  0  0  0
   -1.4309    1.2012   -1.6505 C   0  0  0  0  0  0  0  0  0  0  0  0
   -2.9347    1.0213   -1.4114 C   0  0  0  0  0  0  0  0  0  0  0  0
   -0.9257    2.4473   -0.9138 C   0  0  0  0  0  0  0  0  0  0  0  0
   -1.1023    1.3052   -3.1602 C   0  0  0  0  0  0  0  0  0  0  0  0
   -0.2179    0.0863   -3.4632 C   0  0  2  0  0  0  0  0  0  0  0  0
    1.1306    0.4230   -4.0991 C   0  0  0  0  0  0  0  0  0  0  0  0
   -0.8747   -0.9767   -4.2971 N   0  0  0  0  0  0  0  0  0  0  0  0
   -2.1126   -1.4798   -3.7654 C   0  0  0  0  0  0  0  0  0  0  0  0
   -2.0211   -2.3967   -2.7081 C   0  0  0  0  0  0  0  0  0  0  0  0
   -3.1841   -2.9474   -2.1825 C   0  0  0  0  0  0  0  0  0  0  0  0
   -4.4291   -2.6107   -2.7150 C   0  0  0  0  0  0  0  0  0  0  0  0
   -4.5121   -1.7172   -3.7797 C   0  0  0  0  0  0  0  0  0  0  0  0
   -3.3575   -1.1452   -4.3084 C   0  0  0  0  0  0  0  0  0  0  0  0
   -1.1586   -0.3192   -5.5264 O   0  0  0  0  0  0  0  0  0  0  0  0
    0.0987   -0.5337   -2.2202 O   0  0  0  0  0  0  0  0  0  0  0  0
    1.9484   -0.0057   -0.9399 H   0  0  0  0  0  0  0  0  0  0  0  0
    3.1729    0.0007    1.2164 H   0  0  0  0  0  0  0  0  0  0  0  0
    1.9240    0.0071    3.3598 H   0  0  0  0  0  0  0  0  0  0  0  0
   -0.5555   -0.0188    3.3540 H   0  0  0  0  0  0  0  0  0  0  0  0
   -1.7972   -0.0498    1.2006 H   0  0  0  0  0  0  0  0  0  0  0  0
   -3.3085    0.1123   -1.9104 H   0  0  0  0  0  0  0  0  0  0  0  0
   -3.5033    1.8749   -1.7910 H   0  0  0  0  0  0  0  0  0  0  0  0
   -3.1627    0.9054   -0.3461 H   0  0  0  0  0  0  0  0  0  0  0  0
    0.1616    2.5576   -0.9988 H   0  0  0  0  0  0  0  0  0  0  0  0
   -1.1632    2.4091    0.1571 H   0  0  0  0  0  0  0  0  0  0  0  0
   -1.3894    3.3557   -1.3138 H   0  0  0  0  0  0  0  0  0  0  0  0
   -2.0186    1.3017   -3.7781 H   0  0  0  0  0  0  0  0  0  0  0  0
   -0.5887    2.2488   -3.4043 H   0  0  0  0  0  0  0  0  0  0  0  0
    1.6962    1.1231   -3.4747 H   0  0  0  0  0  0  0  0  0  0  0  0
    0.9974    0.8682   -5.0928 H   0  0  0  0  0  0  0  0  0  0  0  0
    1.7399   -0.4843   -4.2218 H   0  0  0  0  0  0  0  0  0  0  0  0
   -1.0452   -2.6495   -2.2893 H   0  0  0  0  0  0  0  0  0  0  0  0
   -3.1191   -3.6430   -1.3476 H   0  0  0  0  0  0  0  0  0  0  0  0
   -5.3332   -3.0471   -2.2996 H   0  0  0  0  0  0  0  0  0  0  0  0
   -5.4819   -1.4613   -4.2006 H   0  0  0  0  0  0  0  0  0  0  0  0
   -3.4254   -0.4436   -5.1370 H   0  0  0  0  0  0  0  0  0  0  0  0
   -0.7818   -0.9606   -6.1935 H   0  0  0  0  0  0  0  0  0  0  0  0
  1  2  2  0  0  0  0
  1  6  1  0  0  0  0
  2  3  1  0  0  0  0
  3 24  1  0  0  0  0
  3  4  2  0  0  0  0
  4 25  1  0  0  0  0
  5  4  1  0  0  0  0
  5 26  1  0  0  0  0
  6  5  2  0  0  0  0
  7  1  1  0  0  0  0
  8  9  1  0  0  0  0
  8  7  1  0  0  0  0
  8 10  1  0  0  0  0
  9 30  1  0  0  0  0
 10 32  1  0  0  0  0
 11  8  1  0  0  0  0
 12 14  1  6  0  0  0
 12 11  1  0  0  0  0
 12 22  1  0  0  0  0
 13 36  1  0  0  0  0
 13 12  1  0  0  0  0
 14 15  1  0  0  0  0
 15 16  2  0  0  0  0
 16 39  1  0  0  0  0
 16 17  1  0  0  0  0
 17 40  1  0  0  0  0
 18 41  1  0  0  0  0
 18 17  2  0  0  0  0
 19 18  1  0  0  0  0
 20 19  2  0  0  0  0
 20 15  1  0  0  0  0
 21 14  1  0  0  0  0
 22  7  1  0  0  0  0
 23  2  1  0  0  0  0
 27  6  1  0  0  0  0
 28  9  1  0  0  0  0
 29  9  1  0  0  0  0
 31 10  1  0  0  0  0
 33 10  1  0  0  0  0
 34 11  1  0  0  0  0
 35 11  1  0  0  0  0
 37 13  1  0  0  0  0
 38 13  1  0  0  0  0
 42 19  1  0  0  0  0
 43 20  1  0  0  0  0
 44 21  1  0  0  0  0
M  END
$$$$
