44
rmsd16.gzmat
C          0.00000        0.00000        0.00000
C          1.40290        0.00000        0.00000
C          2.08410        0.00000        1.21200
C          1.38180        0.00990        2.41720
C         -0.01150        0.02440        2.41040
C         -0.70940        0.01940        1.20610
N         -0.63810        0.07520       -1.28450
C         -0.73570       -1.22020       -2.04520
C          0.24950       -1.09630       -3.21380
C         -0.40800       -2.46230       -1.20820
C         -2.20210       -1.27950       -2.54070
C         -2.87510       -0.03130       -1.94890
C         -4.12200       -0.31640       -1.11220
N         -3.21940        1.03360       -2.95100
C         -2.10810        1.50800       -3.73130
C         -1.24500        2.42320       -3.11110
C         -0.18240        2.95480       -3.83280
C          0.01720        2.59220       -5.16530
C         -0.85400        1.69700       -5.78140
C         -1.91860        1.14890       -5.06980
O         -4.13340        0.39060       -3.83160
O         -1.95070        0.56610       -1.04520
H          1.94480        0.01560       -0.94340
H          3.17270       -0.00200        1.21880
H          1.92170        0.01080        3.36060
H         -0.55990        0.03840        3.35100
H         -1.79770        0.03540        1.20110
H          0.05220       -0.18390       -3.80010
H          0.17870       -1.95470       -3.88760
H          1.28480       -1.02250       -2.86300
H         -1.03810       -2.52920       -0.31340
H          0.63560       -2.45660       -0.86810
H         -0.55190       -3.37850       -1.79110
H         -2.25780       -1.28300       -3.64470
H         -2.70870       -2.20390       -2.22030
H         -3.90270       -1.02360       -0.30510
H         -4.92620       -0.72910       -1.73390
H         -4.50190        0.60780       -0.65220
H         -1.39880        2.69110       -2.06430
H          0.49780        3.65550       -3.35120
H          0.85060        3.01050       -5.72330
H         -0.70270        1.41960       -6.82230
H         -2.59490        0.44680       -5.55300
H         -4.87460        1.05920       -3.88180
