rmsd8.gzmat
 OpenBabel08211713403D

 44 46  0  0  1  0  0  0  0  0999 V2000
    0.0000    0.0000    0.0000 C   0  0  0  0  0  0  0  0  0  0  0  0
    1.4018    0.0000    0.0000 C   0  0  0  0  0  0  0  0  0  0  0  0
    2.0836    0.0000    1.2125 C   0  0  0  0  0  0  0  0  0  0  0  0
    1.3819    0.0153    2.4174 C   0  0  0  0  0  0  0  0  0  0  0  0
   -0.0118    0.0343    2.4105 C   0  0  0  0  0  0  0  0  0  0  0  0
   -0.7096    0.0249    1.2061 C   0  0  0  0  0  0  0  0  0  0  0  0
   -0.6436    0.0656   -1.2825 N   0  0  0  0  0  0  0  0  0  0  0  0
   -0.7827   -1.2425   -2.0233 C   0  0  0  0  0  0  0  0  0  0  0  0
    0.3995   -1.3383   -2.9916 C   0  0  0  0  0  0  0  0  0  0  0  0
   -0.8261   -2.4658   -1.1027 C   0  0  0  0  0  0  0  0  0  0  0  0
   -2.1259   -1.0842   -2.7828 C   0  0  0  0  0  0  0  0  0  0  0  0
   -2.7822    0.1630   -2.1663 C   0  0  2  0  0  0  0  0  0  0  0  0
   -4.1722   -0.0651   -1.5834 C   0  0  0  0  0  0  0  0  0  0  0  0
   -2.8159    1.2788   -3.1477 N   0  0  0  0  0  0  0  0  0  0  0  0
   -3.2012    2.5429   -2.5543 C   0  0  0  0  0  0  0  0  0  0  0  0
   -2.3429    3.3072   -1.7587 C   0  0  0  0  0  0  0  0  0  0  0  0
   -2.7824    4.5314   -1.2624 C   0  0  0  0  0  0  0  0  0  0  0  0
   -4.0656    4.9886   -1.5585 C   0  0  0  0  0  0  0  0  0  0  0  0
   -4.9169    4.2204   -2.3520 C   0  0  0  0  0  0  0  0  0  0  0  0
   -4.4901    2.9957   -2.8571 C   0  0  0  0  0  0  0  0  0  0  0  0
   -1.5634    1.4370   -3.7550 O   0  0  0  0  0  0  0  0  0  0  0  0
   -1.9651    0.5370   -1.0444 O   0  0  0  0  0  0  0  0  0  0  0  0
    1.9475    0.0182   -0.9408 H   0  0  0  0  0  0  0  0  0  0  0  0
    3.1723   -0.0045    1.2186 H   0  0  0  0  0  0  0  0  0  0  0  0
    1.9219    0.0197    3.3610 H   0  0  0  0  0  0  0  0  0  0  0  0
   -0.5605    0.0539    3.3508 H   0  0  0  0  0  0  0  0  0  0  0  0
   -1.7986    0.0400    1.2022 H   0  0  0  0  0  0  0  0  0  0  0  0
    0.4609   -0.4503   -3.6372 H   0  0  0  0  0  0  0  0  0  0  0  0
    0.3034   -2.2149   -3.6416 H   0  0  0  0  0  0  0  0  0  0  0  0
    1.3541   -1.4223   -2.4594 H   0  0  0  0  0  0  0  0  0  0  0  0
   -1.6326   -2.3836   -0.3639 H   0  0  0  0  0  0  0  0  0  0  0  0
    0.1109   -2.5865   -0.5441 H   0  0  0  0  0  0  0  0  0  0  0  0
   -0.9845   -3.3880   -1.6715 H   0  0  0  0  0  0  0  0  0  0  0  0
   -1.9679   -0.9507   -3.8721 H   0  0  0  0  0  0  0  0  0  0  0  0
   -2.7652   -1.9737   -2.6828 H   0  0  0  0  0  0  0  0  0  0  0  0
   -4.1870   -0.9488   -0.9349 H   0  0  0  0  0  0  0  0  0  0  0  0
   -4.9138   -0.2032   -2.3817 H   0  0  0  0  0  0  0  0  0  0  0  0
   -4.4985    0.7906   -0.9739 H   0  0  0  0  0  0  0  0  0  0  0  0
   -1.3441    2.9414   -1.5196 H   0  0  0  0  0  0  0  0  0  0  0  0
   -2.1200    5.1310   -0.6403 H   0  0  0  0  0  0  0  0  0  0  0  0
   -4.4033    5.9474   -1.1722 H   0  0  0  0  0  0  0  0  0  0  0  0
   -5.9171    4.5808   -2.5829 H   0  0  0  0  0  0  0  0  0  0  0  0
   -5.1395    2.3950   -3.4915 H   0  0  0  0  0  0  0  0  0  0  0  0
   -0.8515    1.4148   -3.0454 H   0  0  0  0  0  0  0  0  0  0  0  0
  1  2  2  0  0  0  0
  1  6  1  0  0  0  0
  2  3  1  0  0  0  0
  3 24  1  0  0  0  0
  3  4  2  0  0  0  0
  4 25  1  0  0  0  0
  5  4  1  0  0  0  0
  5 26  1  0  0  0  0
  6  5  2  0  0  0  0
  7 22  1  0  0  0  0
  7  1  1  0  0  0  0
  8  7  1  0  0  0  0
  8 10  1  0  0  0  0
  9 30  1  0  0  0  0
  9  8  1  0  0  0  0
 10 32  1  0  0  0  0
 10 31  1  0  0  0  0
 11 35  1  0  0  0  0
 11 12  1  0  0  0  0
 11  8  1  0  0  0  0
 12 14  1  6  0  0  0
 12 13  1  0  0  0  0
 12 22  1  0  0  0  0
 13 38  1  0  0  0  0
 13 36  1  0  0  0  0
 14 15  1  0  0  0  0
 15 16  1  0  0  0  0
 16 39  1  0  0  0  0
 16 17  2  0  0  0  0
 17 40  1  0  0  0  0
 18 17  1  0  0  0  0
 18 41  1  0  0  0  0
 19 18  2  0  0  0  0
 20 15  2  0  0  0  0
 20 19  1  0  0  0  0
 21 14  1  0  0  0  0
 21 44  1  0  0  0  0
 23  2  1  0  0  0  0
 27  6  1  0  0  0  0
 28  9  1  0  0  0  0
 29  9  1  0  0  0  0
 33 10  1  0  0  0  0
 34 11  1  0  0  0  0
 37 13  1  0  0  0  0
 42 19  1  0  0  0  0
 43 20  1  0  0  0  0
M  END
$$$$
