44

C          0.20600        0.18680       -0.29060
H          1.29340        0.34440       -0.29160
C         -0.33940       -0.11950       -1.69800
C         -1.22370       -1.34080       -1.53340
O         -2.02380       -1.81530       -2.29820
N         -0.94570       -1.87090       -0.26450
C         -0.06900       -1.09680        0.51170
O          0.35190       -1.39320        1.59530
N         -1.52030       -3.03530        0.18730
C         -0.94050       -4.25710       -0.20690
C         -1.73460       -5.41480       -0.20990
C         -1.17600       -6.64750       -0.54280
C          0.17730       -6.74760       -0.88070
C          0.96490       -5.59400       -0.87630
C          0.41800       -4.35440       -0.53990
C         -0.45610        1.34850        0.42700
C          0.27260        2.11910        1.33690
C         -0.32090        3.15670        2.06050
C         -1.68570        3.43640        1.88910
C         -2.42870        2.66140        0.98150
C         -1.82270        1.63340        0.26860
O         -2.37390        4.40100        2.54320
C         -1.71870        5.29680        3.44810
C         -0.97580        6.38630        2.68050
C         -2.81010        5.85310        4.34950
H          0.46860       -0.39630       -2.39430
H         -0.89840        0.70510       -2.15890
H         -2.53130       -3.00420        0.08740
H         -2.79470       -5.34250        0.04790
H         -1.80880       -7.53840       -0.54380
H          0.61190       -7.71400       -1.14400
H          2.02520       -5.65500       -1.13390
H          1.04940       -3.46570       -0.52310
H          1.33330        1.90690        1.49080
H          0.29060        3.73520        2.75150
H         -3.48940        2.88720        0.85910
H         -2.43510        1.04730       -0.42140
H         -1.00670        4.72140        4.06700
H         -1.68670        6.97000        2.07500
H         -0.21880        5.96270        2.00470
H         -0.46830        7.07040        3.37820
H         -3.55560        6.39970        3.75130
H         -2.38190        6.54390        5.09150
H         -3.32380        5.03870        4.88090
