rmsd194.gzmat
 OpenBabel08211713393D

 44 46  0  0  1  0  0  0  0  0999 V2000
    0.0000    0.0000    0.0000 C   0  0  2  0  0  0  0  0  0  0  0  0
    1.1186    0.0000    0.0000 H   0  0  0  0  0  0  0  0  0  0  0  0
   -0.5357    0.0000   -1.4528 C   0  0  0  0  0  0  0  0  0  0  0  0
   -1.3469   -1.2639   -1.5941 C   0  0  0  0  0  0  0  0  0  0  0  0
   -1.9830   -1.6614   -2.5314 O   0  0  0  0  0  0  0  0  0  0  0  0
   -1.2804   -1.9605   -0.3615 N   0  0  0  0  0  0  0  0  0  0  0  0
   -0.4636   -1.3297    0.6155 C   0  0  0  0  0  0  0  0  0  0  0  0
   -0.1860   -1.7797    1.6853 O   0  0  0  0  0  0  0  0  0  0  0  0
   -1.8744   -3.2088   -0.1319 N   0  0  0  0  0  0  0  0  0  0  0  0
   -1.0890   -4.3074   -0.6439 C   0  0  0  0  0  0  0  0  0  0  0  0
   -1.6887   -5.2513   -1.4867 C   0  0  0  0  0  0  0  0  0  0  0  0
   -0.9632   -6.3706   -1.8839 C   0  0  0  0  0  0  0  0  0  0  0  0
    0.3522   -6.5443   -1.4571 C   0  0  0  0  0  0  0  0  0  0  0  0
    0.9420   -5.6029   -0.6145 C   0  0  0  0  0  0  0  0  0  0  0  0
    0.2266   -4.4845   -0.1996 C   0  0  0  0  0  0  0  0  0  0  0  0
   -0.5301    1.1562    0.7851 C   0  0  0  0  0  0  0  0  0  0  0  0
   -1.8820    1.2283    1.1227 C   0  0  0  0  0  0  0  0  0  0  0  0
   -2.3819    2.3193    1.8277 C   0  0  0  0  0  0  0  0  0  0  0  0
   -1.5043    3.3412    2.1961 C   0  0  0  0  0  0  0  0  0  0  0  0
   -0.1362    3.2784    1.8756 C   0  0  0  0  0  0  0  0  0  0  0  0
    0.3391    2.1840    1.1721 C   0  0  0  0  0  0  0  0  0  0  0  0
   -1.8361    4.4766    2.8482 O   0  0  0  0  0  0  0  0  0  0  0  0
   -3.1691    4.6248    3.3667 C   0  0  0  0  0  0  0  0  0  0  0  0
   -3.2991    3.7953    4.6377 C   0  0  0  0  0  0  0  0  0  0  0  0
   -3.2456    6.1256    3.6381 C   0  0  0  0  0  0  0  0  0  0  0  0
    0.2800    0.0265   -2.1994 H   0  0  0  0  0  0  0  0  0  0  0  0
   -1.1585    0.8923   -1.6671 H   0  0  0  0  0  0  0  0  0  0  0  0
   -2.8252   -3.1871   -0.5463 H   0  0  0  0  0  0  0  0  0  0  0  0
   -2.7090   -5.1123   -1.8375 H   0  0  0  0  0  0  0  0  0  0  0  0
   -1.4252   -7.1094   -2.5375 H   0  0  0  0  0  0  0  0  0  0  0  0
    0.9183   -7.4152   -1.7799 H   0  0  0  0  0  0  0  0  0  0  0  0
    1.9666   -5.7447   -0.2740 H   0  0  0  0  0  0  0  0  0  0  0  0
    0.6751   -3.7636    0.4842 H   0  0  0  0  0  0  0  0  0  0  0  0
   -2.5604    0.4211    0.8395 H   0  0  0  0  0  0  0  0  0  0  0  0
   -3.4360    2.3602    2.0801 H   0  0  0  0  0  0  0  0  0  0  0  0
    0.5221    4.0847    2.1870 H   0  0  0  0  0  0  0  0  0  0  0  0
    1.3985    2.1271    0.9214 H   0  0  0  0  0  0  0  0  0  0  0  0
   -3.9019    4.3197    2.5884 H   0  0  0  0  0  0  0  0  0  0  0  0
   -2.5218    4.0640    5.3659 H   0  0  0  0  0  0  0  0  0  0  0  0
   -3.1846    2.7225    4.4367 H   0  0  0  0  0  0  0  0  0  0  0  0
   -4.2718    3.9456    5.1179 H   0  0  0  0  0  0  0  0  0  0  0  0
   -2.4952    6.4380    4.3758 H   0  0  0  0  0  0  0  0  0  0  0  0
   -4.2322    6.4084    4.0188 H   0  0  0  0  0  0  0  0  0  0  0  0
   -3.0518    6.7027    2.7244 H   0  0  0  0  0  0  0  0  0  0  0  0
  1  2  1  6  0  0  0
  1  7  1  0  0  0  0
  1 16  1  0  0  0  0
  3  1  1  0  0  0  0
  4  3  1  0  0  0  0
  4  6  1  0  0  0  0
  5  4  2  0  0  0  0
  6  9  1  0  0  0  0
  6  7  1  0  0  0  0
  7  8  2  0  0  0  0
 10 15  2  0  0  0  0
 10  9  1  0  0  0  0
 11 10  1  0  0  0  0
 12 11  2  0  0  0  0
 12 13  1  0  0  0  0
 13 14  2  0  0  0  0
 14 32  1  0  0  0  0
 14 15  1  0  0  0  0
 15 33  1  0  0  0  0
 16 17  2  0  0  0  0
 16 21  1  0  0  0  0
 17 18  1  0  0  0  0
 18 35  1  0  0  0  0
 18 19  2  0  0  0  0
 19 22  1  0  0  0  0
 20 36  1  0  0  0  0
 20 19  1  0  0  0  0
 21 20  2  0  0  0  0
 22 23  1  0  0  0  0
 23 25  1  0  0  0  0
 23 24  1  0  0  0  0
 24 41  1  0  0  0  0
 24 39  1  0  0  0  0
 25 43  1  0  0  0  0
 25 42  1  0  0  0  0
 26  3  1  0  0  0  0
 27  3  1  0  0  0  0
 28  9  1  0  0  0  0
 29 11  1  0  0  0  0
 30 12  1  0  0  0  0
 31 13  1  0  0  0  0
 34 17  1  0  0  0  0
 37 21  1  0  0  0  0
 38 23  1  0  0  0  0
 40 24  1  0  0  0  0
 44 25  1  0  0  0  0
M  END
$$$$
