
     RDKit          3D

 44 46  0  0  0  0  0  0  0  0999 V2000
    0.2024    0.1830   -0.1724 C   0  0  2  0  0  0  0  0  0  0  0  0
    1.2746    0.3877   -0.2976 H   0  0  0  0  0  0  0  0  0  0  0  0
   -0.5030   -0.0756   -1.5164 C   0  0  0  0  0  0  0  0  0  0  0  0
   -1.3303   -1.3288   -1.3038 C   0  0  0  0  0  0  0  0  0  0  0  0
   -2.2144   -1.7873   -1.9812 O   0  0  0  0  0  0  0  0  0  0  0  0
   -0.8744   -1.9137   -0.1132 N   0  0  0  0  0  0  0  0  0  0  0  0
    0.0741   -1.1497    0.5853 C   0  0  0  0  0  0  0  0  0  0  0  0
    0.6415   -1.4866    1.5871 O   0  0  0  0  0  0  0  0  0  0  0  0
   -1.3566   -3.1168    0.3460 N   0  0  0  0  0  0  0  0  0  0  0  0
   -0.7974   -4.2984   -0.1796 C   0  0  0  0  0  0  0  0  0  0  0  0
    0.5145   -4.3359   -0.6730 C   0  0  0  0  0  0  0  0  0  0  0  0
    1.0486   -5.5389   -1.1383 C   0  0  0  0  0  0  0  0  0  0  0  0
    0.2949   -6.7147   -1.1143 C   0  0  0  0  0  0  0  0  0  0  0  0
   -1.0112   -6.6745   -0.6162 C   0  0  0  0  0  0  0  0  0  0  0  0
   -1.5573   -5.4784   -0.1536 C   0  0  0  0  0  0  0  0  0  0  0  0
   -0.4084    1.2762    0.6859 C   0  0  0  0  0  0  0  0  0  0  0  0
   -1.7838    1.5294    0.6929 C   0  0  0  0  0  0  0  0  0  0  0  0
   -2.3462    2.4959    1.5325 C   0  0  0  0  0  0  0  0  0  0  0  0
   -1.5249    3.2299    2.4020 C   0  0  0  0  0  0  0  0  0  0  0  0
   -0.1420    2.9752    2.4067 C   0  0  0  0  0  0  0  0  0  0  0  0
    0.4009    2.0111    1.5667 C   0  0  0  0  0  0  0  0  0  0  0  0
   -1.9545    4.1765    3.2686 O   0  0  0  0  0  0  0  0  0  0  0  0
   -3.3291    4.5750    3.3123 C   0  0  0  0  0  0  0  0  0  0  0  0
   -3.5342    5.2209    4.6738 C   0  0  0  0  0  0  0  0  0  0  0  0
   -3.6514    5.5186    2.1573 C   0  0  0  0  0  0  0  0  0  0  0  0
    0.2217   -0.2991   -2.3160 H   0  0  0  0  0  0  0  0  0  0  0  0
   -1.1321    0.7521   -1.8680 H   0  0  0  0  0  0  0  0  0  0  0  0
   -2.3728   -3.1142    0.3688 H   0  0  0  0  0  0  0  0  0  0  0  0
    1.1214   -3.4303   -0.6800 H   0  0  0  0  0  0  0  0  0  0  0  0
    2.0724   -5.5535   -1.5201 H   0  0  0  0  0  0  0  0  0  0  0  0
    0.7194   -7.6522   -1.4788 H   0  0  0  0  0  0  0  0  0  0  0  0
   -1.6173   -7.5835   -0.5925 H   0  0  0  0  0  0  0  0  0  0  0  0
   -2.5812   -5.4526    0.2290 H   0  0  0  0  0  0  0  0  0  0  0  0
   -2.4531    0.9713    0.0334 H   0  0  0  0  0  0  0  0  0  0  0  0
   -3.4217    2.6632    1.4971 H   0  0  0  0  0  0  0  0  0  0  0  0
    0.4854    3.5516    3.0887 H   0  0  0  0  0  0  0  0  0  0  0  0
    1.4761    1.8193    1.5951 H   0  0  0  0  0  0  0  0  0  0  0  0
   -3.9645    3.6731    3.2486 H   0  0  0  0  0  0  0  0  0  0  0  0
   -2.8830    6.1026    4.7784 H   0  0  0  0  0  0  0  0  0  0  0  0
   -3.2874    4.5123    5.4779 H   0  0  0  0  0  0  0  0  0  0  0  0
   -4.5800    5.5417    4.7943 H   0  0  0  0  0  0  0  0  0  0  0  0
   -3.0293    6.4244    2.2282 H   0  0  0  0  0  0  0  0  0  0  0  0
   -4.7101    5.8193    2.1903 H   0  0  0  0  0  0  0  0  0  0  0  0
   -3.4594    5.0478    1.1823 H   0  0  0  0  0  0  0  0  0  0  0  0
  1  2  1  6
  1  3  1  0
  1  7  1  0
  1 16  1  0
  3  4  1  0
  3 26  1  0
  3 27  1  0
  4  5  2  0
  4  6  1  0
  6  7  1  0
  6  9  1  0
  7  8  2  0
  9 10  1  0
  9 28  1  0
 10 11  2  0
 10 15  1  0
 11 12  1  0
 11 29  1  0
 12 13  2  0
 12 30  1  0
 13 14  1  0
 13 31  1  0
 14 15  2  0
 14 32  1  0
 15 33  1  0
 16 17  2  0
 16 21  1  0
 17 18  1  0
 17 34  1  0
 18 19  2  0
 18 35  1  0
 19 20  1  0
 19 22  1  0
 20 21  2  0
 20 36  1  0
 21 37  1  0
 22 23  1  0
 23 24  1  0
 23 25  1  0
 23 38  1  0
 24 39  1  0
 24 40  1  0
 24 41  1  0
 25 42  1  0
 25 43  1  0
 25 44  1  0
M  END

