rmsd175.gzmat
 OpenBabel08211713393D

 44 46  0  0  1  0  0  0  0  0999 V2000
    0.0000    0.0000    0.0000 C   0  0  2  0  0  0  0  0  0  0  0  0
    1.1184    0.0000    0.0000 H   0  0  0  0  0  0  0  0  0  0  0  0
   -0.5381    0.0000   -1.4517 C   0  0  0  0  0  0  0  0  0  0  0  0
   -1.3727   -1.2502   -1.5826 C   0  0  0  0  0  0  0  0  0  0  0  0
   -2.0366   -1.6314   -2.5073 O   0  0  0  0  0  0  0  0  0  0  0  0
   -1.2874   -1.9566   -0.3573 N   0  0  0  0  0  0  0  0  0  0  0  0
   -0.4681   -1.3272    0.6180 C   0  0  0  0  0  0  0  0  0  0  0  0
   -0.1907   -1.7770    1.6882 O   0  0  0  0  0  0  0  0  0  0  0  0
   -1.9279   -3.1775   -0.1063 N   0  0  0  0  0  0  0  0  0  0  0  0
   -1.1609   -4.3191   -0.5460 C   0  0  0  0  0  0  0  0  0  0  0  0
    0.1343   -4.5163   -0.0541 C   0  0  0  0  0  0  0  0  0  0  0  0
    0.8211   -5.6798   -0.3851 C   0  0  0  0  0  0  0  0  0  0  0  0
    0.2225   -6.6461   -1.1926 C   0  0  0  0  0  0  0  0  0  0  0  0
   -1.0726   -6.4506   -1.6694 C   0  0  0  0  0  0  0  0  0  0  0  0
   -1.7685   -5.2864   -1.3564 C   0  0  0  0  0  0  0  0  0  0  0  0
   -0.5316    1.1520    0.7906 C   0  0  0  0  0  0  0  0  0  0  0  0
   -1.8789    1.2037    1.1507 C   0  0  0  0  0  0  0  0  0  0  0  0
   -2.3782    2.2741    1.8861 C   0  0  0  0  0  0  0  0  0  0  0  0
   -1.5053    3.2991    2.2574 C   0  0  0  0  0  0  0  0  0  0  0  0
   -0.1460    3.2661    1.8978 C   0  0  0  0  0  0  0  0  0  0  0  0
    0.3299    2.1886    1.1686 C   0  0  0  0  0  0  0  0  0  0  0  0
   -1.8390    4.4126    2.9457 O   0  0  0  0  0  0  0  0  0  0  0  0
   -3.1362    4.4916    3.5616 C   0  0  0  0  0  0  0  0  0  0  0  0
   -3.1551    3.5983    4.7953 C   0  0  0  0  0  0  0  0  0  0  0  0
   -3.2356    5.9745    3.9132 C   0  0  0  0  0  0  0  0  0  0  0  0
    0.2771    0.0054   -2.1995 H   0  0  0  0  0  0  0  0  0  0  0  0
   -1.1443    0.9025   -1.6717 H   0  0  0  0  0  0  0  0  0  0  0  0
   -2.8635   -3.1434   -0.5534 H   0  0  0  0  0  0  0  0  0  0  0  0
    0.5889   -3.7764    0.6046 H   0  0  0  0  0  0  0  0  0  0  0  0
    1.8290   -5.8376   -0.0036 H   0  0  0  0  0  0  0  0  0  0  0  0
    0.7656   -7.5532   -1.4481 H   0  0  0  0  0  0  0  0  0  0  0  0
   -1.5419   -7.2085   -2.2950 H   0  0  0  0  0  0  0  0  0  0  0  0
   -2.7731   -5.1329   -1.7447 H   0  0  0  0  0  0  0  0  0  0  0  0
   -2.5539    0.3950    0.8626 H   0  0  0  0  0  0  0  0  0  0  0  0
   -3.4278    2.2981    2.1593 H   0  0  0  0  0  0  0  0  0  0  0  0
    0.5066    4.0801    2.2016 H   0  0  0  0  0  0  0  0  0  0  0  0
    1.3843    2.1505    0.8943 H   0  0  0  0  0  0  0  0  0  0  0  0
   -3.9113    4.2020    2.8194 H   0  0  0  0  0  0  0  0  0  0  0  0
   -2.3185    3.8344    5.4670 H   0  0  0  0  0  0  0  0  0  0  0  0
   -3.0570    2.5372    4.5328 H   0  0  0  0  0  0  0  0  0  0  0  0
   -4.0831    3.7193    5.3639 H   0  0  0  0  0  0  0  0  0  0  0  0
   -2.4449    6.2729    4.6139 H   0  0  0  0  0  0  0  0  0  0  0  0
   -4.2016    6.2079    4.3721 H   0  0  0  0  0  0  0  0  0  0  0  0
   -3.1212    6.6009    3.0185 H   0  0  0  0  0  0  0  0  0  0  0  0
  1  2  1  6  0  0  0
  1  7  1  0  0  0  0
  1 16  1  0  0  0  0
  3  1  1  0  0  0  0
  4  3  1  0  0  0  0
  4  6  1  0  0  0  0
  5  4  2  0  0  0  0
  6  9  1  0  0  0  0
  6  7  1  0  0  0  0
  7  8  2  0  0  0  0
 10  9  1  0  0  0  0
 10 11  2  0  0  0  0
 11 29  1  0  0  0  0
 12 11  1  0  0  0  0
 12 30  1  0  0  0  0
 13 12  2  0  0  0  0
 14 15  2  0  0  0  0
 14 13  1  0  0  0  0
 15 10  1  0  0  0  0
 16 17  2  0  0  0  0
 16 21  1  0  0  0  0
 17 18  1  0  0  0  0
 18 35  1  0  0  0  0
 18 19  2  0  0  0  0
 19 22  1  0  0  0  0
 20 36  1  0  0  0  0
 20 19  1  0  0  0  0
 21 20  2  0  0  0  0
 22 23  1  0  0  0  0
 23 25  1  0  0  0  0
 23 24  1  0  0  0  0
 24 41  1  0  0  0  0
 24 39  1  0  0  0  0
 25 43  1  0  0  0  0
 25 42  1  0  0  0  0
 26  3  1  0  0  0  0
 27  3  1  0  0  0  0
 28  9  1  0  0  0  0
 31 13  1  0  0  0  0
 32 14  1  0  0  0  0
 33 15  1  0  0  0  0
 34 17  1  0  0  0  0
 37 21  1  0  0  0  0
 38 23  1  0  0  0  0
 40 24  1  0  0  0  0
 44 25  1  0  0  0  0
M  END
$$$$
