44
rmsd226.gzmat
C          0.00000        0.00000        0.00000
H          1.11950        0.00000        0.00000
C         -0.53910        0.00000       -1.45190
C         -1.31660       -1.28380       -1.60550
O         -1.95210       -1.68540       -2.54160
N         -1.21270       -1.99910       -0.38670
C         -0.45730       -1.33150        0.61390
O         -0.20680       -1.76460        1.69780
N         -1.85440       -3.21990       -0.13750
C         -1.06310       -4.37040       -0.49870
C          0.24130       -4.51410       -0.01230
C          0.93510       -5.69540       -0.25470
C          0.33810       -6.72990       -0.97380
C         -0.96310       -6.58400       -1.45220
C         -1.66720       -5.40510       -1.22530
C         -0.52120        1.16420        0.78020
C         -1.79010        1.13400        1.35820
C         -2.26960        2.22450        2.07860
C         -1.45810        3.35270        2.21190
C         -0.17990        3.40460        1.62640
C          0.27830        2.30630        0.91800
O         -1.78350        4.49210        2.86110
C         -2.97400        4.52190        3.66750
C         -2.73190        3.73130        4.94670
C         -3.14740        6.01560        3.93330
H          0.27330        0.05910       -2.20040
H         -1.18980        0.87620       -1.65280
H         -2.76540       -3.20630       -0.63380
H          0.69980       -3.71800        0.57330
H          1.94840       -5.81300        0.12690
H          0.88680       -7.65010       -1.16090
H         -1.43070       -7.39340       -2.01140
H         -2.67650       -5.29290       -1.61480
H         -2.41990        0.24740        1.25830
H         -3.25780        2.18200        2.52450
H          0.42570        4.29880        1.74670
H          1.27100        2.33440        0.46880
H         -3.82300        4.11790        3.07510
H         -1.82120        4.07420        5.45630
H         -2.59620        2.66090        4.74760
H         -3.56610        3.83880        5.64850
H         -2.32540        6.41290        4.54240
H         -4.08660        6.21560        4.45920
H         -3.15120        6.58580        2.99470
