44

C          0.25230        0.20680       -0.26550
H          1.32460        0.39390       -0.41480
C         -0.49100       -0.01770       -1.59510
C         -1.33090       -1.26260       -1.38360
O         -2.23710       -1.69750       -2.04740
N         -0.85680       -1.87320       -0.21340
C          0.11880       -1.13490        0.47510
O          0.70270       -1.49610        1.45890
N         -1.34790       -3.07580        0.23820
C         -0.81400       -4.25770       -0.31270
C          0.48900       -4.30660       -0.82840
C          0.99830       -5.51050       -1.31860
C          0.22860       -6.67590       -1.29790
C         -1.06840       -6.62440       -0.77770
C         -1.58990       -5.42730       -0.29000
C         -0.31570        1.29760        0.62450
C         -1.68630        1.57180        0.67420
C         -2.20980        2.53070        1.54690
C         -1.35250        3.23990        2.40210
C          0.02530        2.96190        2.36580
C          0.52940        2.00490        1.49410
O         -1.73860        4.20400        3.27010
C         -3.12290        4.50720        3.47510
C         -3.77950        3.45000        4.35780
C         -3.15900        5.89560        4.09480
H          0.20930       -0.23630       -2.41740
H         -1.11710        0.82500       -1.91530
H         -2.36350       -3.05940        0.27560
H          1.10860       -3.40970       -0.83310
H          2.01550       -5.53410       -1.71750
H          0.63380       -7.61420       -1.68210
H         -1.68680       -7.52510       -0.75610
H         -2.60690       -5.39250        0.10990
H         -2.38270        1.03310        0.02690
H         -3.28380        2.71150        1.54860
H          0.68090        3.51890        3.03740
H          1.60190        1.79610        1.48890
H         -3.62970        4.54410        2.49360
H         -3.28530        3.42290        5.34140
H         -3.70790        2.44730        3.91230
H         -4.84500        3.68310        4.50890
H         -2.62700        5.89550        5.05880
H         -4.19830        6.21310        4.26840
H         -2.67260        6.62670        3.43240
