rmsd111.gzmat
 OpenBabel08211713393D

 44 46  0  0  1  0  0  0  0  0999 V2000
    0.0000    0.0000    0.0000 C   0  0  2  0  0  0  0  0  0  0  0  0
    1.1196    0.0000    0.0000 H   0  0  0  0  0  0  0  0  0  0  0  0
   -0.5377    0.0000   -1.4520 C   0  0  0  0  0  0  0  0  0  0  0  0
   -1.2797   -1.3031   -1.6168 C   0  0  0  0  0  0  0  0  0  0  0  0
   -1.8952   -1.7182   -2.5614 O   0  0  0  0  0  0  0  0  0  0  0  0
   -1.1701   -2.0219   -0.4019 N   0  0  0  0  0  0  0  0  0  0  0  0
   -0.4590   -1.3315    0.6131 C   0  0  0  0  0  0  0  0  0  0  0  0
   -0.2370   -1.7446    1.7118 O   0  0  0  0  0  0  0  0  0  0  0  0
   -1.8536   -3.2240   -0.1457 N   0  0  0  0  0  0  0  0  0  0  0  0
   -1.0043   -4.3837   -0.3350 C   0  0  0  0  0  0  0  0  0  0  0  0
   -0.0152   -4.6461    0.6179 C   0  0  0  0  0  0  0  0  0  0  0  0
    0.7329   -5.8153    0.5204 C   0  0  0  0  0  0  0  0  0  0  0  0
    0.4932   -6.7197   -0.5135 C   0  0  0  0  0  0  0  0  0  0  0  0
   -0.4989   -6.4558   -1.4568 C   0  0  0  0  0  0  0  0  0  0  0  0
   -1.2477   -5.2850   -1.3776 C   0  0  0  0  0  0  0  0  0  0  0  0
   -0.5223    1.1579    0.7881 C   0  0  0  0  0  0  0  0  0  0  0  0
   -1.7824    1.1116    1.3841 C   0  0  0  0  0  0  0  0  0  0  0  0
   -2.2589    2.1881    2.1272 C   0  0  0  0  0  0  0  0  0  0  0  0
   -1.4534    3.3201    2.2614 C   0  0  0  0  0  0  0  0  0  0  0  0
   -0.1847    3.3890    1.6566 C   0  0  0  0  0  0  0  0  0  0  0  0
    0.2711    2.3039    0.9274 C   0  0  0  0  0  0  0  0  0  0  0  0
   -1.7611    4.4389    2.9526 O   0  0  0  0  0  0  0  0  0  0  0  0
   -2.9874    4.4891    3.7009 C   0  0  0  0  0  0  0  0  0  0  0  0
   -2.7081    5.6098    4.7003 C   0  0  0  0  0  0  0  0  0  0  0  0
   -4.1323    4.8299    2.7549 C   0  0  0  0  0  0  0  0  0  0  0  0
    0.2718    0.0913   -2.1997 H   0  0  0  0  0  0  0  0  0  0  0  0
   -1.2151    0.8581   -1.6421 H   0  0  0  0  0  0  0  0  0  0  0  0
   -2.6763   -3.2547   -0.7801 H   0  0  0  0  0  0  0  0  0  0  0  0
    0.1499   -3.9459    1.4410 H   0  0  0  0  0  0  0  0  0  0  0  0
    1.5045   -6.0241    1.2594 H   0  0  0  0  0  0  0  0  0  0  0  0
    1.0811   -7.6325   -0.5838 H   0  0  0  0  0  0  0  0  0  0  0  0
   -0.6856   -7.1639   -2.2627 H   0  0  0  0  0  0  0  0  0  0  0  0
   -2.0106   -5.0753   -2.1249 H   0  0  0  0  0  0  0  0  0  0  0  0
   -2.4072    0.2214    1.2823 H   0  0  0  0  0  0  0  0  0  0  0  0
   -3.2374    2.1295    2.5919 H   0  0  0  0  0  0  0  0  0  0  0  0
    0.4165    4.2856    1.7794 H   0  0  0  0  0  0  0  0  0  0  0  0
    1.2568    2.3450    0.4638 H   0  0  0  0  0  0  0  0  0  0  0  0
   -3.1446    3.5174    4.2178 H   0  0  0  0  0  0  0  0  0  0  0  0
   -2.4480    6.5450    4.1869 H   0  0  0  0  0  0  0  0  0  0  0  0
   -1.8593    5.3587    5.3493 H   0  0  0  0  0  0  0  0  0  0  0  0
   -3.5789    5.8018    5.3347 H   0  0  0  0  0  0  0  0  0  0  0  0
   -3.9441    5.7751    2.2289 H   0  0  0  0  0  0  0  0  0  0  0  0
   -5.0792    4.9317    3.2958 H   0  0  0  0  0  0  0  0  0  0  0  0
   -4.2661    4.0624    1.9830 H   0  0  0  0  0  0  0  0  0  0  0  0
  1  2  1  6  0  0  0
  1  7  1  0  0  0  0
  1 16  1  0  0  0  0
  3  1  1  0  0  0  0
  4  3  1  0  0  0  0
  4  6  1  0  0  0  0
  5  4  2  0  0  0  0
  6  9  1  0  0  0  0
  6  7  1  0  0  0  0
  7  8  2  0  0  0  0
 10  9  1  0  0  0  0
 10 11  2  0  0  0  0
 11 29  1  0  0  0  0
 12 11  1  0  0  0  0
 12 30  1  0  0  0  0
 13 12  2  0  0  0  0
 14 15  2  0  0  0  0
 14 13  1  0  0  0  0
 15 10  1  0  0  0  0
 16 21  2  0  0  0  0
 16 17  1  0  0  0  0
 17 18  2  0  0  0  0
 18 19  1  0  0  0  0
 18 35  1  0  0  0  0
 19 22  1  0  0  0  0
 20 36  1  0  0  0  0
 20 19  2  0  0  0  0
 21 20  1  0  0  0  0
 22 23  1  0  0  0  0
 23 38  1  0  0  0  0
 23 24  1  0  0  0  0
 24 41  1  0  0  0  0
 24 40  1  0  0  0  0
 25 43  1  0  0  0  0
 25 23  1  0  0  0  0
 26  3  1  0  0  0  0
 27  3  1  0  0  0  0
 28  9  1  0  0  0  0
 31 13  1  0  0  0  0
 32 14  1  0  0  0  0
 33 15  1  0  0  0  0
 34 17  1  0  0  0  0
 37 21  1  0  0  0  0
 39 24  1  0  0  0  0
 42 25  1  0  0  0  0
 44 25  1  0  0  0  0
M  END
$$$$
