rmsd39.gzmat
 OpenBabel08211713393D

 44 46  0  0  1  0  0  0  0  0999 V2000
    0.0000    0.0000    0.0000 C   0  0  2  0  0  0  0  0  0  0  0  0
    1.1183    0.0000    0.0000 H   0  0  0  0  0  0  0  0  0  0  0  0
   -0.5382    0.0000   -1.4519 C   0  0  0  0  0  0  0  0  0  0  0  0
   -1.3678   -1.2533   -1.5835 C   0  0  0  0  0  0  0  0  0  0  0  0
   -2.0259   -1.6391   -2.5111 O   0  0  0  0  0  0  0  0  0  0  0  0
   -1.2873   -1.9569   -0.3572 N   0  0  0  0  0  0  0  0  0  0  0  0
   -0.4684   -1.3277    0.6170 C   0  0  0  0  0  0  0  0  0  0  0  0
   -0.1878   -1.7774    1.6867 O   0  0  0  0  0  0  0  0  0  0  0  0
   -1.9544   -3.1644   -0.0984 N   0  0  0  0  0  0  0  0  0  0  0  0
   -1.1724   -4.3185   -0.4899 C   0  0  0  0  0  0  0  0  0  0  0  0
   -1.6390   -5.1843   -1.4857 C   0  0  0  0  0  0  0  0  0  0  0  0
   -0.9315   -6.3514   -1.7613 C   0  0  0  0  0  0  0  0  0  0  0  0
    0.2347   -6.6483   -1.0578 C   0  0  0  0  0  0  0  0  0  0  0  0
    0.6931   -5.7813   -0.0665 C   0  0  0  0  0  0  0  0  0  0  0  0
   -0.0069   -4.6147    0.2242 C   0  0  0  0  0  0  0  0  0  0  0  0
   -0.5311    1.1517    0.7915 C   0  0  0  0  0  0  0  0  0  0  0  0
   -1.8774    1.2026    1.1544 C   0  0  0  0  0  0  0  0  0  0  0  0
   -2.3767    2.2745    1.8882 C   0  0  0  0  0  0  0  0  0  0  0  0
   -1.5047    3.3007    2.2571 C   0  0  0  0  0  0  0  0  0  0  0  0
   -0.1454    3.2680    1.8963 C   0  0  0  0  0  0  0  0  0  0  0  0
    0.3307    2.1889    1.1698 C   0  0  0  0  0  0  0  0  0  0  0  0
   -1.8272    4.3967    2.9772 O   0  0  0  0  0  0  0  0  0  0  0  0
   -3.1789    4.5617    3.4381 C   0  0  0  0  0  0  0  0  0  0  0  0
   -3.0151    5.5796    4.5649 C   0  0  0  0  0  0  0  0  0  0  0  0
   -4.0328    5.0958    2.2943 C   0  0  0  0  0  0  0  0  0  0  0  0
    0.2767    0.0107   -2.1997 H   0  0  0  0  0  0  0  0  0  0  0  0
   -1.1495    0.8995   -1.6695 H   0  0  0  0  0  0  0  0  0  0  0  0
   -2.8626   -3.1337   -0.6003 H   0  0  0  0  0  0  0  0  0  0  0  0
   -2.5416   -4.9497   -2.0466 H   0  0  0  0  0  0  0  0  0  0  0  0
   -1.2892   -7.0310   -2.5332 H   0  0  0  0  0  0  0  0  0  0  0  0
    0.7872   -7.5584   -1.2807 H   0  0  0  0  0  0  0  0  0  0  0  0
    1.5987   -6.0200    0.4891 H   0  0  0  0  0  0  0  0  0  0  0  0
    0.3329   -3.9440    1.0166 H   0  0  0  0  0  0  0  0  0  0  0  0
   -2.5519    0.3921    0.8705 H   0  0  0  0  0  0  0  0  0  0  0  0
   -3.4248    2.2937    2.1666 H   0  0  0  0  0  0  0  0  0  0  0  0
    0.5068    4.0833    2.1986 H   0  0  0  0  0  0  0  0  0  0  0  0
    1.3852    2.1503    0.8957 H   0  0  0  0  0  0  0  0  0  0  0  0
   -3.5569    3.5905    3.8258 H   0  0  0  0  0  0  0  0  0  0  0  0
   -2.5572    6.5085    4.2003 H   0  0  0  0  0  0  0  0  0  0  0  0
   -2.3596    5.1917    5.3558 H   0  0  0  0  0  0  0  0  0  0  0  0
   -3.9813    5.8309    5.0140 H   0  0  0  0  0  0  0  0  0  0  0  0
   -3.6230    6.0338    1.8972 H   0  0  0  0  0  0  0  0  0  0  0  0
   -5.0595    5.2930    2.6217 H   0  0  0  0  0  0  0  0  0  0  0  0
   -4.0757    4.3922    1.4541 H   0  0  0  0  0  0  0  0  0  0  0  0
  1  2  1  6  0  0  0
  1  7  1  0  0  0  0
  1 16  1  0  0  0  0
  3  1  1  0  0  0  0
  4  3  1  0  0  0  0
  4  6  1  0  0  0  0
  5  4  2  0  0  0  0
  6  9  1  0  0  0  0
  6  7  1  0  0  0  0
  7  8  2  0  0  0  0
 10  9  1  0  0  0  0
 10 15  2  0  0  0  0
 11 10  1  0  0  0  0
 12 11  2  0  0  0  0
 12 13  1  0  0  0  0
 13 14  2  0  0  0  0
 14 15  1  0  0  0  0
 14 32  1  0  0  0  0
 15 33  1  0  0  0  0
 16 17  2  0  0  0  0
 16 21  1  0  0  0  0
 17 18  1  0  0  0  0
 18 35  1  0  0  0  0
 18 19  2  0  0  0  0
 19 22  1  0  0  0  0
 20 36  1  0  0  0  0
 20 19  1  0  0  0  0
 21 20  2  0  0  0  0
 22 23  1  0  0  0  0
 23 38  1  0  0  0  0
 23 24  1  0  0  0  0
 24 41  1  0  0  0  0
 24 40  1  0  0  0  0
 25 43  1  0  0  0  0
 25 23  1  0  0  0  0
 26  3  1  0  0  0  0
 27  3  1  0  0  0  0
 28  9  1  0  0  0  0
 29 11  1  0  0  0  0
 30 12  1  0  0  0  0
 31 13  1  0  0  0  0
 34 17  1  0  0  0  0
 37 21  1  0  0  0  0
 39 24  1  0  0  0  0
 42 25  1  0  0  0  0
 44 25  1  0  0  0  0
M  END
$$$$
