rmsd61.gzmat
 OpenBabel08211713393D

 44 46  0  0  1  0  0  0  0  0999 V2000
    0.0000    0.0000    0.0000 C   0  0  2  0  0  0  0  0  0  0  0  0
    1.1192    0.0000    0.0000 H   0  0  0  0  0  0  0  0  0  0  0  0
   -0.5341    0.0000   -1.4533 C   0  0  0  0  0  0  0  0  0  0  0  0
   -1.2899   -1.2953   -1.6171 C   0  0  0  0  0  0  0  0  0  0  0  0
   -1.8943   -1.7118   -2.5671 O   0  0  0  0  0  0  0  0  0  0  0  0
   -1.2137   -1.9973   -0.3886 N   0  0  0  0  0  0  0  0  0  0  0  0
   -0.4590   -1.3310    0.6146 C   0  0  0  0  0  0  0  0  0  0  0  0
   -0.2184   -1.7602    1.7019 O   0  0  0  0  0  0  0  0  0  0  0  0
   -1.7926   -3.2526   -0.1638 N   0  0  0  0  0  0  0  0  0  0  0  0
   -0.9585   -4.3521   -0.5817 C   0  0  0  0  0  0  0  0  0  0  0  0
    0.3665   -4.4405   -0.1386 C   0  0  0  0  0  0  0  0  0  0  0  0
    1.1159   -5.5718   -0.4449 C   0  0  0  0  0  0  0  0  0  0  0  0
    0.5528   -6.6128   -1.1818 C   0  0  0  0  0  0  0  0  0  0  0  0
   -0.7702   -6.5246   -1.6123 C   0  0  0  0  0  0  0  0  0  0  0  0
   -1.5305   -5.3955   -1.3222 C   0  0  0  0  0  0  0  0  0  0  0  0
   -0.5267    1.1563    0.7864 C   0  0  0  0  0  0  0  0  0  0  0  0
   -1.8624    1.1972    1.1880 C   0  0  0  0  0  0  0  0  0  0  0  0
   -2.3549    2.2816    1.9082 C   0  0  0  0  0  0  0  0  0  0  0  0
   -1.4863    3.3282    2.2254 C   0  0  0  0  0  0  0  0  0  0  0  0
   -0.1369    3.3028    1.8294 C   0  0  0  0  0  0  0  0  0  0  0  0
    0.3316    2.2135    1.1134 C   0  0  0  0  0  0  0  0  0  0  0  0
   -1.8170    4.4586    2.8876 O   0  0  0  0  0  0  0  0  0  0  0  0
   -3.0846    4.5277    3.5629 C   0  0  0  0  0  0  0  0  0  0  0  0
   -3.0264    3.6655    4.8175 C   0  0  0  0  0  0  0  0  0  0  0  0
   -3.1980    6.0164    3.8828 C   0  0  0  0  0  0  0  0  0  0  0  0
    0.2794    0.0771   -2.1987 H   0  0  0  0  0  0  0  0  0  0  0  0
   -1.1978    0.8666   -1.6511 H   0  0  0  0  0  0  0  0  0  0  0  0
   -2.7184   -3.2650   -0.6312 H   0  0  0  0  0  0  0  0  0  0  0  0
    0.7983   -3.6432    0.4646 H   0  0  0  0  0  0  0  0  0  0  0  0
    2.1459   -5.6455   -0.0990 H   0  0  0  0  0  0  0  0  0  0  0  0
    1.1448   -7.4936   -1.4185 H   0  0  0  0  0  0  0  0  0  0  0  0
   -1.2102   -7.3395   -2.1858 H   0  0  0  0  0  0  0  0  0  0  0  0
   -2.5576   -5.3278   -1.6736 H   0  0  0  0  0  0  0  0  0  0  0  0
   -2.5331    0.3706    0.9452 H   0  0  0  0  0  0  0  0  0  0  0  0
   -3.3967    2.3007    2.2096 H   0  0  0  0  0  0  0  0  0  0  0  0
    0.5136    4.1315    2.0960 H   0  0  0  0  0  0  0  0  0  0  0  0
    1.3780    2.1822    0.8092 H   0  0  0  0  0  0  0  0  0  0  0  0
   -3.8879    4.2034    2.8665 H   0  0  0  0  0  0  0  0  0  0  0  0
   -2.1658    3.9380    5.4435 H   0  0  0  0  0  0  0  0  0  0  0  0
   -2.9154    2.6006    4.5762 H   0  0  0  0  0  0  0  0  0  0  0  0
   -3.9300    3.7794    5.4257 H   0  0  0  0  0  0  0  0  0  0  0  0
   -2.3762    6.3501    4.5298 H   0  0  0  0  0  0  0  0  0  0  0  0
   -4.1418    6.2404    4.3905 H   0  0  0  0  0  0  0  0  0  0  0  0
   -3.1482    6.6217    2.9682 H   0  0  0  0  0  0  0  0  0  0  0  0
  1  2  1  6  0  0  0
  1  7  1  0  0  0  0
  1 16  1  0  0  0  0
  3  1  1  0  0  0  0
  4  3  1  0  0  0  0
  4  6  1  0  0  0  0
  5  4  2  0  0  0  0
  6  9  1  0  0  0  0
  6  7  1  0  0  0  0
  7  8  2  0  0  0  0
 10  9  1  0  0  0  0
 10 11  2  0  0  0  0
 11 29  1  0  0  0  0
 12 11  1  0  0  0  0
 12 30  1  0  0  0  0
 13 12  2  0  0  0  0
 14 15  2  0  0  0  0
 14 13  1  0  0  0  0
 15 10  1  0  0  0  0
 16 21  2  0  0  0  0
 16 17  1  0  0  0  0
 17 18  2  0  0  0  0
 18 35  1  0  0  0  0
 18 19  1  0  0  0  0
 19 22  1  0  0  0  0
 20 36  1  0  0  0  0
 20 19  2  0  0  0  0
 21 20  1  0  0  0  0
 22 23  1  0  0  0  0
 23 25  1  0  0  0  0
 23 24  1  0  0  0  0
 24 41  1  0  0  0  0
 24 39  1  0  0  0  0
 25 43  1  0  0  0  0
 25 42  1  0  0  0  0
 26  3  1  0  0  0  0
 27  3  1  0  0  0  0
 28  9  1  0  0  0  0
 31 13  1  0  0  0  0
 32 14  1  0  0  0  0
 33 15  1  0  0  0  0
 34 17  1  0  0  0  0
 37 21  1  0  0  0  0
 38 23  1  0  0  0  0
 40 24  1  0  0  0  0
 44 25  1  0  0  0  0
M  END
$$$$
