
     RDKit          3D

 44 46  0  0  0  0  0  0  0  0999 V2000
    0.2060    0.1868   -0.2906 C   0  0  2  0  0  0  0  0  0  0  0  0
    1.2934    0.3444   -0.2916 H   0  0  0  0  0  0  0  0  0  0  0  0
   -0.3394   -0.1195   -1.6980 C   0  0  0  0  0  0  0  0  0  0  0  0
   -1.2237   -1.3408   -1.5334 C   0  0  0  0  0  0  0  0  0  0  0  0
   -2.0238   -1.8153   -2.2982 O   0  0  0  0  0  0  0  0  0  0  0  0
   -0.9457   -1.8709   -0.2645 N   0  0  0  0  0  0  0  0  0  0  0  0
   -0.0690   -1.0968    0.5117 C   0  0  0  0  0  0  0  0  0  0  0  0
    0.3519   -1.3932    1.5953 O   0  0  0  0  0  0  0  0  0  0  0  0
   -1.5203   -3.0353    0.1873 N   0  0  0  0  0  0  0  0  0  0  0  0
   -0.9405   -4.2571   -0.2069 C   0  0  0  0  0  0  0  0  0  0  0  0
   -1.7346   -5.4148   -0.2099 C   0  0  0  0  0  0  0  0  0  0  0  0
   -1.1760   -6.6475   -0.5428 C   0  0  0  0  0  0  0  0  0  0  0  0
    0.1773   -6.7476   -0.8807 C   0  0  0  0  0  0  0  0  0  0  0  0
    0.9649   -5.5940   -0.8763 C   0  0  0  0  0  0  0  0  0  0  0  0
    0.4180   -4.3544   -0.5399 C   0  0  0  0  0  0  0  0  0  0  0  0
   -0.4561    1.3485    0.4270 C   0  0  0  0  0  0  0  0  0  0  0  0
    0.2726    2.1191    1.3369 C   0  0  0  0  0  0  0  0  0  0  0  0
   -0.3209    3.1567    2.0605 C   0  0  0  0  0  0  0  0  0  0  0  0
   -1.6857    3.4364    1.8891 C   0  0  0  0  0  0  0  0  0  0  0  0
   -2.4287    2.6614    0.9815 C   0  0  0  0  0  0  0  0  0  0  0  0
   -1.8227    1.6334    0.2686 C   0  0  0  0  0  0  0  0  0  0  0  0
   -2.3739    4.4010    2.5432 O   0  0  0  0  0  0  0  0  0  0  0  0
   -1.7187    5.2968    3.4481 C   0  0  0  0  0  0  0  0  0  0  0  0
   -0.9758    6.3863    2.6805 C   0  0  0  0  0  0  0  0  0  0  0  0
   -2.8101    5.8531    4.3495 C   0  0  0  0  0  0  0  0  0  0  0  0
    0.4686   -0.3963   -2.3943 H   0  0  0  0  0  0  0  0  0  0  0  0
   -0.8984    0.7051   -2.1589 H   0  0  0  0  0  0  0  0  0  0  0  0
   -2.5313   -3.0042    0.0874 H   0  0  0  0  0  0  0  0  0  0  0  0
   -2.7947   -5.3425    0.0479 H   0  0  0  0  0  0  0  0  0  0  0  0
   -1.8088   -7.5384   -0.5438 H   0  0  0  0  0  0  0  0  0  0  0  0
    0.6119   -7.7140   -1.1440 H   0  0  0  0  0  0  0  0  0  0  0  0
    2.0252   -5.6550   -1.1339 H   0  0  0  0  0  0  0  0  0  0  0  0
    1.0494   -3.4657   -0.5231 H   0  0  0  0  0  0  0  0  0  0  0  0
    1.3333    1.9069    1.4908 H   0  0  0  0  0  0  0  0  0  0  0  0
    0.2906    3.7352    2.7515 H   0  0  0  0  0  0  0  0  0  0  0  0
   -3.4894    2.8872    0.8591 H   0  0  0  0  0  0  0  0  0  0  0  0
   -2.4351    1.0473   -0.4214 H   0  0  0  0  0  0  0  0  0  0  0  0
   -1.0067    4.7214    4.0670 H   0  0  0  0  0  0  0  0  0  0  0  0
   -1.6867    6.9700    2.0750 H   0  0  0  0  0  0  0  0  0  0  0  0
   -0.2188    5.9627    2.0047 H   0  0  0  0  0  0  0  0  0  0  0  0
   -0.4683    7.0704    3.3782 H   0  0  0  0  0  0  0  0  0  0  0  0
   -3.5556    6.3997    3.7513 H   0  0  0  0  0  0  0  0  0  0  0  0
   -2.3819    6.5439    5.0915 H   0  0  0  0  0  0  0  0  0  0  0  0
   -3.3238    5.0387    4.8809 H   0  0  0  0  0  0  0  0  0  0  0  0
  1  2  1  6
  1  3  1  0
  1  7  1  0
  1 16  1  0
  3  4  1  0
  3 26  1  0
  3 27  1  0
  4  5  2  0
  4  6  1  0
  6  7  1  0
  6  9  1  0
  7  8  2  0
  9 10  1  0
  9 28  1  0
 10 11  2  0
 10 15  1  0
 11 12  1  0
 11 29  1  0
 12 13  2  0
 12 30  1  0
 13 14  1  0
 13 31  1  0
 14 15  2  0
 14 32  1  0
 15 33  1  0
 16 17  2  0
 16 21  1  0
 17 18  1  0
 17 34  1  0
 18 19  2  0
 18 35  1  0
 19 20  1  0
 19 22  1  0
 20 21  2  0
 20 36  1  0
 21 37  1  0
 22 23  1  0
 23 24  1  0
 23 25  1  0
 23 38  1  0
 24 39  1  0
 24 40  1  0
 24 41  1  0
 25 42  1  0
 25 43  1  0
 25 44  1  0
M  END

