44
rmsd175.gzmat
C          0.00000        0.00000        0.00000
H          1.11840        0.00000        0.00000
C         -0.53810        0.00000       -1.45170
C         -1.37270       -1.25020       -1.58260
O         -2.03660       -1.63140       -2.50730
N         -1.28740       -1.95660       -0.35730
C         -0.46810       -1.32720        0.61800
O         -0.19070       -1.77700        1.68820
N         -1.92790       -3.17750       -0.10630
C         -1.16090       -4.31910       -0.54600
C          0.13430       -4.51630       -0.05410
C          0.82110       -5.67980       -0.38510
C          0.22250       -6.64610       -1.19260
C         -1.07260       -6.45060       -1.66940
C         -1.76850       -5.28640       -1.35640
C         -0.53160        1.15200        0.79060
C         -1.87890        1.20370        1.15070
C         -2.37820        2.27410        1.88610
C         -1.50530        3.29910        2.25740
C         -0.14600        3.26610        1.89780
C          0.32990        2.18860        1.16860
O         -1.83900        4.41260        2.94570
C         -3.13620        4.49160        3.56160
C         -3.15510        3.59830        4.79530
C         -3.23560        5.97450        3.91320
H          0.27710        0.00540       -2.19950
H         -1.14430        0.90250       -1.67170
H         -2.86350       -3.14340       -0.55340
H          0.58890       -3.77640        0.60460
H          1.82900       -5.83760       -0.00360
H          0.76560       -7.55320       -1.44810
H         -1.54190       -7.20850       -2.29500
H         -2.77310       -5.13290       -1.74470
H         -2.55390        0.39500        0.86260
H         -3.42780        2.29810        2.15930
H          0.50660        4.08010        2.20160
H          1.38430        2.15050        0.89430
H         -3.91130        4.20200        2.81940
H         -2.31850        3.83440        5.46700
H         -3.05700        2.53720        4.53280
H         -4.08310        3.71930        5.36390
H         -2.44490        6.27290        4.61390
H         -4.20160        6.20790        4.37210
H         -3.12120        6.60090        3.01850
