rmsd226.gzmat
 OpenBabel08211713393D

 44 46  0  0  1  0  0  0  0  0999 V2000
    0.0000    0.0000    0.0000 C   0  0  2  0  0  0  0  0  0  0  0  0
    1.1195    0.0000    0.0000 H   0  0  0  0  0  0  0  0  0  0  0  0
   -0.5391    0.0000   -1.4519 C   0  0  0  0  0  0  0  0  0  0  0  0
   -1.3166   -1.2838   -1.6055 C   0  0  0  0  0  0  0  0  0  0  0  0
   -1.9521   -1.6854   -2.5416 O   0  0  0  0  0  0  0  0  0  0  0  0
   -1.2127   -1.9991   -0.3867 N   0  0  0  0  0  0  0  0  0  0  0  0
   -0.4573   -1.3315    0.6139 C   0  0  0  0  0  0  0  0  0  0  0  0
   -0.2068   -1.7646    1.6978 O   0  0  0  0  0  0  0  0  0  0  0  0
   -1.8544   -3.2199   -0.1375 N   0  0  0  0  0  0  0  0  0  0  0  0
   -1.0631   -4.3704   -0.4987 C   0  0  0  0  0  0  0  0  0  0  0  0
    0.2413   -4.5141   -0.0123 C   0  0  0  0  0  0  0  0  0  0  0  0
    0.9351   -5.6954   -0.2547 C   0  0  0  0  0  0  0  0  0  0  0  0
    0.3381   -6.7299   -0.9738 C   0  0  0  0  0  0  0  0  0  0  0  0
   -0.9631   -6.5840   -1.4522 C   0  0  0  0  0  0  0  0  0  0  0  0
   -1.6672   -5.4051   -1.2253 C   0  0  0  0  0  0  0  0  0  0  0  0
   -0.5212    1.1642    0.7802 C   0  0  0  0  0  0  0  0  0  0  0  0
   -1.7901    1.1340    1.3582 C   0  0  0  0  0  0  0  0  0  0  0  0
   -2.2696    2.2245    2.0786 C   0  0  0  0  0  0  0  0  0  0  0  0
   -1.4581    3.3527    2.2119 C   0  0  0  0  0  0  0  0  0  0  0  0
   -0.1799    3.4046    1.6264 C   0  0  0  0  0  0  0  0  0  0  0  0
    0.2783    2.3063    0.9180 C   0  0  0  0  0  0  0  0  0  0  0  0
   -1.7835    4.4921    2.8611 O   0  0  0  0  0  0  0  0  0  0  0  0
   -2.9740    4.5219    3.6675 C   0  0  0  0  0  0  0  0  0  0  0  0
   -2.7319    3.7313    4.9467 C   0  0  0  0  0  0  0  0  0  0  0  0
   -3.1474    6.0156    3.9333 C   0  0  0  0  0  0  0  0  0  0  0  0
    0.2733    0.0591   -2.2004 H   0  0  0  0  0  0  0  0  0  0  0  0
   -1.1898    0.8762   -1.6528 H   0  0  0  0  0  0  0  0  0  0  0  0
   -2.7654   -3.2063   -0.6338 H   0  0  0  0  0  0  0  0  0  0  0  0
    0.6998   -3.7180    0.5733 H   0  0  0  0  0  0  0  0  0  0  0  0
    1.9484   -5.8130    0.1269 H   0  0  0  0  0  0  0  0  0  0  0  0
    0.8868   -7.6501   -1.1609 H   0  0  0  0  0  0  0  0  0  0  0  0
   -1.4307   -7.3934   -2.0114 H   0  0  0  0  0  0  0  0  0  0  0  0
   -2.6765   -5.2929   -1.6148 H   0  0  0  0  0  0  0  0  0  0  0  0
   -2.4199    0.2474    1.2583 H   0  0  0  0  0  0  0  0  0  0  0  0
   -3.2578    2.1820    2.5245 H   0  0  0  0  0  0  0  0  0  0  0  0
    0.4257    4.2988    1.7467 H   0  0  0  0  0  0  0  0  0  0  0  0
    1.2710    2.3344    0.4688 H   0  0  0  0  0  0  0  0  0  0  0  0
   -3.8230    4.1179    3.0751 H   0  0  0  0  0  0  0  0  0  0  0  0
   -1.8212    4.0742    5.4563 H   0  0  0  0  0  0  0  0  0  0  0  0
   -2.5962    2.6609    4.7476 H   0  0  0  0  0  0  0  0  0  0  0  0
   -3.5661    3.8388    5.6485 H   0  0  0  0  0  0  0  0  0  0  0  0
   -2.3254    6.4129    4.5424 H   0  0  0  0  0  0  0  0  0  0  0  0
   -4.0866    6.2156    4.4592 H   0  0  0  0  0  0  0  0  0  0  0  0
   -3.1512    6.5858    2.9947 H   0  0  0  0  0  0  0  0  0  0  0  0
  1  2  1  6  0  0  0
  1  7  1  0  0  0  0
  1 16  1  0  0  0  0
  3  1  1  0  0  0  0
  4  3  1  0  0  0  0
  4  6  1  0  0  0  0
  5  4  2  0  0  0  0
  6  9  1  0  0  0  0
  6  7  1  0  0  0  0
  7  8  2  0  0  0  0
 10  9  1  0  0  0  0
 10 11  2  0  0  0  0
 11 29  1  0  0  0  0
 12 11  1  0  0  0  0
 12 30  1  0  0  0  0
 13 12  2  0  0  0  0
 14 15  2  0  0  0  0
 14 13  1  0  0  0  0
 15 10  1  0  0  0  0
 16 21  2  0  0  0  0
 16 17  1  0  0  0  0
 17 18  2  0  0  0  0
 18 19  1  0  0  0  0
 18 35  1  0  0  0  0
 19 22  1  0  0  0  0
 20 36  1  0  0  0  0
 20 19  2  0  0  0  0
 21 20  1  0  0  0  0
 22 23  1  0  0  0  0
 23 25  1  0  0  0  0
 23 24  1  0  0  0  0
 24 39  1  0  0  0  0
 24 41  1  0  0  0  0
 25 43  1  0  0  0  0
 25 42  1  0  0  0  0
 26  3  1  0  0  0  0
 27  3  1  0  0  0  0
 28  9  1  0  0  0  0
 31 13  1  0  0  0  0
 32 14  1  0  0  0  0
 33 15  1  0  0  0  0
 34 17  1  0  0  0  0
 37 21  1  0  0  0  0
 38 23  1  0  0  0  0
 40 24  1  0  0  0  0
 44 25  1  0  0  0  0
M  END
$$$$
