30

Cl        -0.18550        0.16250       -0.09510
C          1.55350        0.03770       -0.04590
C          2.16550       -0.81040        0.87870
C          3.55550       -0.91640        0.92510
C          4.34480       -0.16600        0.03710
N          5.74330       -0.19010       -0.00920
C          6.68540       -0.84340        0.67660
S          6.47310       -1.93870        1.92050
C          8.10600       -0.47110        0.18280
S          8.31830        0.62440       -1.06080
N          9.04810       -1.12470        0.86840
C         10.44660       -1.14880        0.82210
C         11.23590       -0.39850       -0.06590
C         12.62590       -0.50450       -0.01950
C         13.23790       -1.35260        0.90500
C         12.46380       -2.10540        1.79500
C         11.07920       -2.00080        1.74980
Cl        14.97690       -1.47740        0.95420
C          3.71220        0.68590       -0.89070
C          2.32760        0.79050       -0.93580
H          1.55100       -1.39210        1.56710
H          4.03010       -1.57710        1.64560
H          6.17220        0.42390       -0.72310
H          8.61910       -1.73880        1.58210
H         10.76130        0.26230       -0.78640
H         13.24040        0.07720       -0.70800
H         12.94850       -2.76600        2.51460
H         10.47090       -2.58710        2.44330
H          4.32040        1.27230       -1.58410
H          1.84280        1.45110       -1.65550
