30
rmsd127.gzmat
Cl         0.00000        0.00000        0.00000
C          1.70840        0.00000        0.00000
C          2.37320        0.00000        1.22030
C          3.76580       -0.00850        1.22220
C          4.44890       -0.00890        0.00110
N          5.88040       -0.06310       -0.02600
C          6.64720        0.96110        0.41330
S          6.08700        2.32860        1.14260
C          8.12510        0.80670        0.18460
S          8.66420        0.33330       -1.29990
N          8.91570        1.09150        1.24380
C         10.34550        1.08080        1.14270
C         11.02490       -0.13270        0.98600
C         12.41630       -0.12780        0.93130
C         13.08330        1.08680        1.03990
C         12.42210        2.29930        1.19640
C         11.03100        2.29750        1.24590
Cl        14.79070        1.08840        0.97620
C          3.76430       -0.00280       -1.22100
C          2.37290       -0.00170       -1.22080
H          1.82350        0.01040        2.16290
H          4.31230       -0.01350        2.16650
H          6.28500       -0.82120       -0.58420
H          8.53170        1.51140        2.09520
H         10.47520       -1.07130        0.90300
H         12.96340       -1.06290        0.80090
H         12.97440        3.23770        1.27220
H         10.48220        3.23500        1.34880
H          4.31430        0.01320       -2.16330
H          1.82220        0.00320       -2.16280
