30
rmsd161.gzmat
Cl         0.00000        0.00000        0.00000
C          1.70850        0.00000        0.00000
C          2.37330        0.00000        1.22080
C          3.76510       -0.00960        1.22060
C          4.44820       -0.01360       -0.00170
N          5.88280        0.00450        0.01640
C          6.60290       -1.09320       -0.30760
S          5.96810       -2.49740       -0.89570
C          8.08660       -0.99850       -0.08580
S          8.64140       -0.40690        1.34930
N          8.85920       -1.44130       -1.10440
C         10.28190       -1.56350       -0.98650
C         10.84190       -2.84610       -1.05970
C         12.22410       -2.99020       -0.99230
C         13.00460       -1.84890       -0.84790
C         12.46480       -0.57070       -0.77470
C         11.08160       -0.42370       -0.84900
Cl        14.70140       -2.02680       -0.76030
C          3.76550       -0.00890       -1.22290
C          2.37260       -0.00340       -1.22060
H          1.82340       -0.00210        2.16340
H          4.31600       -0.03010        2.16250
H          6.31440        0.80560        0.48470
H          8.44110       -1.90910       -1.91500
H         10.20160       -3.72480       -1.15400
H         12.67810       -3.98130       -1.04750
H         13.10330        0.30670       -0.65700
H         10.63350        0.56990       -0.79950
H          4.31270       -0.01890       -2.16630
H          1.82320       -0.00770       -2.16310
