
     RDKit          3D

 30 31  0  0  0  0  0  0  0  0999 V2000
   -0.1855    0.1625   -0.0951 Cl  0  0  0  0  0  0  0  0  0  0  0  0
    1.5535    0.0377   -0.0459 C   0  0  0  0  0  0  0  0  0  0  0  0
    2.1655   -0.8104    0.8787 C   0  0  0  0  0  0  0  0  0  0  0  0
    3.5555   -0.9164    0.9251 C   0  0  0  0  0  0  0  0  0  0  0  0
    4.3448   -0.1660    0.0371 C   0  0  0  0  0  0  0  0  0  0  0  0
    5.7433   -0.1901   -0.0092 N   0  0  0  0  0  0  0  0  0  0  0  0
    6.6854   -0.8434    0.6766 C   0  0  0  0  0  0  0  0  0  0  0  0
    6.4731   -1.9387    1.9205 S   0  0  0  0  0  0  0  0  0  0  0  0
    8.1060   -0.4711    0.1828 C   0  0  0  0  0  0  0  0  0  0  0  0
    8.3183    0.6244   -1.0608 S   0  0  0  0  0  0  0  0  0  0  0  0
    9.0481   -1.1247    0.8684 N   0  0  0  0  0  0  0  0  0  0  0  0
   10.4466   -1.1488    0.8221 C   0  0  0  0  0  0  0  0  0  0  0  0
   11.2359   -0.3985   -0.0659 C   0  0  0  0  0  0  0  0  0  0  0  0
   12.6259   -0.5045   -0.0195 C   0  0  0  0  0  0  0  0  0  0  0  0
   13.2379   -1.3526    0.9050 C   0  0  0  0  0  0  0  0  0  0  0  0
   12.4638   -2.1054    1.7950 C   0  0  0  0  0  0  0  0  0  0  0  0
   11.0792   -2.0008    1.7498 C   0  0  0  0  0  0  0  0  0  0  0  0
   14.9769   -1.4774    0.9542 Cl  0  0  0  0  0  0  0  0  0  0  0  0
    3.7122    0.6859   -0.8907 C   0  0  0  0  0  0  0  0  0  0  0  0
    2.3276    0.7905   -0.9358 C   0  0  0  0  0  0  0  0  0  0  0  0
    1.5510   -1.3921    1.5671 H   0  0  0  0  0  0  0  0  0  0  0  0
    4.0301   -1.5771    1.6456 H   0  0  0  0  0  0  0  0  0  0  0  0
    6.1722    0.4239   -0.7231 H   0  0  0  0  0  0  0  0  0  0  0  0
    8.6191   -1.7388    1.5821 H   0  0  0  0  0  0  0  0  0  0  0  0
   10.7613    0.2623   -0.7864 H   0  0  0  0  0  0  0  0  0  0  0  0
   13.2404    0.0772   -0.7080 H   0  0  0  0  0  0  0  0  0  0  0  0
   12.9485   -2.7660    2.5146 H   0  0  0  0  0  0  0  0  0  0  0  0
   10.4709   -2.5871    2.4433 H   0  0  0  0  0  0  0  0  0  0  0  0
    4.3204    1.2723   -1.5841 H   0  0  0  0  0  0  0  0  0  0  0  0
    1.8428    1.4511   -1.6555 H   0  0  0  0  0  0  0  0  0  0  0  0
  1  2  1  0
  2  3  2  0
  2 20  1  0
  3  4  1  0
  3 21  1  0
  4  5  2  0
  4 22  1  0
  5  6  1  0
  5 19  1  0
  6  7  1  0
  6 23  1  0
  7  8  2  0
  7  9  1  0
  9 10  2  0
  9 11  1  0
 11 12  1  0
 11 24  1  0
 12 13  2  0
 12 17  1  0
 13 14  1  0
 13 25  1  0
 14 15  2  0
 14 26  1  0
 15 16  1  0
 15 18  1  0
 16 17  2  0
 16 27  1  0
 17 28  1  0
 19 20  2  0
 19 29  1  0
 20 30  1  0
M  END

