rmsd238.gzmat
 OpenBabel08211713383D

 30 31  0  0  0  0  0  0  0  0999 V2000
    0.0000    0.0000    0.0000 Cl  0  0  0  0  0  0  0  0  0  0  0  0
    1.7083    0.0000    0.0000 C   0  0  0  0  0  0  0  0  0  0  0  0
    2.3723    0.0000    1.2209 C   0  0  0  0  0  0  0  0  0  0  0  0
    3.7650   -0.0021    1.2233 C   0  0  0  0  0  0  0  0  0  0  0  0
    4.4481   -0.0059    0.0021 C   0  0  0  0  0  0  0  0  0  0  0  0
    5.8814    0.0291   -0.0170 N   0  0  0  0  0  0  0  0  0  0  0  0
    6.6221   -1.0414    0.3463 C   0  0  0  0  0  0  0  0  0  0  0  0
    6.0137   -2.4505    0.9509 S   0  0  0  0  0  0  0  0  0  0  0  0
    8.1051   -0.9058    0.1535 C   0  0  0  0  0  0  0  0  0  0  0  0
    8.6930   -0.2424   -1.2396 S   0  0  0  0  0  0  0  0  0  0  0  0
    8.8793   -1.3594    1.1631 N   0  0  0  0  0  0  0  0  0  0  0  0
   10.3090   -1.3977    1.0298 C   0  0  0  0  0  0  0  0  0  0  0  0
   11.0543   -0.2582    1.3493 C   0  0  0  0  0  0  0  0  0  0  0  0
   12.4424   -0.3079    1.2486 C   0  0  0  0  0  0  0  0  0  0  0  0
   13.0365   -1.4919    0.8276 C   0  0  0  0  0  0  0  0  0  0  0  0
   12.3076   -2.6300    0.5028 C   0  0  0  0  0  0  0  0  0  0  0  0
   10.9200   -2.5829    0.6044 C   0  0  0  0  0  0  0  0  0  0  0  0
   14.7393   -1.5477    0.6987 Cl  0  0  0  0  0  0  0  0  0  0  0  0
    3.7652   -0.0067   -1.2203 C   0  0  0  0  0  0  0  0  0  0  0  0
    2.3733   -0.0021   -1.2206 C   0  0  0  0  0  0  0  0  0  0  0  0
    1.8223   -0.0049    2.1633 H   0  0  0  0  0  0  0  0  0  0  0  0
    4.3127   -0.0075    2.1670 H   0  0  0  0  0  0  0  0  0  0  0  0
    6.3037    0.8299   -0.4969 H   0  0  0  0  0  0  0  0  0  0  0  0
    8.4866   -1.8532    1.9684 H   0  0  0  0  0  0  0  0  0  0  0  0
   10.5555    0.6590    1.6635 H   0  0  0  0  0  0  0  0  0  0  0  0
   13.0425    0.5703    1.4903 H   0  0  0  0  0  0  0  0  0  0  0  0
   12.8032   -3.5421    0.1663 H   0  0  0  0  0  0  0  0  0  0  0  0
   10.3167   -3.4542    0.3423 H   0  0  0  0  0  0  0  0  0  0  0  0
    4.3165   -0.0248   -2.1619 H   0  0  0  0  0  0  0  0  0  0  0  0
    1.8236   -0.0078   -2.1631 H   0  0  0  0  0  0  0  0  0  0  0  0
  1  2  1  0  0  0  0
  2  3  2  0  0  0  0
  3  4  1  0  0  0  0
  3 21  1  0  0  0  0
  4 22  1  0  0  0  0
  5  4  2  0  0  0  0
  6  5  1  0  0  0  0
  6  7  1  0  0  0  0
  7  8  2  0  0  0  0
  9  7  1  0  0  0  0
  9 11  1  0  0  0  0
 10  9  2  0  0  0  0
 11 24  1  0  0  0  0
 12 11  1  0  0  0  0
 12 13  2  0  0  0  0
 13 25  1  0  0  0  0
 14 13  1  0  0  0  0
 14 26  1  0  0  0  0
 15 14  2  0  0  0  0
 16 17  2  0  0  0  0
 16 15  1  0  0  0  0
 17 12  1  0  0  0  0
 18 15  1  0  0  0  0
 19  5  1  0  0  0  0
 20 19  2  0  0  0  0
 20  2  1  0  0  0  0
 23  6  1  0  0  0  0
 27 16  1  0  0  0  0
 28 17  1  0  0  0  0
 29 19  1  0  0  0  0
 30 20  1  0  0  0  0
M  END
$$$$
