rmsd219.gzmat
 OpenBabel08211713383D

 30 31  0  0  0  0  0  0  0  0999 V2000
    0.0000    0.0000    0.0000 Cl  0  0  0  0  0  0  0  0  0  0  0  0
    1.7088    0.0000    0.0000 C   0  0  0  0  0  0  0  0  0  0  0  0
    2.3718    0.0000    1.2217 C   0  0  0  0  0  0  0  0  0  0  0  0
    3.7643    0.0088    1.2229 C   0  0  0  0  0  0  0  0  0  0  0  0
    4.4444    0.0095    0.0006 C   0  0  0  0  0  0  0  0  0  0  0  0
    5.8808   -0.0045    0.0096 N   0  0  0  0  0  0  0  0  0  0  0  0
    6.5764    1.1510   -0.0290 C   0  0  0  0  0  0  0  0  0  0  0  0
    5.8757    2.6477   -0.0068 S   0  0  0  0  0  0  0  0  0  0  0  0
    8.0700    1.0251   -0.1018 C   0  0  0  0  0  0  0  0  0  0  0  0
    8.7478   -0.1441   -1.0509 S   0  0  0  0  0  0  0  0  0  0  0  0
    8.7739    1.9122    0.6344 N   0  0  0  0  0  0  0  0  0  0  0  0
   10.2055    1.9720    0.5496 C   0  0  0  0  0  0  0  0  0  0  0  0
   10.7923    2.9884   -0.2132 C   0  0  0  0  0  0  0  0  0  0  0  0
   12.1803    3.0696   -0.2799 C   0  0  0  0  0  0  0  0  0  0  0  0
   12.9342    2.1349    0.4202 C   0  0  0  0  0  0  0  0  0  0  0  0
   12.3654    1.1216    1.1823 C   0  0  0  0  0  0  0  0  0  0  0  0
   10.9767    1.0356    1.2464 C   0  0  0  0  0  0  0  0  0  0  0  0
   14.6378    2.2337    0.3371 Cl  0  0  0  0  0  0  0  0  0  0  0  0
    3.7649    0.0096   -1.2224 C   0  0  0  0  0  0  0  0  0  0  0  0
    2.3726    0.0043   -1.2215 C   0  0  0  0  0  0  0  0  0  0  0  0
    1.8215    0.0010    2.1635 H   0  0  0  0  0  0  0  0  0  0  0  0
    4.3178    0.0269    2.1623 H   0  0  0  0  0  0  0  0  0  0  0  0
    6.3295   -0.9171   -0.0976 H   0  0  0  0  0  0  0  0  0  0  0  0
    8.3185    2.6846    1.1293 H   0  0  0  0  0  0  0  0  0  0  0  0
   10.1703    3.6991   -0.7601 H   0  0  0  0  0  0  0  0  0  0  0  0
   12.6584    3.8475   -0.8776 H   0  0  0  0  0  0  0  0  0  0  0  0
   12.9859    0.4002    1.7161 H   0  0  0  0  0  0  0  0  0  0  0  0
   10.4987    0.2430    1.8238 H   0  0  0  0  0  0  0  0  0  0  0  0
    4.3188    0.0286   -2.1630 H   0  0  0  0  0  0  0  0  0  0  0  0
    1.8216    0.0126   -2.1636 H   0  0  0  0  0  0  0  0  0  0  0  0
  1  2  1  0  0  0  0
  2  3  2  0  0  0  0
  3  4  1  0  0  0  0
  3 21  1  0  0  0  0
  4 22  1  0  0  0  0
  5  6  1  0  0  0  0
  5  4  2  0  0  0  0
  7  8  2  0  0  0  0
  7  6  1  0  0  0  0
  9  7  1  0  0  0  0
  9 11  1  0  0  0  0
 10  9  2  0  0  0  0
 11 24  1  0  0  0  0
 12 11  1  0  0  0  0
 12 17  2  0  0  0  0
 13 12  1  0  0  0  0
 14 13  2  0  0  0  0
 14 15  1  0  0  0  0
 15 16  2  0  0  0  0
 16 17  1  0  0  0  0
 16 27  1  0  0  0  0
 17 28  1  0  0  0  0
 18 15  1  0  0  0  0
 19 20  2  0  0  0  0
 19  5  1  0  0  0  0
 20  2  1  0  0  0  0
 23  6  1  0  0  0  0
 25 13  1  0  0  0  0
 26 14  1  0  0  0  0
 29 19  1  0  0  0  0
 30 20  1  0  0  0  0
M  END
$$$$
