30
rmsd219.gzmat
Cl         0.00000        0.00000        0.00000
C          1.70880        0.00000        0.00000
C          2.37180        0.00000        1.22170
C          3.76430        0.00880        1.22290
C          4.44440        0.00950        0.00060
N          5.88080       -0.00450        0.00960
C          6.57640        1.15100       -0.02900
S          5.87570        2.64770       -0.00680
C          8.07000        1.02510       -0.10180
S          8.74780       -0.14410       -1.05090
N          8.77390        1.91220        0.63440
C         10.20550        1.97200        0.54960
C         10.79230        2.98840       -0.21320
C         12.18030        3.06960       -0.27990
C         12.93420        2.13490        0.42020
C         12.36540        1.12160        1.18230
C         10.97670        1.03560        1.24640
Cl        14.63780        2.23370        0.33710
C          3.76490        0.00960       -1.22240
C          2.37260        0.00430       -1.22150
H          1.82150        0.00100        2.16350
H          4.31780        0.02690        2.16230
H          6.32950       -0.91710       -0.09760
H          8.31850        2.68460        1.12930
H         10.17030        3.69910       -0.76010
H         12.65840        3.84750       -0.87760
H         12.98590        0.40020        1.71610
H         10.49870        0.24300        1.82380
H          4.31880        0.02860       -2.16300
H          1.82160        0.01260       -2.16360
