rmsd247.gzmat
 OpenBabel08211713383D

 30 31  0  0  0  0  0  0  0  0999 V2000
    0.0000    0.0000    0.0000 Cl  0  0  0  0  0  0  0  0  0  0  0  0
    1.7084    0.0000    0.0000 C   0  0  0  0  0  0  0  0  0  0  0  0
    2.3723    0.0000    1.2207 C   0  0  0  0  0  0  0  0  0  0  0  0
    3.7648   -0.0030    1.2239 C   0  0  0  0  0  0  0  0  0  0  0  0
    4.4489   -0.0097    0.0033 C   0  0  0  0  0  0  0  0  0  0  0  0
    5.8815    0.0263   -0.0180 N   0  0  0  0  0  0  0  0  0  0  0  0
    6.6289   -1.0223    0.3941 C   0  0  0  0  0  0  0  0  0  0  0  0
    6.0309   -2.4088    1.0574 S   0  0  0  0  0  0  0  0  0  0  0  0
    8.1120   -0.8809    0.1988 C   0  0  0  0  0  0  0  0  0  0  0  0
    8.6937   -0.2784   -1.2236 S   0  0  0  0  0  0  0  0  0  0  0  0
    8.8876   -1.2769    1.2315 N   0  0  0  0  0  0  0  0  0  0  0  0
   10.3194   -1.2855    1.1187 C   0  0  0  0  0  0  0  0  0  0  0  0
   11.0287   -0.0947    1.3088 C   0  0  0  0  0  0  0  0  0  0  0  0
   12.4188   -0.1152    1.2308 C   0  0  0  0  0  0  0  0  0  0  0  0
   13.0523   -1.3234    0.9649 C   0  0  0  0  0  0  0  0  0  0  0  0
   12.3601   -2.5131    0.7724 C   0  0  0  0  0  0  0  0  0  0  0  0
   10.9702   -2.4946    0.8492 C   0  0  0  0  0  0  0  0  0  0  0  0
   14.7577   -1.3455    0.8673 Cl  0  0  0  0  0  0  0  0  0  0  0  0
    3.7659   -0.0079   -1.2194 C   0  0  0  0  0  0  0  0  0  0  0  0
    2.3738   -0.0013   -1.2205 C   0  0  0  0  0  0  0  0  0  0  0  0
    1.8221   -0.0024    2.1631 H   0  0  0  0  0  0  0  0  0  0  0  0
    4.3113   -0.0047    2.1682 H   0  0  0  0  0  0  0  0  0  0  0  0
    6.3000    0.8038   -0.5381 H   0  0  0  0  0  0  0  0  0  0  0  0
    8.4971   -1.7503    2.0497 H   0  0  0  0  0  0  0  0  0  0  0  0
   10.5009    0.8386    1.5077 H   0  0  0  0  0  0  0  0  0  0  0  0
   12.9905    0.8037    1.3706 H   0  0  0  0  0  0  0  0  0  0  0  0
   12.8867   -3.4444    0.5571 H   0  0  0  0  0  0  0  0  0  0  0  0
   10.3957   -3.4084    0.6872 H   0  0  0  0  0  0  0  0  0  0  0  0
    4.3170   -0.0268   -2.1607 H   0  0  0  0  0  0  0  0  0  0  0  0
    1.8250   -0.0052   -2.1635 H   0  0  0  0  0  0  0  0  0  0  0  0
  1  2  1  0  0  0  0
  2  3  2  0  0  0  0
  3  4  1  0  0  0  0
  3 21  1  0  0  0  0
  4 22  1  0  0  0  0
  5  4  2  0  0  0  0
  6  5  1  0  0  0  0
  6  7  1  0  0  0  0
  7  8  2  0  0  0  0
  9  7  1  0  0  0  0
  9 11  1  0  0  0  0
 10  9  2  0  0  0  0
 11 24  1  0  0  0  0
 12 11  1  0  0  0  0
 12 13  2  0  0  0  0
 13 25  1  0  0  0  0
 14 13  1  0  0  0  0
 14 26  1  0  0  0  0
 15 14  2  0  0  0  0
 16 17  2  0  0  0  0
 16 15  1  0  0  0  0
 17 12  1  0  0  0  0
 18 15  1  0  0  0  0
 19  5  1  0  0  0  0
 20 19  2  0  0  0  0
 20  2  1  0  0  0  0
 23  6  1  0  0  0  0
 27 16  1  0  0  0  0
 28 17  1  0  0  0  0
 29 19  1  0  0  0  0
 30 20  1  0  0  0  0
M  END
$$$$
