39

Cl         0.94110       -0.81900       -1.44920
C          2.44460        0.15780       -1.51190
Cl         3.49240       -0.25100       -0.11900
Cl         3.30420       -0.18660       -3.04640
C          2.11700        1.65220       -1.49940
O          1.48110        2.00130       -0.28810
C          2.08910        2.93440        0.48450
O          3.08090        3.54090        0.15280
C          1.37810        3.14620        1.76180
N          0.35220        2.33340        2.16090
C         -0.13120        2.70760        3.30790
S          0.63880        4.11250        4.00290
C          1.69680        4.18140        2.63720
C          2.75820        5.22600        2.51570
C         -1.24490        2.02680        4.04060
O         -1.68940        2.46680        5.07460
N         -1.63650        0.87750        3.37680
C         -2.59200       -0.06660        3.77060
O         -3.30830        0.05820        4.73030
C         -2.60560       -1.29070        2.84930
C         -1.26970       -2.00120        2.85560
C         -0.92610       -2.83540        3.93040
C          0.32900       -3.44350        3.98440
C          1.26260       -3.22070        2.96710
C          0.93270       -2.38900        1.89480
C         -0.32670       -1.78570        1.84070
H          1.43470        1.85860       -2.33690
H          3.04820        2.22050       -1.62460
H          3.75520        4.75940        2.52650
H          2.69720        5.95900        3.33150
H          2.67510        5.74820        1.55120
H         -1.07460        0.66890        2.55250
H         -2.85990       -0.96350        1.82750
H         -3.41200       -1.93970        3.21380
H         -1.65010       -3.00330        4.73220
H          0.58070       -4.09340        4.82600
H          2.24550       -3.69590        3.01040
H          1.65140       -2.20370        1.09510
H         -0.56930       -1.13640        0.99480
