rmsd192.gzmat
 OpenBabel08211713373D

 39 40  0  0  1  0  0  0  0  0999 V2000
    0.0000    0.0000    0.0000 Cl  0  0  0  0  0  0  0  0  0  0  0  0
    1.7484    0.0000    0.0000 C   0  0  0  0  0  0  0  0  0  0  0  0
    2.2884    0.0000    1.6730 Cl  0  0  0  0  0  0  0  0  0  0  0  0
    2.3289   -1.4797   -0.7855 Cl  0  0  0  0  0  0  0  0  0  0  0  0
    2.3284    1.1851   -0.7690 C   0  0  0  0  0  0  0  0  0  0  0  0
    1.7757    2.3571   -0.2164 O   0  0  0  0  0  0  0  0  0  0  0  0
    2.4035    2.8394    0.9115 C   0  0  0  0  0  0  0  0  0  0  0  0
    3.6000    2.9016    1.0018 O   0  0  0  0  0  0  0  0  0  0  0  0
    1.4019    3.2329    1.9055 C   0  0  0  0  0  0  0  0  0  0  0  0
    0.1533    2.6246    1.7990 N   0  0  0  0  0  0  0  0  0  0  0  0
   -0.6209    2.9317    2.8077 C   0  0  0  0  0  0  0  0  0  0  0  0
    0.1243    4.0514    3.9593 S   0  0  0  0  0  0  0  0  0  0  0  0
    1.5900    4.0445    3.0044 C   0  0  2  0  0  0  0  0  0  0  0  0
    2.7949    4.7976    3.3577 C   0  0  0  0  0  0  0  0  0  0  0  0
   -1.9929    2.3916    2.9232 C   0  0  0  0  0  0  0  0  0  0  0  0
   -2.9892    3.0581    2.7748 O   0  0  0  0  0  0  0  0  0  0  0  0
   -2.1302    1.0192    3.1913 N   0  0  0  0  0  0  0  0  0  0  0  0
   -1.0562    0.1598    3.5231 C   0  0  0  0  0  0  0  0  0  0  0  0
    0.0327    0.6099    3.7669 O   0  0  0  0  0  0  0  0  0  0  0  0
   -1.4139   -1.3049    3.6179 C   0  0  0  0  0  0  0  0  0  0  0  0
   -0.8546   -2.0284    2.4306 C   0  0  0  0  0  0  0  0  0  0  0  0
    0.4651   -2.4830    2.4567 C   0  0  0  0  0  0  0  0  0  0  0  0
    0.9723   -3.1995    1.3761 C   0  0  0  0  0  0  0  0  0  0  0  0
    0.1676   -3.4523    0.2654 C   0  0  0  0  0  0  0  0  0  0  0  0
   -1.1415   -2.9760    0.2305 C   0  0  0  0  0  0  0  0  0  0  0  0
   -1.6553   -2.2635    1.3125 C   0  0  0  0  0  0  0  0  0  0  0  0
    1.9752    1.2130   -1.8247 H   0  0  0  0  0  0  0  0  0  0  0  0
    3.4397    1.2009   -0.7539 H   0  0  0  0  0  0  0  0  0  0  0  0
    3.7110    4.2906    2.9831 H   0  0  0  0  0  0  0  0  0  0  0  0
    2.9432    4.9354    4.4397 H   0  0  0  0  0  0  0  0  0  0  0  0
    2.8004    5.8044    2.8988 H   0  0  0  0  0  0  0  0  0  0  0  0
   -3.0731    0.6395    3.1104 H   0  0  0  0  0  0  0  0  0  0  0  0
   -2.5043   -1.4783    3.7137 H   0  0  0  0  0  0  0  0  0  0  0  0
   -0.9767   -1.7111    4.5614 H   0  0  0  0  0  0  0  0  0  0  0  0
    1.0992   -2.2708    3.3173 H   0  0  0  0  0  0  0  0  0  0  0  0
    1.9997   -3.5614    1.4004 H   0  0  0  0  0  0  0  0  0  0  0  0
    0.5640   -4.0171   -0.5765 H   0  0  0  0  0  0  0  0  0  0  0  0
   -1.7641   -3.1583   -0.6434 H   0  0  0  0  0  0  0  0  0  0  0  0
   -2.6751   -1.8885    1.2768 H   0  0  0  0  0  0  0  0  0  0  0  0
  2  1  1  0  0  0  0
  2  3  1  0  0  0  0
  4  2  1  0  0  0  0
  5 28  1  0  0  0  0
  5  6  1  0  0  0  0
  5  2  1  0  0  0  0
  6  7  1  0  0  0  0
  7  8  2  0  0  0  0
  7  9  1  0  0  0  0
  9 13  1  0  0  0  0
 10  9  2  0  0  0  0
 10 11  2  0  0  0  0
 11 15  1  0  0  0  0
 11 12  1  0  0  0  0
 13 14  1  6  0  0  0
 13 12  1  0  0  0  0
 14 30  1  0  0  0  0
 15 17  1  0  0  0  0
 16 15  2  0  0  0  0
 17 18  1  0  0  0  0
 18 20  1  0  0  0  0
 18 19  2  0  0  0  0
 20 33  1  0  0  0  0
 20 34  1  0  0  0  0
 21 22  1  0  0  0  0
 21 20  1  0  0  0  0
 22 35  1  0  0  0  0
 23 36  1  0  0  0  0
 23 22  2  0  0  0  0
 24 23  1  0  0  0  0
 25 24  2  0  0  0  0
 25 26  1  0  0  0  0
 26 21  2  0  0  0  0
 27  5  1  0  0  0  0
 29 14  1  0  0  0  0
 31 14  1  0  0  0  0
 32 17  1  0  0  0  0
 37 24  1  0  0  0  0
 38 25  1  0  0  0  0
 39 26  1  0  0  0  0
M  RAD  1  13   2
M  END
$$$$
