39
rmsd27.gzmat
Cl         0.00000        0.00000        0.00000
C          1.75330        0.00000        0.00000
Cl         2.30430        0.00000        1.66810
Cl         2.32430       -1.47700       -0.78700
C          2.32110        1.19860       -0.75920
O          1.75290        2.36040       -0.20070
C          2.35020        2.81620        0.95720
O          3.54220        2.92690        1.05820
C          1.33370        3.11320        1.96870
N          0.07370        2.55370        1.77860
C         -0.70550        2.75130        2.81170
S          0.05200        3.70220        4.09760
C          1.52580        3.77860        3.16280
C          2.74700        4.44640        3.61590
C         -2.08920        2.22880        2.84770
O         -3.06970        2.93430        2.85440
N         -2.25490        0.83420        2.82070
C         -1.19460       -0.09140        2.99930
O         -0.14690        0.28710        3.45270
C         -1.54880       -1.52110        2.66980
C         -0.35190       -2.28370        2.18390
C          0.81010       -2.34570        2.95330
C          1.90870       -3.07180        2.49680
C          1.84350       -3.74740        1.28080
C          0.67770       -3.69440        0.51690
C         -0.41710       -2.95950        0.96320
H          1.97100        1.23100       -1.81570
H          3.43180        1.22840       -0.74010
H          2.80960        4.60260        4.70270
H          2.87230        5.43670        3.13820
H          3.65070        3.86540        3.32850
H         -3.20420        0.49590        2.67110
H         -2.37100       -1.57230        1.92260
H         -1.94930       -2.01140        3.58940
H          0.86950       -1.81020        3.90180
H          2.82000       -3.10370        3.09110
H          2.70250       -4.31120        0.92380
H          0.62680       -4.22130       -0.43390
H         -1.31830       -2.91310        0.35550
