
     RDKit          3D

 39 40  0  0  0  0  0  0  0  0999 V2000
    0.5820    0.2173    0.7067 Cl  0  0  0  0  0  0  0  0  0  0  0  0
    2.3051    0.0904    0.2602 C   0  0  0  0  0  0  0  0  0  0  0  0
    3.3315    0.4321    1.6943 Cl  0  0  0  0  0  0  0  0  0  0  0  0
    2.6525   -1.5540   -0.3565 Cl  0  0  0  0  0  0  0  0  0  0  0  0
    2.6442    1.1266   -0.8202 C   0  0  0  0  0  0  0  0  0  0  0  0
    1.8164    0.8886   -1.9339 O   0  0  0  0  0  0  0  0  0  0  0  0
    2.3675    0.3662   -3.0536 C   0  0  0  0  0  0  0  0  0  0  0  0
    3.5341    0.4718   -3.3482 O   0  0  0  0  0  0  0  0  0  0  0  0
    1.3515   -0.3478   -3.8571 C   0  0  0  0  0  0  0  0  0  0  0  0
    0.1661   -0.7216   -3.2941 N   0  0  0  0  0  0  0  0  0  0  0  0
   -0.5535   -1.4126   -4.1204 C   0  0  0  0  0  0  0  0  0  0  0  0
    0.1626   -1.6254   -5.7094 S   0  0  0  0  0  0  0  0  0  0  0  0
    1.5558   -0.7580   -5.1712 C   0  0  0  0  0  0  0  0  0  0  0  0
    2.7558   -0.5588   -6.0388 C   0  0  0  0  0  0  0  0  0  0  0  0
   -1.9123   -1.9428   -3.8473 C   0  0  0  0  0  0  0  0  0  0  0  0
   -2.7536   -2.0408   -4.7161 O   0  0  0  0  0  0  0  0  0  0  0  0
   -2.2050   -2.2652   -2.5188 N   0  0  0  0  0  0  0  0  0  0  0  0
   -1.3573   -2.8519   -1.5662 C   0  0  0  0  0  0  0  0  0  0  0  0
   -0.2023   -3.1228   -1.7834 O   0  0  0  0  0  0  0  0  0  0  0  0
   -2.0674   -3.1989   -0.2564 C   0  0  0  0  0  0  0  0  0  0  0  0
   -1.3018   -2.8110    0.9902 C   0  0  0  0  0  0  0  0  0  0  0  0
   -1.8818   -1.9474    1.9292 C   0  0  0  0  0  0  0  0  0  0  0  0
   -1.1944   -1.5902    3.0921 C   0  0  0  0  0  0  0  0  0  0  0  0
    0.0900   -2.0857    3.3240 C   0  0  0  0  0  0  0  0  0  0  0  0
    0.6781   -2.9414    2.3892 C   0  0  0  0  0  0  0  0  0  0  0  0
   -0.0135   -3.3082    1.2339 C   0  0  0  0  0  0  0  0  0  0  0  0
    3.7072    1.0478   -1.0880 H   0  0  0  0  0  0  0  0  0  0  0  0
    2.4278    2.1265   -0.4193 H   0  0  0  0  0  0  0  0  0  0  0  0
    3.1233    0.4736   -5.9549 H   0  0  0  0  0  0  0  0  0  0  0  0
    2.5377   -0.7844   -7.0917 H   0  0  0  0  0  0  0  0  0  0  0  0
    3.5792   -1.2086   -5.7014 H   0  0  0  0  0  0  0  0  0  0  0  0
   -3.2047   -2.3494   -2.3557 H   0  0  0  0  0  0  0  0  0  0  0  0
   -2.2037   -4.2954   -0.2813 H   0  0  0  0  0  0  0  0  0  0  0  0
   -3.0722   -2.7530   -0.2289 H   0  0  0  0  0  0  0  0  0  0  0  0
   -2.8846   -1.5495    1.7493 H   0  0  0  0  0  0  0  0  0  0  0  0
   -1.6619   -0.9151    3.8129 H   0  0  0  0  0  0  0  0  0  0  0  0
    0.6366   -1.7968    4.2247 H   0  0  0  0  0  0  0  0  0  0  0  0
    1.6902   -3.3180    2.5534 H   0  0  0  0  0  0  0  0  0  0  0  0
    0.4553   -3.9600    0.4968 H   0  0  0  0  0  0  0  0  0  0  0  0
  2  1  1  0
  2  3  1  0
  2  4  1  0
  2  5  1  0
  5  6  1  0
  5 27  1  0
  5 28  1  0
  6  7  1  0
  7  8  2  0
  7  9  1  0
  9 10  1  0
  9 13  2  0
 10 11  2  0
 11 12  1  0
 11 15  1  0
 12 13  1  0
 13 14  1  0
 14 29  1  0
 14 30  1  0
 14 31  1  0
 15 16  2  0
 15 17  1  0
 17 18  1  0
 17 32  1  0
 18 19  2  0
 18 20  1  0
 20 21  1  0
 20 33  1  0
 20 34  1  0
 21 22  2  0
 21 26  1  0
 22 23  1  0
 22 35  1  0
 23 24  2  0
 23 36  1  0
 24 25  1  0
 24 37  1  0
 25 26  2  0
 25 38  1  0
 26 39  1  0
M  END

