39
rmsd212.gzmat
Cl         0.00000        0.00000        0.00000
C          1.75610        0.00000        0.00000
Cl         2.31000        0.00000        1.66720
Cl         2.32300       -1.47660       -0.78610
C          2.30240        1.20560       -0.75920
O          1.75340        2.34780       -0.13850
C          2.47950        2.88890        0.89770
O          3.67680        2.95890        0.88040
C          1.55130        3.33520        1.94370
N          0.51210        2.46430        2.23330
C         -0.23120        2.89740        3.22690
S          0.30200        4.45130        3.86480
C          1.61760        4.47390        2.72050
C          2.60880        5.54910        2.63840
C         -1.38750        2.11780        3.76330
O         -2.09240        2.54340        4.64120
N         -1.53900        0.86880        3.15380
C         -2.49710       -0.09050        3.54700
O         -3.24590        0.09570        4.46800
C         -2.52770       -1.34140        2.69140
C         -1.19460       -1.94100        2.37270
C         -0.13550       -1.88140        3.28010
C          1.08540       -2.47550        2.96860
C          1.25270       -3.13870        1.75440
C          0.19290       -3.20890        0.85200
C         -1.02720       -2.61070        1.15730
H          1.91460        1.26140       -1.80110
H          3.41360        1.23280       -0.78480
H          2.18040        6.49220        2.25460
H          3.44430        5.28880        1.95700
H          3.07980        5.78150        3.60950
H         -0.88230        0.62740        2.40110
H         -3.09720       -1.10740        1.76210
H         -3.14920       -2.10620        3.22210
H         -0.25710       -1.37470        4.23680
H          1.91110       -2.42080        3.67680
H          2.20760       -3.60100        1.51240
H          0.31800       -3.73150       -0.09460
H         -1.84680       -2.66790        0.44410
