rmsd217.gzmat
 OpenBabel08211713373D

 39 40  0  0  1  0  0  0  0  0999 V2000
    0.0000    0.0000    0.0000 Cl  0  0  0  0  0  0  0  0  0  0  0  0
    1.7485    0.0000    0.0000 C   0  0  0  0  0  0  0  0  0  0  0  0
    2.3292    0.0000    1.6733 Cl  0  0  0  0  0  0  0  0  0  0  0  0
    2.2898   -1.4794   -0.7853 Cl  0  0  0  0  0  0  0  0  0  0  0  0
    2.3297    1.2311   -0.6931 C   0  0  0  0  0  0  0  0  0  0  0  0
    1.7656    1.2944   -1.9819 O   0  0  0  0  0  0  0  0  0  0  0  0
    2.3763    0.5075   -2.9360 C   0  0  0  0  0  0  0  0  0  0  0  0
    3.5707    0.4706   -3.0643 O   0  0  0  0  0  0  0  0  0  0  0  0
    1.3679   -0.2203   -3.7083 C   0  0  0  0  0  0  0  0  0  0  0  0
    0.0820   -0.2766   -3.1753 N   0  0  0  0  0  0  0  0  0  0  0  0
   -0.6961   -1.0604   -3.8755 C   0  0  0  0  0  0  0  0  0  0  0  0
    0.0957   -1.7657   -5.2950 S   0  0  0  0  0  0  0  0  0  0  0  0
    1.5834   -0.9598   -4.8528 C   0  0  2  0  0  0  0  0  0  0  0  0
    2.8395   -1.1144   -5.5886 C   0  0  0  0  0  0  0  0  0  0  0  0
   -2.1054   -1.2950   -3.4936 C   0  0  0  0  0  0  0  0  0  0  0  0
   -3.0483   -0.8221   -4.0812 O   0  0  0  0  0  0  0  0  0  0  0  0
   -2.3446   -2.0947   -2.3625 N   0  0  0  0  0  0  0  0  0  0  0  0
   -1.3423   -2.8092   -1.6658 C   0  0  0  0  0  0  0  0  0  0  0  0
   -0.2310   -2.8996   -2.1191 O   0  0  0  0  0  0  0  0  0  0  0  0
   -1.8018   -3.4858   -0.3959 C   0  0  0  0  0  0  0  0  0  0  0  0
   -1.0405   -2.9217    0.7657 C   0  0  0  0  0  0  0  0  0  0  0  0
   -1.6648   -2.0539    1.6619 C   0  0  0  0  0  0  0  0  0  0  0  0
   -0.9566   -1.5661    2.7589 C   0  0  0  0  0  0  0  0  0  0  0  0
    0.3666   -1.9509    2.9640 C   0  0  0  0  0  0  0  0  0  0  0  0
    0.9956   -2.8013    2.0547 C   0  0  0  0  0  0  0  0  0  0  0  0
    0.2962   -3.2816    0.9515 C   0  0  0  0  0  0  0  0  0  0  0  0
    3.4408    1.2193   -0.7249 H   0  0  0  0  0  0  0  0  0  0  0  0
    1.9857    2.1794   -0.2208 H   0  0  0  0  0  0  0  0  0  0  0  0
    3.5248   -0.2581   -5.4170 H   0  0  0  0  0  0  0  0  0  0  0  0
    2.7197   -1.2113   -6.6783 H   0  0  0  0  0  0  0  0  0  0  0  0
    3.4035   -2.0035   -5.2414 H   0  0  0  0  0  0  0  0  0  0  0  0
   -3.3088   -2.1231   -2.0306 H   0  0  0  0  0  0  0  0  0  0  0  0
   -1.5984   -4.5800   -0.4898 H   0  0  0  0  0  0  0  0  0  0  0  0
   -2.8954   -3.4095   -0.2346 H   0  0  0  0  0  0  0  0  0  0  0  0
   -2.6982   -1.7514    1.5095 H   0  0  0  0  0  0  0  0  0  0  0  0
   -1.4383   -0.8826    3.4552 H   0  0  0  0  0  0  0  0  0  0  0  0
    0.9123   -1.5822    3.8308 H   0  0  0  0  0  0  0  0  0  0  0  0
    2.0356   -3.0878    2.2043 H   0  0  0  0  0  0  0  0  0  0  0  0
    0.7917   -3.9280    0.2260 H   0  0  0  0  0  0  0  0  0  0  0  0
  1  2  1  0  0  0  0
  2  3  1  0  0  0  0
  4  2  1  0  0  0  0
  5 28  1  0  0  0  0
  5  2  1  0  0  0  0
  6  5  1  0  0  0  0
  7  6  1  0  0  0  0
  8  7  2  0  0  0  0
  9 10  2  0  0  0  0
  9  7  1  0  0  0  0
 11 15  1  0  0  0  0
 11 10  2  0  0  0  0
 12 13  1  0  0  0  0
 12 11  1  0  0  0  0
 13 14  1  1  0  0  0
 13  9  1  0  0  0  0
 14 29  1  0  0  0  0
 14 31  1  0  0  0  0
 15 17  1  0  0  0  0
 16 15  2  0  0  0  0
 17 32  1  0  0  0  0
 17 18  1  0  0  0  0
 18 20  1  0  0  0  0
 19 18  2  0  0  0  0
 20 34  1  0  0  0  0
 20 21  1  0  0  0  0
 21 26  2  0  0  0  0
 21 22  1  0  0  0  0
 22 23  2  0  0  0  0
 23 24  1  0  0  0  0
 23 36  1  0  0  0  0
 24 37  1  0  0  0  0
 25 38  1  0  0  0  0
 25 24  2  0  0  0  0
 26 25  1  0  0  0  0
 27  5  1  0  0  0  0
 30 14  1  0  0  0  0
 33 20  1  0  0  0  0
 35 22  1  0  0  0  0
 39 26  1  0  0  0  0
M  RAD  1  13   2
M  END
$$$$
