
     RDKit          3D

 39 40  0  0  0  0  0  0  0  0999 V2000
    0.9411   -0.8190   -1.4492 Cl  0  0  0  0  0  0  0  0  0  0  0  0
    2.4446    0.1578   -1.5119 C   0  0  0  0  0  0  0  0  0  0  0  0
    3.4924   -0.2510   -0.1190 Cl  0  0  0  0  0  0  0  0  0  0  0  0
    3.3042   -0.1866   -3.0464 Cl  0  0  0  0  0  0  0  0  0  0  0  0
    2.1170    1.6522   -1.4994 C   0  0  0  0  0  0  0  0  0  0  0  0
    1.4811    2.0013   -0.2881 O   0  0  0  0  0  0  0  0  0  0  0  0
    2.0891    2.9344    0.4845 C   0  0  0  0  0  0  0  0  0  0  0  0
    3.0809    3.5409    0.1528 O   0  0  0  0  0  0  0  0  0  0  0  0
    1.3781    3.1462    1.7618 C   0  0  0  0  0  0  0  0  0  0  0  0
    0.3522    2.3334    2.1609 N   0  0  0  0  0  0  0  0  0  0  0  0
   -0.1312    2.7076    3.3079 C   0  0  0  0  0  0  0  0  0  0  0  0
    0.6388    4.1125    4.0029 S   0  0  0  0  0  0  0  0  0  0  0  0
    1.6968    4.1814    2.6372 C   0  0  0  0  0  0  0  0  0  0  0  0
    2.7582    5.2260    2.5157 C   0  0  0  0  0  0  0  0  0  0  0  0
   -1.2449    2.0268    4.0406 C   0  0  0  0  0  0  0  0  0  0  0  0
   -1.6894    2.4668    5.0746 O   0  0  0  0  0  0  0  0  0  0  0  0
   -1.6365    0.8775    3.3768 N   0  0  0  0  0  0  0  0  0  0  0  0
   -2.5920   -0.0666    3.7706 C   0  0  0  0  0  0  0  0  0  0  0  0
   -3.3083    0.0582    4.7303 O   0  0  0  0  0  0  0  0  0  0  0  0
   -2.6056   -1.2907    2.8493 C   0  0  0  0  0  0  0  0  0  0  0  0
   -1.2697   -2.0012    2.8556 C   0  0  0  0  0  0  0  0  0  0  0  0
   -0.9261   -2.8354    3.9304 C   0  0  0  0  0  0  0  0  0  0  0  0
    0.3290   -3.4435    3.9844 C   0  0  0  0  0  0  0  0  0  0  0  0
    1.2626   -3.2207    2.9671 C   0  0  0  0  0  0  0  0  0  0  0  0
    0.9327   -2.3890    1.8948 C   0  0  0  0  0  0  0  0  0  0  0  0
   -0.3267   -1.7857    1.8407 C   0  0  0  0  0  0  0  0  0  0  0  0
    1.4347    1.8586   -2.3369 H   0  0  0  0  0  0  0  0  0  0  0  0
    3.0482    2.2205   -1.6246 H   0  0  0  0  0  0  0  0  0  0  0  0
    3.7552    4.7594    2.5265 H   0  0  0  0  0  0  0  0  0  0  0  0
    2.6972    5.9590    3.3315 H   0  0  0  0  0  0  0  0  0  0  0  0
    2.6751    5.7482    1.5512 H   0  0  0  0  0  0  0  0  0  0  0  0
   -1.0746    0.6689    2.5525 H   0  0  0  0  0  0  0  0  0  0  0  0
   -2.8599   -0.9635    1.8275 H   0  0  0  0  0  0  0  0  0  0  0  0
   -3.4120   -1.9397    3.2138 H   0  0  0  0  0  0  0  0  0  0  0  0
   -1.6501   -3.0033    4.7322 H   0  0  0  0  0  0  0  0  0  0  0  0
    0.5807   -4.0934    4.8260 H   0  0  0  0  0  0  0  0  0  0  0  0
    2.2455   -3.6959    3.0104 H   0  0  0  0  0  0  0  0  0  0  0  0
    1.6514   -2.2037    1.0951 H   0  0  0  0  0  0  0  0  0  0  0  0
   -0.5693   -1.1364    0.9948 H   0  0  0  0  0  0  0  0  0  0  0  0
  2  1  1  0
  2  3  1  0
  2  4  1  0
  2  5  1  0
  5  6  1  0
  5 27  1  0
  5 28  1  0
  6  7  1  0
  7  8  2  0
  7  9  1  0
  9 10  1  0
  9 13  2  0
 10 11  2  0
 11 12  1  0
 11 15  1  0
 12 13  1  0
 13 14  1  0
 14 29  1  0
 14 30  1  0
 14 31  1  0
 15 16  2  0
 15 17  1  0
 17 18  1  0
 17 32  1  0
 18 19  2  0
 18 20  1  0
 20 21  1  0
 20 33  1  0
 20 34  1  0
 21 22  2  0
 21 26  1  0
 22 23  1  0
 22 35  1  0
 23 24  2  0
 23 36  1  0
 24 25  1  0
 24 37  1  0
 25 26  2  0
 25 38  1  0
 26 39  1  0
M  END

