rmsd44.gzmat
 OpenBabel08211713373D

 39 40  0  0  1  0  0  0  0  0999 V2000
    0.0000    0.0000    0.0000 Cl  0  0  0  0  0  0  0  0  0  0  0  0
    1.7567    0.0000    0.0000 C   0  0  0  0  0  0  0  0  0  0  0  0
    2.3245    0.0000    1.6726 Cl  0  0  0  0  0  0  0  0  0  0  0  0
    2.3098   -1.4707   -0.7840 Cl  0  0  0  0  0  0  0  0  0  0  0  0
    2.3051    1.2351   -0.7088 C   0  0  0  0  0  0  0  0  0  0  0  0
    1.8927    1.1327   -2.0544 O   0  0  0  0  0  0  0  0  0  0  0  0
    0.6892    1.7187   -2.3714 C   0  0  0  0  0  0  0  0  0  0  0  0
    0.3389    2.7673   -1.9067 O   0  0  0  0  0  0  0  0  0  0  0  0
   -0.0186    0.8627   -3.3309 C   0  0  0  0  0  0  0  0  0  0  0  0
    0.0138   -0.4966   -3.0613 N   0  0  0  0  0  0  0  0  0  0  0  0
   -0.7052   -1.1856   -3.9193 C   0  0  0  0  0  0  0  0  0  0  0  0
   -1.4623   -0.1812   -5.1538 S   0  0  0  0  0  0  0  0  0  0  0  0
   -0.7702    1.2426   -4.4250 C   0  0  2  0  0  0  0  0  0  0  0  0
   -0.9773    2.6024   -4.9280 C   0  0  0  0  0  0  0  0  0  0  0  0
   -0.8753   -2.6664   -3.8187 C   0  0  0  0  0  0  0  0  0  0  0  0
   -1.5050   -3.2933   -4.6308 O   0  0  0  0  0  0  0  0  0  0  0  0
   -0.2477   -3.2182   -2.6979 N   0  0  0  0  0  0  0  0  0  0  0  0
   -0.3467   -4.5773   -2.3295 C   0  0  0  0  0  0  0  0  0  0  0  0
   -1.0106   -5.3606   -2.9534 O   0  0  0  0  0  0  0  0  0  0  0  0
    0.4766   -4.9651   -1.1173 C   0  0  0  0  0  0  0  0  0  0  0  0
    0.3749   -4.0359    0.0509 C   0  0  0  0  0  0  0  0  0  0  0  0
   -0.8194   -3.3760    0.3473 C   0  0  0  0  0  0  0  0  0  0  0  0
   -0.8970   -2.5394    1.4581 C   0  0  0  0  0  0  0  0  0  0  0  0
    0.2125   -2.3655    2.2839 C   0  0  0  0  0  0  0  0  0  0  0  0
    1.4002   -3.0362    1.9984 C   0  0  0  0  0  0  0  0  0  0  0  0
    1.4844   -3.8660    0.8828 C   0  0  0  0  0  0  0  0  0  0  0  0
    3.4163    1.2302   -0.7716 H   0  0  0  0  0  0  0  0  0  0  0  0
    1.9753    2.1865   -0.2374 H   0  0  0  0  0  0  0  0  0  0  0  0
   -0.7603    3.3639   -4.1503 H   0  0  0  0  0  0  0  0  0  0  0  0
   -2.0090    2.8011   -5.2634 H   0  0  0  0  0  0  0  0  0  0  0  0
   -0.3129    2.8377   -5.7802 H   0  0  0  0  0  0  0  0  0  0  0  0
    0.2786   -2.5800   -2.0884 H   0  0  0  0  0  0  0  0  0  0  0  0
    1.5343   -5.0912   -1.4443 H   0  0  0  0  0  0  0  0  0  0  0  0
    0.1545   -5.9870   -0.7942 H   0  0  0  0  0  0  0  0  0  0  0  0
   -1.6964   -3.5132   -0.2847 H   0  0  0  0  0  0  0  0  0  0  0  0
   -1.8291   -2.0215    1.6817 H   0  0  0  0  0  0  0  0  0  0  0  0
    0.1509   -1.7092    3.1496 H   0  0  0  0  0  0  0  0  0  0  0  0
    2.2647   -2.9139    2.6484 H   0  0  0  0  0  0  0  0  0  0  0  0
    2.4187   -4.3789    0.6642 H   0  0  0  0  0  0  0  0  0  0  0  0
  1  2  1  0  0  0  0
  2  3  1  0  0  0  0
  4  2  1  0  0  0  0
  5 28  1  0  0  0  0
  5  2  1  0  0  0  0
  6  5  1  0  0  0  0
  7  6  1  0  0  0  0
  7  8  2  0  0  0  0
  9 10  2  0  0  0  0
  9  7  1  0  0  0  0
 11 15  1  0  0  0  0
 11 10  2  0  0  0  0
 12 13  1  0  0  0  0
 12 11  1  0  0  0  0
 13 14  1  6  0  0  0
 13  9  1  0  0  0  0
 14 29  1  0  0  0  0
 15 17  1  0  0  0  0
 16 15  2  0  0  0  0
 17 18  1  0  0  0  0
 17 32  1  0  0  0  0
 18 20  1  0  0  0  0
 19 18  2  0  0  0  0
 20 34  1  0  0  0  0
 20 21  1  0  0  0  0
 21 22  2  0  0  0  0
 21 26  1  0  0  0  0
 22 23  1  0  0  0  0
 23 36  1  0  0  0  0
 23 24  2  0  0  0  0
 24 37  1  0  0  0  0
 25 24  1  0  0  0  0
 25 38  1  0  0  0  0
 26 25  2  0  0  0  0
 27  5  1  0  0  0  0
 30 14  1  0  0  0  0
 31 14  1  0  0  0  0
 33 20  1  0  0  0  0
 35 22  1  0  0  0  0
 39 26  1  0  0  0  0
M  RAD  1  13   2
M  END
$$$$
