39

Cl         0.58200        0.21730        0.70670
C          2.30510        0.09040        0.26020
Cl         3.33150        0.43210        1.69430
Cl         2.65250       -1.55400       -0.35650
C          2.64420        1.12660       -0.82020
O          1.81640        0.88860       -1.93390
C          2.36750        0.36620       -3.05360
O          3.53410        0.47180       -3.34820
C          1.35150       -0.34780       -3.85710
N          0.16610       -0.72160       -3.29410
C         -0.55350       -1.41260       -4.12040
S          0.16260       -1.62540       -5.70940
C          1.55580       -0.75800       -5.17120
C          2.75580       -0.55880       -6.03880
C         -1.91230       -1.94280       -3.84730
O         -2.75360       -2.04080       -4.71610
N         -2.20500       -2.26520       -2.51880
C         -1.35730       -2.85190       -1.56620
O         -0.20230       -3.12280       -1.78340
C         -2.06740       -3.19890       -0.25640
C         -1.30180       -2.81100        0.99020
C         -1.88180       -1.94740        1.92920
C         -1.19440       -1.59020        3.09210
C          0.09000       -2.08570        3.32400
C          0.67810       -2.94140        2.38920
C         -0.01350       -3.30820        1.23390
H          3.70720        1.04780       -1.08800
H          2.42780        2.12650       -0.41930
H          3.12330        0.47360       -5.95490
H          2.53770       -0.78440       -7.09170
H          3.57920       -1.20860       -5.70140
H         -3.20470       -2.34940       -2.35570
H         -2.20370       -4.29540       -0.28130
H         -3.07220       -2.75300       -0.22890
H         -2.88460       -1.54950        1.74930
H         -1.66190       -0.91510        3.81290
H          0.63660       -1.79680        4.22470
H          1.69020       -3.31800        2.55340
H          0.45530       -3.96000        0.49680
