39
rmsd69.gzmat
Cl         0.00000        0.00000        0.00000
C          1.75720        0.00000        0.00000
Cl         2.32590        0.00000        1.67240
Cl         2.31170       -1.46980       -0.78420
C          2.30320        1.23630       -0.70800
O          1.88720        1.13910       -2.05290
C          0.67320        1.70870       -2.35910
O          0.30460        2.74300       -1.87700
C         -0.01910        0.85470       -3.33200
N          0.02960       -0.50720       -3.07960
C         -0.67550       -1.19430       -3.95090
S         -1.43770       -0.18370       -5.17720
C         -0.76850        1.23900       -4.42590
C         -0.98690        2.60330       -4.91140
C         -0.83260       -2.67730       -3.86570
O         -1.48260       -3.29770       -4.66660
N         -0.16770       -3.24090       -2.77240
C         -0.26960       -4.60050       -2.40570
O         -0.98620       -5.36610       -2.99210
C          0.61800       -5.01170       -1.24800
C          0.57750       -4.11450       -0.05130
C         -0.57630       -3.40820        0.29250
C         -0.59330       -2.61260        1.43620
C          0.53830       -2.52160        2.24400
C          1.69130       -3.22710        1.90330
C          1.71250       -4.02210        0.76010
H          3.41430        1.23080       -0.77560
H          1.97470        2.18620       -0.23280
H         -0.77870        3.35580       -4.12270
H         -2.01930        2.79810       -5.24650
H         -0.32190        2.85450       -5.75820
H          0.37820       -2.60910       -2.17390
H          1.65830       -5.12360       -1.63240
H          0.31770       -6.04350       -0.93380
H         -1.47120       -3.47660       -0.32520
H         -1.49570       -2.06210        1.70010
H          0.52020       -1.90400        3.14000
H          2.57840       -3.15590        2.53030
H          2.61730       -4.56810        0.50200
