37
rmsd37.gzmat
C          0.00000        0.00000        0.00000
S          1.81480        0.00000        0.00000
C          2.21780        0.00000        1.78670
C          2.28180       -1.40290        2.36330
H          1.38390       -2.01710        2.07710
N          3.53820       -2.13940        1.89250
H          3.37630       -3.16420        1.93710
H          3.79070       -1.89110        0.89580
C          4.67490       -1.75110        2.85530
H          5.27830       -2.67970        3.07250
C          3.97130       -1.26800        4.16360
H          4.26440       -0.23030        4.44350
O          4.39410       -2.02740        5.24450
C          2.44320       -1.39430        3.90300
H          1.84560       -0.61430        4.40980
O          2.05450       -2.68850        4.30080
C          5.54940       -0.71940        2.26490
C          6.44500        0.11140        2.97350
N          7.13400        0.90770        2.09390
H          7.83970        1.58960        2.31480
C          6.71120        0.60760        0.80850
C          7.11270        1.16290       -0.46240
O          7.90900        2.03840       -0.68490
N          6.43030        0.55110       -1.56320
H          6.65200        0.90800       -2.49750
C          5.48890       -0.45350       -1.40230
N          5.12170       -0.93810       -0.23420
C          5.73190       -0.41350        0.88820
H         -0.33570        0.03060       -1.05030
H         -0.42080        0.88370        0.49590
H         -0.43050       -0.89640        0.45650
H          1.48420        0.62140        2.33990
H          3.18710        0.53600        1.89580
H          3.96290       -2.91960        5.25560
H          1.53870       -2.67540        5.14120
H          6.61810        0.14800        4.04110
H          5.02020       -0.86410       -2.31830
