37
rmsd14.gzmat
C          0.00000        0.00000        0.00000
S          1.81360        0.00000        0.00000
C          2.22370        0.00000        1.78910
C          2.94680        1.27640        2.17330
H          3.90920        1.39110        1.58960
N          2.06550        2.49340        1.89750
H          2.22000        2.86700        0.94240
H          1.04510        2.22750        1.96850
C          2.37960        3.54910        2.96240
H          3.20410        4.21230        2.57810
C          2.90450        2.75250        4.19900
H          2.15450        2.72440        5.02360
O          3.97750        3.44190        4.74890
C          3.29310        1.33700        3.68430
H          2.81560        0.52940        4.27460
O          4.69360        1.21240        3.71270
C          1.17720        4.33160        3.28760
C          1.17580        5.64360        3.81030
N         -0.11080        6.02820        4.08770
H         -0.41500        6.90640        4.47350
C         -0.96270        4.98700        3.74760
C         -2.39880        4.88890        3.84760
O         -3.18860        5.70260        4.25040
N         -2.88830        3.62160        3.38610
H         -3.90310        3.48110        3.41900
C         -2.05990        2.63220        2.88690
N         -0.74860        2.73920        2.79130
C         -0.18240        3.91690        3.24320
H         -0.33450       -0.01030       -1.05190
H         -0.43730        0.88170        0.47670
H         -0.41920       -0.89720        0.47350
H          2.88610       -0.87760        1.97960
H          1.32540       -0.18480        2.40810
H          4.83340        3.20180        4.30470
H          5.00430        0.86230        4.58370
H          2.02610        6.28600        4.00010
H         -2.53980        1.69600        2.54330
