37
rmsd57.gzmat
C          0.00000        0.00000        0.00000
S          1.81310        0.00000        0.00000
C          2.23190        0.00000        1.78020
C          2.15650       -1.38670        2.38490
H          1.14960       -1.86360        2.20780
N          3.23580       -2.29790        1.78500
H          2.82200       -2.93790        1.08330
H          3.96440       -1.71080        1.29460
C          3.89330       -3.09980        2.92320
H          3.76290       -4.19960        2.69220
C          3.07600       -2.75900        4.19740
H          3.68410       -2.78300        5.12500
O          2.12050       -3.78130        4.28200
C          2.42040       -1.38420        3.91310
H          3.04380       -0.53220        4.24990
O          1.14570       -1.35090        4.50080
C          5.32280       -2.77180        3.08160
C          6.21610       -3.48400        3.91370
N          7.46500       -2.92250        3.84140
H          8.29640       -3.22260        4.32150
C          7.41230       -1.85120        2.96350
C          8.45460       -0.95450        2.52300
O          9.61470       -0.92810        2.84310
N          7.97860        0.00640        1.57110
H          8.67300        0.65570        1.18700
C          6.66510        0.04550        1.13520
N          5.72360       -0.77690        1.55190
C          6.08600       -1.73800        2.47610
H         -0.33880        0.12020       -1.04330
H         -0.42590        0.83520        0.57080
H         -0.43280       -0.93040        0.37990
H          1.56340        0.69200        2.33840
H          3.24680        0.44840        1.87590
H          1.25380       -3.43190        4.61510
H          1.17220       -0.94200        5.39900
H          6.00530       -4.34530        4.53340
H          6.39880        0.81810        0.38630
