37
rmsd33.gzmat
C          0.00000        0.00000        0.00000
S          1.81180        0.00000        0.00000
C          2.24030        0.00000        1.77810
C          2.23090       -1.39710        2.36270
H          1.22330       -1.89030        2.25480
N          3.28300       -2.27160        1.67030
H          2.86560       -2.80620        0.88820
H          4.03860       -1.65220        1.27290
C          3.89520       -3.21780        2.72090
H          3.59120       -4.27490        2.46020
C          3.23390       -2.83460        4.07430
H          3.93700       -2.89440        4.93130
O          2.24280       -3.80730        4.26330
C          2.62450       -1.42450        3.86300
H          3.31970       -0.60930        4.14760
O          1.41170       -1.33600        4.56360
C          5.36100       -3.08340        2.77350
C          6.24500       -4.06170        3.28110
N          7.53020       -3.58560        3.24820
H          8.36550       -4.06260        3.54350
C          7.50940       -2.30660        2.71230
C          8.59130       -1.38550        2.45800
O          9.76770       -1.52440        2.67070
N          8.13390       -0.15920        1.87140
H          8.85140        0.53670        1.64350
C          6.80260        0.08270        1.57700
N          5.82540       -0.76970        1.81540
C          6.16700       -1.97170        2.40460
H         -0.34040       -0.10770       -1.04390
H         -0.41720        0.94460        0.37480
H         -0.43780       -0.82090        0.57560
H          1.54910        0.65480        2.35350
H          3.23620        0.48900        1.87180
H          1.43600       -3.41600        4.68710
H          1.53690       -0.92040        5.45040
H          6.00230       -5.04670        3.65740
H          6.55330        1.05500        1.10800
