rmsd37.gzmat
 OpenBabel08211713363D

 37 39  0  0  1  0  0  0  0  0999 V2000
    0.0000    0.0000    0.0000 C   0  0  0  0  0  0  0  0  0  0  0  0
    1.8148    0.0000    0.0000 S   0  0  0  0  0  0  0  0  0  0  0  0
    2.2178    0.0000    1.7867 C   0  0  0  0  0  0  0  0  0  0  0  0
    2.2818   -1.4029    2.3633 C   0  0  1  0  0  0  0  0  0  0  0  0
    1.3839   -2.0171    2.0771 H   0  0  0  0  0  0  0  0  0  0  0  0
    3.5382   -2.1394    1.8925 N   0  0  0  0  0  0  0  0  0  0  0  0
    3.3763   -3.1642    1.9371 H   0  0  0  0  0  0  0  0  0  0  0  0
    3.7907   -1.8911    0.8958 H   0  0  0  0  0  0  0  0  0  0  0  0
    4.6749   -1.7511    2.8553 C   0  0  2  0  0  0  0  0  0  0  0  0
    5.2783   -2.6797    3.0725 H   0  0  0  0  0  0  0  0  0  0  0  0
    3.9713   -1.2680    4.1636 C   0  0  2  0  0  0  0  0  0  0  0  0
    4.2644   -0.2303    4.4435 H   0  0  0  0  0  0  0  0  0  0  0  0
    4.3941   -2.0274    5.2445 O   0  0  0  0  0  0  0  0  0  0  0  0
    2.4432   -1.3943    3.9030 C   0  0  2  0  0  0  0  0  0  0  0  0
    1.8456   -0.6143    4.4098 H   0  0  0  0  0  0  0  0  0  0  0  0
    2.0545   -2.6885    4.3008 O   0  0  0  0  0  0  0  0  0  0  0  0
    5.5494   -0.7194    2.2649 C   0  0  0  0  0  0  0  0  0  0  0  0
    6.4450    0.1114    2.9735 C   0  0  0  0  0  0  0  0  0  0  0  0
    7.1340    0.9077    2.0939 N   0  0  0  0  0  0  0  0  0  0  0  0
    7.8397    1.5896    2.3148 H   0  0  0  0  0  0  0  0  0  0  0  0
    6.7112    0.6076    0.8085 C   0  0  2  0  0  0  0  0  0  0  0  0
    7.1127    1.1629   -0.4624 C   0  0  0  0  0  0  0  0  0  0  0  0
    7.9090    2.0384   -0.6849 O   0  0  0  0  0  0  0  0  0  0  0  0
    6.4303    0.5511   -1.5632 N   0  0  0  0  0  0  0  0  0  0  0  0
    6.6520    0.9080   -2.4975 H   0  0  0  0  0  0  0  0  0  0  0  0
    5.4889   -0.4535   -1.4023 C   0  0  0  0  0  0  0  0  0  0  0  0
    5.1217   -0.9381   -0.2342 N   0  0  0  0  0  0  0  0  0  0  0  0
    5.7319   -0.4135    0.8882 C   0  0  0  0  0  0  0  0  0  0  0  0
   -0.3357    0.0306   -1.0503 H   0  0  0  0  0  0  0  0  0  0  0  0
   -0.4208    0.8837    0.4959 H   0  0  0  0  0  0  0  0  0  0  0  0
   -0.4305   -0.8964    0.4565 H   0  0  0  0  0  0  0  0  0  0  0  0
    1.4842    0.6214    2.3399 H   0  0  0  0  0  0  0  0  0  0  0  0
    3.1871    0.5360    1.8958 H   0  0  0  0  0  0  0  0  0  0  0  0
    3.9629   -2.9196    5.2556 H   0  0  0  0  0  0  0  0  0  0  0  0
    1.5387   -2.6754    5.1412 H   0  0  0  0  0  0  0  0  0  0  0  0
    6.6181    0.1480    4.0411 H   0  0  0  0  0  0  0  0  0  0  0  0
    5.0202   -0.8641   -2.3183 H   0  0  0  0  0  0  0  0  0  0  0  0
  1  2  1  0  0  0  0
  1 31  1  0  0  0  0
  1 30  1  0  0  0  0
  2  3  1  0  0  0  0
  3 33  1  0  0  0  0
  3 32  1  0  0  0  0
  3  4  1  0  0  0  0
  4 14  1  0  0  0  0
  4  5  1  6  0  0  0
  6  7  1  0  0  0  0
  6  4  1  0  0  0  0
  6  9  1  0  0  0  0
  8  6  1  0  0  0  0
  9 10  1  1  0  0  0
  9 11  1  0  0  0  0
 11 14  1  0  0  0  0
 11 12  1  1  0  0  0
 11 13  1  0  0  0  0
 13 34  1  0  0  0  0
 14 16  1  0  0  0  0
 14 15  1  1  0  0  0
 16 35  1  0  0  0  0
 17  9  1  0  0  0  0
 17 18  2  0  0  0  0
 18 36  1  0  0  0  0
 19 20  1  0  0  0  0
 19 18  1  0  0  0  0
 21 22  1  1  0  0  0
 21 28  1  0  0  0  0
 21 19  1  0  0  0  0
 23 22  2  0  0  0  0
 24 26  1  0  0  0  0
 24 22  1  0  0  0  0
 25 24  1  0  0  0  0
 26 27  2  0  0  0  0
 27 28  2  0  0  0  0
 28 17  1  0  0  0  0
 29  1  1  0  0  0  0
 37 26  1  0  0  0  0
M  RAD  1  21   2
M  END
$$$$
