37
rmsd28.gzmat
C          0.00000        0.00000        0.00000
S          1.81410        0.00000        0.00000
C          2.22490        0.00000        1.78500
C          2.21730       -1.39700        2.37920
H          1.27630       -1.95620        2.12150
N          3.41320       -2.21400        1.88350
H          3.17480       -3.22430        1.90530
H          3.67480       -1.96210        0.88910
C          4.58620       -1.93910        2.84070
H          5.06730       -2.92890        3.09030
C          3.95180       -1.33150        4.13290
H          4.31370       -0.29680        4.33500
O          4.36210       -2.04580        5.24820
C          2.41390       -1.38150        3.91480
H          1.87140       -0.56590        4.42710
O          1.97990       -2.65160        4.34240
C          5.58710       -1.04090        2.23480
C          6.60770       -0.36310        2.93800
N          7.39070        0.33820        2.05640
H          8.19220        0.90570        2.27250
C          6.90490        0.12640        0.77560
C          7.36590        0.63280       -0.49560
O          8.28270        1.38000       -0.72180
N          6.58180        0.14680       -1.59110
H          6.83890        0.47940       -2.52540
C          5.50370       -0.70890       -1.42540
N          5.08730       -1.15220       -0.25720
C          5.78610       -0.73990        0.86050
H         -0.33530       -0.02400       -1.05090
H         -0.42130        0.90860        0.44830
H         -0.43140       -0.87140        0.50010
H          1.52860        0.66630        2.33440
H          3.22210        0.48490        1.88030
H          3.86650       -2.90040        5.33580
H          1.41580       -2.59780        5.14910
H          6.79990       -0.37050        4.00340
H          4.96450       -1.03130       -2.33810
