39
rmsd173.gzmat
C          0.00000        0.00000        0.00000
N          1.36740        0.00000        0.00000
C          2.02670        0.00000        1.17870
C          1.28270        0.01080        2.39010
C         -0.15330        0.03110        2.28250
C         -0.66750        0.06000        3.61710
C         -2.10420        0.15990        3.97780
N         -2.59790        1.52220        4.27070
C         -1.93880        2.15090        5.44140
C         -0.85630        3.13010        4.92840
H          0.12880        2.60830        4.87070
C         -0.72810        4.38630        5.77270
S          0.03110        4.06580        7.41180
C         -1.38220        3.59020        8.45720
C         -1.30420        3.46720        3.47960
H         -1.61310        4.52410        3.34870
C         -2.43510        2.46670        3.14000
O         -0.22260        3.36840        2.59200
C          0.43060        0.02150        4.47490
N          1.60860        0.00860        3.74240
H          2.52870       -0.06820        4.11050
N         -0.78730        0.02660        1.07930
N          3.40260       -0.07120        1.13120
H         -0.47920       -0.01110       -0.99340
H         -2.34080       -0.47960        4.86020
H         -2.73390       -0.23760        3.13860
H         -1.52280        1.39650        6.13090
H         -2.73900        2.69170        5.99290
H         -1.70090        4.89520        5.89030
H         -0.05520        5.11470        5.26980
H         -1.06540        3.66010        9.50550
H         -1.70360        2.56150        8.26840
H         -2.24150        4.25380        8.32270
H         -3.40630        2.99320        3.02310
H         -2.24020        1.94920        2.17740
H          0.07230        2.44390        2.47370
H          0.44350        0.01130        5.55260
H          3.84380       -0.01280        0.22670
H          3.94270        0.24610        1.90530
