39
rmsd142.gzmat
C          0.00000        0.00000        0.00000
N          1.36700        0.00000        0.00000
C          2.02480        0.00000        1.17940
C          1.27950        0.02710        2.38910
C         -0.15730        0.01830        2.28360
C         -0.66860       -0.00240        3.62010
C         -2.09910       -0.07940        4.01170
N         -2.69580       -1.43230        4.02630
C         -2.79530       -2.05200        2.68340
C         -1.62340       -3.05860        2.51530
H         -0.79050       -2.54020        1.97870
C         -2.06130       -4.28640        1.73500
S         -0.67330       -5.18600        0.94230
C          0.26780       -5.88270        2.33210
C         -1.17280       -3.37070        3.95960
H         -1.30290       -4.43020        4.25690
C         -1.96290       -2.39940        4.87460
O          0.21170       -3.18300        4.12930
C          0.43180        0.02210        4.47550
N          1.60890        0.03420        3.74090
H          2.53200        0.02340        4.10870
N         -0.78860        0.01190        1.07900
N          3.39840       -0.10700        1.13620
H         -0.47830       -0.00430       -0.99390
H         -2.71570        0.54810        3.31820
H         -2.25480        0.35150        5.02980
H         -2.79170       -1.29160        1.87570
H         -3.77810       -2.56770        2.64540
H         -2.72190       -3.99140        0.89250
H         -2.65330       -4.97340        2.36430
H          1.06070       -6.51700        1.91990
H         -0.35220       -6.49430        2.99180
H          0.74530       -5.09760        2.93680
H         -2.72840       -2.95360        5.45930
H         -1.29350       -1.91050        5.60430
H          0.51140       -2.34320        3.73140
H          0.44620        0.02730        5.55320
H          3.84280       -0.09640        0.23210
H          3.94750        0.21730        1.90010
