39
rmsd65.gzmat
C          0.00000        0.00000        0.00000
N          1.36780        0.00000        0.00000
C          2.02680        0.00000        1.17820
C          1.28220        0.00430        2.38950
C         -0.15390        0.02680        2.28220
C         -0.66770        0.04560        3.61730
C         -2.10450        0.13670        3.98060
N         -2.60390        1.48980        4.30510
C         -1.95990        2.09090        5.49660
C         -0.86050        3.07630        5.01720
H          0.11450        2.53630        4.96710
C         -0.75900        4.27440        5.94740
S          0.89910        5.05800        5.96250
C          1.07710        5.76510        4.29890
C         -1.28940        3.44470        3.57430
H         -1.58300        4.50710        3.45610
C         -2.42940        2.46490        3.20250
O         -0.20870        3.34030        2.68360
C          0.43100       -0.00430        4.47390
N          1.60880       -0.01200        3.74140
H          2.52880       -0.08970        4.10950
N         -0.78770        0.02750        1.07900
N          3.40310       -0.06520        1.13210
H         -0.47820       -0.01130       -0.99360
H         -2.33950       -0.52450        4.84740
H         -2.73300       -0.24250        3.13170
H         -1.55670        1.32660        6.18160
H         -2.76280        2.62840        6.04790
H         -0.93280        3.96920        6.99940
H         -1.53260        5.02860        5.71810
H          2.04900        6.26770        4.24380
H          0.29670        6.49580        4.07080
H          1.05390        4.98790        3.51910
H         -3.39470        3.00400        3.09650
H         -2.23500        1.97290        2.22630
H          0.08750        2.41600        2.57160
H          0.44460       -0.02880        5.55110
H          3.84510       -0.00490        0.22850
H          3.94060        0.25790        1.90600
