39
rmsd149.gzmat
C          0.00000        0.00000        0.00000
N          1.36740        0.00000        0.00000
C          2.02660        0.00000        1.17860
C          1.28240        0.01170        2.38970
C         -0.15380        0.03260        2.28190
C         -0.66800        0.06370        3.61650
C         -2.10320        0.16630        3.98240
N         -2.58980        1.52800        4.29250
C         -1.92470        2.14480        5.46730
C         -0.82510        3.10540        4.95440
H          0.14410        2.55690        4.87130
C         -0.64460        4.34470        5.81350
S          0.14330        3.95880        7.42590
C         -1.26980        3.81510        8.56470
C         -1.28600        3.47320        3.51750
H         -1.59300        4.53290        3.41040
C         -2.42240        2.48150        3.16910
O         -0.21320        3.38650        2.61810
C          0.43030        0.02800        4.47430
N          1.60830        0.01380        3.74230
H          2.52750       -0.06250        4.11230
N         -0.78730        0.02750        1.07940
N          3.40280       -0.07120        1.13070
H         -0.47880       -0.01140       -0.99350
H         -2.33990       -0.48230        4.85820
H         -2.73680       -0.21920        3.14010
H         -1.52300        1.38400        6.15870
H         -2.71650        2.70010        6.01620
H         -1.59920        4.87830        5.96170
H          0.03570        5.06230        5.30630
H         -0.87660        3.56940        9.55920
H         -1.96250        3.02160        8.26940
H         -1.82660        4.75380        8.64770
H         -3.39040        3.01370        3.05490
H         -2.22870        1.97030        2.20270
H          0.08730        2.46440        2.49530
H          0.44290        0.02530        5.55240
H          3.84370       -0.00970        0.22650
H          3.94260        0.24870        1.90470
