rmsd173.gzmat
 OpenBabel08211713423D

 39 41  0  0  1  0  0  0  0  0999 V2000
    0.0000    0.0000    0.0000 C   0  0  0  0  0  0  0  0  0  0  0  0
    1.3674    0.0000    0.0000 N   0  0  0  0  0  0  0  0  0  0  0  0
    2.0267    0.0000    1.1787 C   0  0  0  0  0  0  0  0  0  0  0  0
    1.2827    0.0108    2.3901 C   0  0  2  0  0  0  0  0  0  0  0  0
   -0.1533    0.0311    2.2825 C   0  0  0  0  0  0  0  0  0  0  0  0
   -0.6675    0.0600    3.6171 C   0  0  0  0  0  0  0  0  0  0  0  0
   -2.1042    0.1599    3.9778 C   0  0  0  0  0  0  0  0  0  0  0  0
   -2.5979    1.5222    4.2707 N   0  0  0  0  0  0  0  0  0  0  0  0
   -1.9388    2.1509    5.4414 C   0  0  0  0  0  0  0  0  0  0  0  0
   -0.8563    3.1301    4.9284 C   0  0  2  0  0  0  0  0  0  0  0  0
    0.1288    2.6083    4.8707 H   0  0  0  0  0  0  0  0  0  0  0  0
   -0.7281    4.3863    5.7727 C   0  0  0  0  0  0  0  0  0  0  0  0
    0.0311    4.0658    7.4118 S   0  0  0  0  0  0  0  0  0  0  0  0
   -1.3822    3.5902    8.4572 C   0  0  0  0  0  0  0  0  0  0  0  0
   -1.3042    3.4672    3.4796 C   0  0  2  0  0  0  0  0  0  0  0  0
   -1.6131    4.5241    3.3487 H   0  0  0  0  0  0  0  0  0  0  0  0
   -2.4351    2.4667    3.1400 C   0  0  0  0  0  0  0  0  0  0  0  0
   -0.2226    3.3684    2.5920 O   0  0  0  0  0  0  0  0  0  0  0  0
    0.4306    0.0215    4.4749 C   0  0  0  0  0  0  0  0  0  0  0  0
    1.6086    0.0086    3.7424 N   0  0  0  0  0  0  0  0  0  0  0  0
    2.5287   -0.0682    4.1105 H   0  0  0  0  0  0  0  0  0  0  0  0
   -0.7873    0.0266    1.0793 N   0  0  0  0  0  0  0  0  0  0  0  0
    3.4026   -0.0712    1.1312 N   0  0  0  0  0  0  0  0  0  0  0  0
   -0.4792   -0.0111   -0.9934 H   0  0  0  0  0  0  0  0  0  0  0  0
   -2.3408   -0.4796    4.8602 H   0  0  0  0  0  0  0  0  0  0  0  0
   -2.7339   -0.2376    3.1386 H   0  0  0  0  0  0  0  0  0  0  0  0
   -1.5228    1.3965    6.1309 H   0  0  0  0  0  0  0  0  0  0  0  0
   -2.7390    2.6917    5.9929 H   0  0  0  0  0  0  0  0  0  0  0  0
   -1.7009    4.8952    5.8903 H   0  0  0  0  0  0  0  0  0  0  0  0
   -0.0552    5.1147    5.2698 H   0  0  0  0  0  0  0  0  0  0  0  0
   -1.0654    3.6601    9.5055 H   0  0  0  0  0  0  0  0  0  0  0  0
   -1.7036    2.5615    8.2684 H   0  0  0  0  0  0  0  0  0  0  0  0
   -2.2415    4.2538    8.3227 H   0  0  0  0  0  0  0  0  0  0  0  0
   -3.4063    2.9932    3.0231 H   0  0  0  0  0  0  0  0  0  0  0  0
   -2.2402    1.9492    2.1774 H   0  0  0  0  0  0  0  0  0  0  0  0
    0.0723    2.4439    2.4737 H   0  0  0  0  0  0  0  0  0  0  0  0
    0.4435    0.0113    5.5526 H   0  0  0  0  0  0  0  0  0  0  0  0
    3.8438   -0.0128    0.2267 H   0  0  0  0  0  0  0  0  0  0  0  0
    3.9427    0.2461    1.9053 H   0  0  0  0  0  0  0  0  0  0  0  0
  1 22  2  0  0  0  0
  2  1  2  0  0  0  0
  2  3  2  0  0  0  0
  4  3  1  6  0  0  0
  4 20  1  0  0  0  0
  5  4  1  0  0  0  0
  5  6  1  0  0  0  0
  6  7  1  0  0  0  0
  6 19  2  0  0  0  0
  7  8  1  0  0  0  0
  7 25  1  0  0  0  0
  8  9  1  0  0  0  0
  9 28  1  0  0  0  0
  9 27  1  0  0  0  0
 10 15  1  0  0  0  0
 10  9  1  0  0  0  0
 10 12  1  0  0  0  0
 10 11  1  6  0  0  0
 12 29  1  0  0  0  0
 12 13  1  0  0  0  0
 13 14  1  0  0  0  0
 14 31  1  0  0  0  0
 15 16  1  6  0  0  0
 17 15  1  0  0  0  0
 17  8  1  0  0  0  0
 18 15  1  0  0  0  0
 19 37  1  0  0  0  0
 20 21  1  0  0  0  0
 20 19  1  0  0  0  0
 22  5  2  0  0  0  0
 23  3  1  0  0  0  0
 23 39  1  0  0  0  0
 24  1  1  0  0  0  0
 26  7  1  0  0  0  0
 30 12  1  0  0  0  0
 32 14  1  0  0  0  0
 33 14  1  0  0  0  0
 34 17  1  0  0  0  0
 35 17  1  0  0  0  0
 36 18  1  0  0  0  0
 38 23  1  0  0  0  0
M  RAD  1   4   2
M  END
$$$$
