39
rmsd75.gzmat
C          0.00000        0.00000        0.00000
N          1.36670        0.00000        0.00000
C          2.02440        0.00000        1.18020
C          1.27840        0.01430        2.38970
C         -0.15860       -0.00270        2.28290
C         -0.67140       -0.02070        3.61810
C         -2.10200       -0.10330        4.00810
N         -2.68220       -1.46230        4.05250
C         -2.81260       -2.09830        2.71800
C         -1.66560       -3.12480        2.54360
H         -0.83540       -2.65030        1.96620
C         -2.10280       -4.40880        1.85940
S         -2.66570       -4.16030        0.13130
C         -1.19390       -3.47810       -0.69530
C         -1.15890       -3.39870        3.98150
H         -1.26730       -4.45270        4.30590
C         -1.92200       -2.41020        4.89830
O          0.22980       -3.20520        4.08020
C          0.42810        0.01280        4.47450
N          1.60620        0.02980        3.74110
H          2.52840        0.00980        4.11070
N         -0.78890       -0.00530        1.07820
N          3.39800       -0.09060        1.13590
H         -0.47900        0.01070       -0.99390
H         -2.72430        0.50180        3.29990
H         -2.26370        0.34810        5.01630
H         -2.81420       -1.34750        1.90110
H         -3.80740       -2.59310        2.70220
H         -2.95800       -4.87220        2.38970
H         -1.28220       -5.15190        1.87560
H         -1.40320       -3.42450       -1.77100
H         -0.30710       -4.10280       -0.55090
H         -0.96560       -2.46520       -0.34340
H         -2.66890       -2.95310        5.51690
H         -1.23310       -1.90520        5.59850
H          0.50190       -2.34950        3.69690
H          0.44150        0.02430        5.55200
H          3.84510       -0.05730        0.23410
H          3.94450        0.20870        1.91210
