39
rmsd128.gzmat
C          0.00000        0.00000        0.00000
N          1.36740        0.00000        0.00000
C          2.02630        0.00000        1.17850
C          1.28200        0.01130        2.38940
C         -0.15360        0.03600        2.28260
C         -0.66680        0.07300        3.61840
C         -2.10220        0.17190        3.98610
N         -2.60700        1.53640        4.24790
C         -1.93180        2.20920        5.38480
C         -0.86220        3.16940        4.81110
H          0.11190        2.63320        4.71970
C         -0.69160        4.43450        5.63210
S          0.12230        4.11320        7.24450
C          1.86630        3.89330        6.76700
C         -1.36310        3.47910        3.37480
H         -1.70020        4.52660        3.24050
C         -2.47890        2.44650        3.08400
O         -0.30400        3.39120        2.45830
C          0.43160        0.03600        4.47490
N          1.61080        0.02260        3.74170
H          2.52660       -0.10160        4.10770
N         -0.78720        0.02940        1.07950
N          3.40290       -0.07120        1.13160
H         -0.47900       -0.01130       -0.99350
H         -2.32550       -0.44490        4.88870
H         -2.73390       -0.25570        3.16370
H         -1.50300        1.48590        6.09930
H         -2.72110        2.76960        5.93250
H         -1.66900        4.90170        5.86360
H         -0.11370        5.19080        5.06610
H          2.43640        3.63530        7.66730
H          2.29040        4.81200        6.34770
H          1.99620        3.09110        6.03550
H         -3.46160        2.94970        2.96290
H         -2.28680        1.90170        2.13570
H          0.00540        2.47100        2.34470
H          0.44460        0.03260        5.55280
H          3.84290       -0.01460        0.22650
H          3.94160        0.26080        1.90110
