39
rmsd112.gzmat
C          0.00000        0.00000        0.00000
N          1.36680        0.00000        0.00000
C          2.02520        0.00000        1.17950
C          1.28000        0.01690        2.38950
C         -0.15710        0.01680        2.28390
C         -0.66830       -0.00080        3.62000
C         -2.09870       -0.06420        4.01400
N         -2.71600       -1.40800        4.00770
C         -2.88840       -1.97940        2.65070
C         -1.75740       -3.01450        2.39800
H         -0.94180       -2.50750        1.82500
C         -2.27230       -4.21520        1.62070
S         -0.98240       -5.06130        0.62840
C          0.18460       -5.71870        1.85460
C         -1.23510       -3.36890        3.80840
H         -1.35840       -4.43550        4.08230
C         -1.96470       -2.41550        4.79010
O          0.15850       -3.19780        3.90780
C          0.43250        0.01300        4.47550
N          1.60940        0.02060        3.74140
H          2.53190       -0.01740        4.10880
N         -0.78830        0.01580        1.07940
N          3.39870       -0.09380        1.13410
H         -0.47930       -0.00950       -0.99370
H         -2.70790        0.58660        3.33620
H         -2.24380        0.34800        5.04170
H         -2.89410       -1.19390        1.86780
H         -3.88750       -2.46440        2.63860
H         -3.02810       -3.89570        0.87240
H         -2.78190       -4.93630        2.28340
H          1.03080       -6.16040        1.31530
H         -0.26670       -6.49090        2.48200
H          0.58450       -4.92960        2.50890
H         -2.71290       -2.97440        5.39220
H         -1.25350       -1.96210        5.50380
H          0.44260       -2.33840        3.54090
H          0.44690        0.01680        5.55320
H          3.84360       -0.07030        0.23090
H          3.94730        0.21050        1.90620
