
     RDKit          3D

 39 41  0  0  0  0  0  0  0  0999 V2000
    0.7273    1.3726    0.7857 C   0  0  0  0  0  0  0  0  0  0  0  0
    2.0221    1.0482    0.9129 N   0  0  0  0  0  0  0  0  0  0  0  0
    2.4185    0.3993    2.0093 C   0  0  0  0  0  0  0  0  0  0  0  0
    1.4466    0.0422    2.9655 C   0  0  0  0  0  0  0  0  0  0  0  0
    0.1024    0.4324    2.7455 C   0  0  0  0  0  0  0  0  0  0  0  0
   -0.6703   -0.0267    3.8743 C   0  0  0  0  0  0  0  0  0  0  0  0
   -2.1490    0.1216    4.1568 C   0  0  0  0  0  0  0  0  0  0  0  0
   -2.6572    1.4527    4.4594 N   0  0  0  0  0  0  0  0  0  0  0  0
   -1.8440    2.2797    5.3462 C   0  0  0  0  0  0  0  0  0  0  0  0
   -1.0611    3.2068    4.4109 C   0  0  2  0  0  0  0  0  0  0  0  0
   -0.2758    2.6080    3.9286 H   0  0  0  0  0  0  0  0  0  0  0  0
   -0.4125    4.4294    5.0287 C   0  0  0  0  0  0  0  0  0  0  0  0
    0.9008    4.0459    6.2500 S   0  0  0  0  0  0  0  0  0  0  0  0
    2.0833    3.1688    5.1773 C   0  0  0  0  0  0  0  0  0  0  0  0
   -2.0802    3.5201    3.2883 C   0  0  2  0  0  0  0  0  0  0  0  0
   -2.6246    4.4483    3.5355 H   0  0  0  0  0  0  0  0  0  0  0  0
   -3.0556    2.3041    3.3367 C   0  0  0  0  0  0  0  0  0  0  0  0
   -1.4910    3.7361    2.0323 O   0  0  0  0  0  0  0  0  0  0  0  0
    0.2332   -0.6536    4.7102 C   0  0  0  0  0  0  0  0  0  0  0  0
    1.5053   -0.6105    4.1790 N   0  0  0  0  0  0  0  0  0  0  0  0
    2.3059   -1.0940    4.5613 H   0  0  0  0  0  0  0  0  0  0  0  0
   -0.2600    1.1284    1.6401 N   0  0  0  0  0  0  0  0  0  0  0  0
    3.7458    0.0814    2.1294 N   0  0  0  0  0  0  0  0  0  0  0  0
    0.4633    1.9268   -0.1225 H   0  0  0  0  0  0  0  0  0  0  0  0
   -2.3841   -0.5525    5.0006 H   0  0  0  0  0  0  0  0  0  0  0  0
   -2.7218   -0.2590    3.2972 H   0  0  0  0  0  0  0  0  0  0  0  0
   -1.1943    1.6684    5.9872 H   0  0  0  0  0  0  0  0  0  0  0  0
   -2.4921    2.8771    6.0185 H   0  0  0  0  0  0  0  0  0  0  0  0
   -1.1484    5.0302    5.5888 H   0  0  0  0  0  0  0  0  0  0  0  0
    0.0084    5.0721    4.2381 H   0  0  0  0  0  0  0  0  0  0  0  0
    3.0071    3.0431    5.7605 H   0  0  0  0  0  0  0  0  0  0  0  0
    2.3117    3.7605    4.2771 H   0  0  0  0  0  0  0  0  0  0  0  0
    1.7169    2.1763    4.8758 H   0  0  0  0  0  0  0  0  0  0  0  0
   -4.0962    2.6543    3.4654 H   0  0  0  0  0  0  0  0  0  0  0  0
   -3.0094    1.7569    2.3840 H   0  0  0  0  0  0  0  0  0  0  0  0
   -1.1443    2.8677    1.7468 H   0  0  0  0  0  0  0  0  0  0  0  0
    0.0472   -1.1444    5.6640 H   0  0  0  0  0  0  0  0  0  0  0  0
    4.3503    0.5300    1.4491 H   0  0  0  0  0  0  0  0  0  0  0  0
    4.1394   -0.0331    3.0547 H   0  0  0  0  0  0  0  0  0  0  0  0
  1  2  2  0
  1 22  1  0
  1 24  1  0
  2  3  1  0
  3  4  2  0
  3 23  1  0
  4  5  1  0
  4 20  1  0
  5  6  1  0
  5 22  2  0
  6  7  1  0
  6 19  2  0
  7  8  1  0
  7 25  1  0
  7 26  1  0
  8  9  1  0
  8 17  1  0
  9 10  1  0
  9 27  1  0
  9 28  1  0
 10 11  1  6
 10 12  1  0
 10 15  1  0
 12 13  1  0
 12 29  1  0
 12 30  1  0
 13 14  1  0
 14 31  1  0
 14 32  1  0
 14 33  1  0
 15 16  1  1
 15 17  1  0
 15 18  1  0
 17 34  1  0
 17 35  1  0
 18 36  1  0
 19 20  1  0
 19 37  1  0
 20 21  1  0
 23 38  1  0
 23 39  1  0
M  END

