
     RDKit          3D

 39 41  0  0  0  0  0  0  0  0999 V2000
    0.0179    0.0175    0.0283 C   0  0  0  0  0  0  0  0  0  0  0  0
    1.3604    0.0991   -0.0149 N   0  0  0  0  0  0  0  0  0  0  0  0
    2.0444    0.1059    1.1286 C   0  0  0  0  0  0  0  0  0  0  0  0
    1.3220    0.0572    2.3400 C   0  0  0  0  0  0  0  0  0  0  0  0
   -0.0877   -0.0574    2.2744 C   0  0  0  0  0  0  0  0  0  0  0  0
   -0.5808   -0.1133    3.6289 C   0  0  0  0  0  0  0  0  0  0  0  0
   -2.0192   -0.2554    4.0703 C   0  0  0  0  0  0  0  0  0  0  0  0
   -2.6195   -1.5816    4.0378 N   0  0  0  0  0  0  0  0  0  0  0  0
   -2.8261   -2.2068    2.7338 C   0  0  0  0  0  0  0  0  0  0  0  0
   -1.6755   -3.2234    2.5341 C   0  0  2  0  0  0  0  0  0  0  0  0
   -0.8586   -2.7411    1.9770 H   0  0  0  0  0  0  0  0  0  0  0  0
   -2.0796   -4.4971    1.8012 C   0  0  0  0  0  0  0  0  0  0  0  0
   -2.8464   -4.2365    0.1606 S   0  0  0  0  0  0  0  0  0  0  0  0
   -1.4780   -3.4030   -0.7018 C   0  0  0  0  0  0  0  0  0  0  0  0
   -1.1204   -3.4940    3.9648 C   0  0  2  0  0  0  0  0  0  0  0  0
   -1.2197   -4.5572    4.2352 H   0  0  0  0  0  0  0  0  0  0  0  0
   -2.0265   -2.6190    4.8706 C   0  0  0  0  0  0  0  0  0  0  0  0
    0.2620   -3.2163    4.0888 O   0  0  0  0  0  0  0  0  0  0  0  0
    0.5361   -0.0106    4.4380 C   0  0  0  0  0  0  0  0  0  0  0  0
    1.6824    0.0767    3.6719 N   0  0  0  0  0  0  0  0  0  0  0  0
    2.6104    0.2337    4.0400 H   0  0  0  0  0  0  0  0  0  0  0  0
   -0.7547   -0.0832    1.0996 N   0  0  0  0  0  0  0  0  0  0  0  0
    3.4119    0.2055    1.0715 N   0  0  0  0  0  0  0  0  0  0  0  0
   -0.4860    0.0206   -0.9452 H   0  0  0  0  0  0  0  0  0  0  0  0
   -2.6369    0.4002    3.4374 H   0  0  0  0  0  0  0  0  0  0  0  0
   -2.1069    0.1284    5.1000 H   0  0  0  0  0  0  0  0  0  0  0  0
   -2.8603   -1.4558    1.9346 H   0  0  0  0  0  0  0  0  0  0  0  0
   -3.7932   -2.7444    2.7309 H   0  0  0  0  0  0  0  0  0  0  0  0
   -2.8495   -5.0394    2.3754 H   0  0  0  0  0  0  0  0  0  0  0  0
   -1.2148   -5.1731    1.6943 H   0  0  0  0  0  0  0  0  0  0  0  0
   -1.7996   -3.2613   -1.7434 H   0  0  0  0  0  0  0  0  0  0  0  0
   -0.5663   -4.0210   -0.6948 H   0  0  0  0  0  0  0  0  0  0  0  0
   -1.2643   -2.4198   -0.2604 H   0  0  0  0  0  0  0  0  0  0  0  0
   -2.8332   -3.2522    5.2868 H   0  0  0  0  0  0  0  0  0  0  0  0
   -1.4640   -2.2044    5.7204 H   0  0  0  0  0  0  0  0  0  0  0  0
    0.3774   -2.2720    3.9129 H   0  0  0  0  0  0  0  0  0  0  0  0
    0.5955    0.0101    5.5247 H   0  0  0  0  0  0  0  0  0  0  0  0
    3.7993    0.0795    0.1419 H   0  0  0  0  0  0  0  0  0  0  0  0
    3.9562   -0.2019    1.8220 H   0  0  0  0  0  0  0  0  0  0  0  0
  1  2  2  0
  1 22  1  0
  1 24  1  0
  2  3  1  0
  3  4  2  0
  3 23  1  0
  4  5  1  0
  4 20  1  0
  5  6  1  0
  5 22  2  0
  6  7  1  0
  6 19  2  0
  7  8  1  0
  7 25  1  0
  7 26  1  0
  8  9  1  0
  8 17  1  0
  9 10  1  0
  9 27  1  0
  9 28  1  0
 10 11  1  6
 10 12  1  0
 10 15  1  0
 12 13  1  0
 12 29  1  0
 12 30  1  0
 13 14  1  0
 14 31  1  0
 14 32  1  0
 14 33  1  0
 15 16  1  1
 15 17  1  0
 15 18  1  0
 17 34  1  0
 17 35  1  0
 18 36  1  0
 19 20  1  0
 19 37  1  0
 20 21  1  0
 23 38  1  0
 23 39  1  0
M  END

