39

C         -0.06700        0.16610       -0.01350
N          1.27640        0.17920       -0.09320
C          1.99310        0.12090        1.02830
C          1.30450        0.03890        2.25840
C         -0.11000        0.05010        2.23140
C         -0.57180       -0.04890        3.59340
C         -2.01060       -0.11040        4.04810
N         -2.69430       -1.39770        3.97310
C         -2.86410       -1.98730        2.64890
C         -1.69680       -2.98590        2.44830
H         -0.84350       -2.44080        2.01910
C         -2.04120       -4.12320        1.48960
S         -0.63270       -5.00030        0.72430
C          0.08610       -5.88330        2.14640
C         -1.29760       -3.39720        3.89280
H         -1.54390       -4.45210        4.08580
C         -2.16980       -2.48020        4.79670
O          0.09370       -3.29730        4.14970
C          0.56840       -0.10920        4.37280
N          1.69920       -0.05430        3.57840
H          2.64550       -0.16070        3.91650
N         -0.81270        0.11630        1.07950
N          3.36040        0.09990        0.92700
H         -0.59660        0.20850       -0.97230
H         -2.58980        0.60510        3.44440
H         -2.06980        0.23610        5.09230
H         -2.87760       -1.21590        1.86710
H         -3.82720       -2.53360        2.61560
H         -2.58300       -3.71700        0.61980
H         -2.71650       -4.85400        1.96870
H          0.89940       -6.50320        1.74170
H         -0.65680       -6.54670        2.61700
H          0.49370       -5.18410        2.88910
H         -3.01540       -3.07080        5.19600
H         -1.59390       -2.11010        5.65740
H          0.37050       -2.40760        3.88820
H          0.65840       -0.18590        5.45490
H          3.71740        0.30720        0.00030
H          3.91470        0.45020        1.69770
