39

C         -0.06030        0.06790        0.00950
N          1.28410        0.06600       -0.05370
C          1.98580        0.02260        1.07770
C          1.28150        0.01110        2.30090
C         -0.13180       -0.01040        2.25490
C         -0.61020       -0.07280        3.61350
C         -2.05200       -0.19150        4.04400
N         -2.65520       -1.52140        4.01480
C         -2.73270       -2.18450        2.71650
C         -1.49140       -3.10420        2.60900
H         -0.65560       -2.51380        2.20600
C         -1.70250       -4.29140        1.67320
S         -0.19520       -5.10040        1.02940
C          0.46220       -5.91950        2.51810
C         -1.14150       -3.43770        4.08530
H         -1.35290       -4.49400        4.31030
C         -2.09340       -2.52490        4.91140
O          0.23100       -3.26930        4.40000
C          0.51900       -0.06130        4.41010
N          1.66100       -0.03050        3.62820
H          2.59770        0.09930        3.98520
N         -0.81980        0.01570        1.09300
N          3.35660        0.03350        0.99910
H         -0.57780        0.10470       -0.95630
H         -2.65640        0.45950        3.39390
H         -2.15620        0.19770        5.06930
H         -2.77190       -1.45390        1.89710
H         -3.65290       -2.79980        2.67690
H         -2.21230       -3.94880        0.75770
H         -2.35910       -5.04960        2.13530
H          1.33020       -6.50780        2.18610
H         -0.28070       -6.60850        2.95020
H          0.78190       -5.18590        3.27040
H         -2.91440       -3.14130        5.32260
H         -1.56510       -2.07420        5.76420
H          0.48310       -2.37600        4.12570
H          0.59530       -0.06960        5.49600
H          3.71550       -0.12120        0.06210
H          3.87900       -0.42750        1.73450
