rmsd128.gzmat
 OpenBabel08211713423D

 39 41  0  0  1  0  0  0  0  0999 V2000
    0.0000    0.0000    0.0000 C   0  0  0  0  0  0  0  0  0  0  0  0
    1.3674    0.0000    0.0000 N   0  0  0  0  0  0  0  0  0  0  0  0
    2.0263    0.0000    1.1785 C   0  0  0  0  0  0  0  0  0  0  0  0
    1.2820    0.0113    2.3894 C   0  0  2  0  0  0  0  0  0  0  0  0
   -0.1536    0.0360    2.2826 C   0  0  0  0  0  0  0  0  0  0  0  0
   -0.6668    0.0730    3.6184 C   0  0  0  0  0  0  0  0  0  0  0  0
   -2.1022    0.1719    3.9861 C   0  0  0  0  0  0  0  0  0  0  0  0
   -2.6070    1.5364    4.2479 N   0  0  0  0  0  0  0  0  0  0  0  0
   -1.9318    2.2092    5.3848 C   0  0  0  0  0  0  0  0  0  0  0  0
   -0.8622    3.1694    4.8111 C   0  0  2  0  0  0  0  0  0  0  0  0
    0.1119    2.6332    4.7197 H   0  0  0  0  0  0  0  0  0  0  0  0
   -0.6916    4.4345    5.6321 C   0  0  0  0  0  0  0  0  0  0  0  0
    0.1223    4.1132    7.2445 S   0  0  0  0  0  0  0  0  0  0  0  0
    1.8663    3.8933    6.7670 C   0  0  0  0  0  0  0  0  0  0  0  0
   -1.3631    3.4791    3.3748 C   0  0  2  0  0  0  0  0  0  0  0  0
   -1.7002    4.5266    3.2405 H   0  0  0  0  0  0  0  0  0  0  0  0
   -2.4789    2.4465    3.0840 C   0  0  0  0  0  0  0  0  0  0  0  0
   -0.3040    3.3912    2.4583 O   0  0  0  0  0  0  0  0  0  0  0  0
    0.4316    0.0360    4.4749 C   0  0  0  0  0  0  0  0  0  0  0  0
    1.6108    0.0226    3.7417 N   0  0  0  0  0  0  0  0  0  0  0  0
    2.5266   -0.1016    4.1077 H   0  0  0  0  0  0  0  0  0  0  0  0
   -0.7872    0.0294    1.0795 N   0  0  0  0  0  0  0  0  0  0  0  0
    3.4029   -0.0712    1.1316 N   0  0  0  0  0  0  0  0  0  0  0  0
   -0.4790   -0.0113   -0.9935 H   0  0  0  0  0  0  0  0  0  0  0  0
   -2.3255   -0.4449    4.8887 H   0  0  0  0  0  0  0  0  0  0  0  0
   -2.7339   -0.2557    3.1637 H   0  0  0  0  0  0  0  0  0  0  0  0
   -1.5030    1.4859    6.0993 H   0  0  0  0  0  0  0  0  0  0  0  0
   -2.7211    2.7696    5.9325 H   0  0  0  0  0  0  0  0  0  0  0  0
   -1.6690    4.9017    5.8636 H   0  0  0  0  0  0  0  0  0  0  0  0
   -0.1137    5.1908    5.0661 H   0  0  0  0  0  0  0  0  0  0  0  0
    2.4364    3.6353    7.6673 H   0  0  0  0  0  0  0  0  0  0  0  0
    2.2904    4.8120    6.3477 H   0  0  0  0  0  0  0  0  0  0  0  0
    1.9962    3.0911    6.0355 H   0  0  0  0  0  0  0  0  0  0  0  0
   -3.4616    2.9497    2.9629 H   0  0  0  0  0  0  0  0  0  0  0  0
   -2.2868    1.9017    2.1357 H   0  0  0  0  0  0  0  0  0  0  0  0
    0.0054    2.4710    2.3447 H   0  0  0  0  0  0  0  0  0  0  0  0
    0.4446    0.0326    5.5528 H   0  0  0  0  0  0  0  0  0  0  0  0
    3.8429   -0.0146    0.2265 H   0  0  0  0  0  0  0  0  0  0  0  0
    3.9416    0.2608    1.9011 H   0  0  0  0  0  0  0  0  0  0  0  0
  1 22  2  0  0  0  0
  2  1  2  0  0  0  0
  2  3  2  0  0  0  0
  4  3  1  6  0  0  0
  4 20  1  0  0  0  0
  5  4  1  0  0  0  0
  5  6  1  0  0  0  0
  6  7  1  0  0  0  0
  6 19  2  0  0  0  0
  7  8  1  0  0  0  0
  7 25  1  0  0  0  0
  8  9  1  0  0  0  0
  9 28  1  0  0  0  0
  9 27  1  0  0  0  0
 10 15  1  0  0  0  0
 10  9  1  0  0  0  0
 10 12  1  0  0  0  0
 10 11  1  6  0  0  0
 12 29  1  0  0  0  0
 12 13  1  0  0  0  0
 14 13  1  0  0  0  0
 14 31  1  0  0  0  0
 15 16  1  6  0  0  0
 17 15  1  0  0  0  0
 17  8  1  0  0  0  0
 18 15  1  0  0  0  0
 19 37  1  0  0  0  0
 20 21  1  0  0  0  0
 20 19  1  0  0  0  0
 22  5  2  0  0  0  0
 23  3  1  0  0  0  0
 23 39  1  0  0  0  0
 24  1  1  0  0  0  0
 26  7  1  0  0  0  0
 30 12  1  0  0  0  0
 32 14  1  0  0  0  0
 33 14  1  0  0  0  0
 34 17  1  0  0  0  0
 35 17  1  0  0  0  0
 36 18  1  0  0  0  0
 38 23  1  0  0  0  0
M  RAD  1   4   2
M  END
$$$$
