
     RDKit          3D

 39 41  0  0  0  0  0  0  0  0999 V2000
   -0.0670    0.1661   -0.0135 C   0  0  0  0  0  0  0  0  0  0  0  0
    1.2764    0.1792   -0.0932 N   0  0  0  0  0  0  0  0  0  0  0  0
    1.9931    0.1209    1.0283 C   0  0  0  0  0  0  0  0  0  0  0  0
    1.3045    0.0389    2.2584 C   0  0  0  0  0  0  0  0  0  0  0  0
   -0.1100    0.0501    2.2314 C   0  0  0  0  0  0  0  0  0  0  0  0
   -0.5718   -0.0489    3.5934 C   0  0  0  0  0  0  0  0  0  0  0  0
   -2.0106   -0.1104    4.0481 C   0  0  0  0  0  0  0  0  0  0  0  0
   -2.6943   -1.3977    3.9731 N   0  0  0  0  0  0  0  0  0  0  0  0
   -2.8641   -1.9873    2.6489 C   0  0  0  0  0  0  0  0  0  0  0  0
   -1.6968   -2.9859    2.4483 C   0  0  2  0  0  0  0  0  0  0  0  0
   -0.8435   -2.4408    2.0191 H   0  0  0  0  0  0  0  0  0  0  0  0
   -2.0412   -4.1232    1.4896 C   0  0  0  0  0  0  0  0  0  0  0  0
   -0.6327   -5.0003    0.7243 S   0  0  0  0  0  0  0  0  0  0  0  0
    0.0861   -5.8833    2.1464 C   0  0  0  0  0  0  0  0  0  0  0  0
   -1.2976   -3.3972    3.8928 C   0  0  2  0  0  0  0  0  0  0  0  0
   -1.5439   -4.4521    4.0858 H   0  0  0  0  0  0  0  0  0  0  0  0
   -2.1698   -2.4802    4.7967 C   0  0  0  0  0  0  0  0  0  0  0  0
    0.0937   -3.2973    4.1497 O   0  0  0  0  0  0  0  0  0  0  0  0
    0.5684   -0.1092    4.3728 C   0  0  0  0  0  0  0  0  0  0  0  0
    1.6992   -0.0543    3.5784 N   0  0  0  0  0  0  0  0  0  0  0  0
    2.6455   -0.1607    3.9165 H   0  0  0  0  0  0  0  0  0  0  0  0
   -0.8127    0.1163    1.0795 N   0  0  0  0  0  0  0  0  0  0  0  0
    3.3604    0.0999    0.9270 N   0  0  0  0  0  0  0  0  0  0  0  0
   -0.5966    0.2085   -0.9723 H   0  0  0  0  0  0  0  0  0  0  0  0
   -2.5898    0.6051    3.4444 H   0  0  0  0  0  0  0  0  0  0  0  0
   -2.0698    0.2361    5.0923 H   0  0  0  0  0  0  0  0  0  0  0  0
   -2.8776   -1.2159    1.8671 H   0  0  0  0  0  0  0  0  0  0  0  0
   -3.8272   -2.5336    2.6156 H   0  0  0  0  0  0  0  0  0  0  0  0
   -2.5830   -3.7170    0.6198 H   0  0  0  0  0  0  0  0  0  0  0  0
   -2.7165   -4.8540    1.9687 H   0  0  0  0  0  0  0  0  0  0  0  0
    0.8994   -6.5032    1.7417 H   0  0  0  0  0  0  0  0  0  0  0  0
   -0.6568   -6.5467    2.6170 H   0  0  0  0  0  0  0  0  0  0  0  0
    0.4937   -5.1841    2.8891 H   0  0  0  0  0  0  0  0  0  0  0  0
   -3.0154   -3.0708    5.1960 H   0  0  0  0  0  0  0  0  0  0  0  0
   -1.5939   -2.1101    5.6574 H   0  0  0  0  0  0  0  0  0  0  0  0
    0.3705   -2.4076    3.8882 H   0  0  0  0  0  0  0  0  0  0  0  0
    0.6584   -0.1859    5.4549 H   0  0  0  0  0  0  0  0  0  0  0  0
    3.7174    0.3072    0.0003 H   0  0  0  0  0  0  0  0  0  0  0  0
    3.9147    0.4502    1.6977 H   0  0  0  0  0  0  0  0  0  0  0  0
  1  2  2  0
  1 22  1  0
  1 24  1  0
  2  3  1  0
  3  4  2  0
  3 23  1  0
  4  5  1  0
  4 20  1  0
  5  6  1  0
  5 22  2  0
  6  7  1  0
  6 19  2  0
  7  8  1  0
  7 25  1  0
  7 26  1  0
  8  9  1  0
  8 17  1  0
  9 10  1  0
  9 27  1  0
  9 28  1  0
 10 11  1  6
 10 12  1  0
 10 15  1  0
 12 13  1  0
 12 29  1  0
 12 30  1  0
 13 14  1  0
 14 31  1  0
 14 32  1  0
 14 33  1  0
 15 16  1  1
 15 17  1  0
 15 18  1  0
 17 34  1  0
 17 35  1  0
 18 36  1  0
 19 20  1  0
 19 37  1  0
 20 21  1  0
 23 38  1  0
 23 39  1  0
M  END

