rmsd2.gzmat
 OpenBabel08211713383D

 38 40  0  0  1  0  0  0  0  0999 V2000
    0.0000    0.0000    0.0000 S   0  0  0  0  0  0  0  0  0  0  0  0
    1.7870    0.0000    0.0000 C   0  0  0  0  0  0  0  0  0  0  0  0
    2.6911    0.0000    1.3717 S   0  0  0  0  0  0  0  0  0  0  0  0
    2.2305   -0.0061   -1.2992 N   0  0  0  0  0  0  0  0  0  0  0  0
    1.2028    0.0021   -2.2711 C   0  0  0  0  0  0  0  0  0  0  0  0
   -0.0570    0.0028   -1.7504 C   0  0  0  0  0  0  0  0  0  0  0  0
   -1.3289    0.0078   -2.4871 C   0  0  0  0  0  0  0  0  0  0  0  0
    1.4726   -0.0181   -3.7111 C   0  0  0  0  0  0  0  0  0  0  0  0
    1.4297   -1.2375   -4.3932 C   0  0  0  0  0  0  0  0  0  0  0  0
    1.6326   -1.2676   -5.7699 C   0  0  0  0  0  0  0  0  0  0  0  0
    1.8787   -0.0842   -6.4647 C   0  0  0  0  0  0  0  0  0  0  0  0
    1.9092    1.1322   -5.7854 C   0  0  0  0  0  0  0  0  0  0  0  0
    1.6934    1.1702   -4.4094 C   0  0  0  0  0  0  0  0  0  0  0  0
    3.6784    0.0380   -1.6266 C   0  0  2  0  0  0  0  0  0  0  0  0
    4.2544   -0.2437   -0.6836 H   0  0  0  0  0  0  0  0  0  0  0  0
    4.0705    1.4733   -1.9889 C   0  0  0  0  0  0  0  0  0  0  0  0
    4.0327   -1.0076   -2.6582 C   0  0  0  0  0  0  0  0  0  0  0  0
    3.7065   -2.3400   -2.3811 C   0  0  0  0  0  0  0  0  0  0  0  0
    4.0385   -3.3448   -3.2837 C   0  0  0  0  0  0  0  0  0  0  0  0
    4.7119   -3.0284   -4.4634 C   0  0  0  0  0  0  0  0  0  0  0  0
    5.0554   -1.7061   -4.7318 C   0  0  0  0  0  0  0  0  0  0  0  0
    4.7164   -0.6957   -3.8321 C   0  0  0  0  0  0  0  0  0  0  0  0
   -1.9730   -0.8486   -2.2249 H   0  0  0  0  0  0  0  0  0  0  0  0
   -1.1731   -0.0452   -3.5794 H   0  0  0  0  0  0  0  0  0  0  0  0
   -1.9150    0.9245   -2.3027 H   0  0  0  0  0  0  0  0  0  0  0  0
    1.2515   -2.1616   -3.8430 H   0  0  0  0  0  0  0  0  0  0  0  0
    1.6054   -2.2178   -6.3004 H   0  0  0  0  0  0  0  0  0  0  0  0
    2.0447   -0.1113   -7.5403 H   0  0  0  0  0  0  0  0  0  0  0  0
    2.0999    2.0551   -6.3303 H   0  0  0  0  0  0  0  0  0  0  0  0
    1.6869    2.1229   -3.8812 H   0  0  0  0  0  0  0  0  0  0  0  0
    5.1554    1.5559   -2.1334 H   0  0  0  0  0  0  0  0  0  0  0  0
    3.8011    2.1687   -1.1804 H   0  0  0  0  0  0  0  0  0  0  0  0
    3.5793    1.8262   -2.9012 H   0  0  0  0  0  0  0  0  0  0  0  0
    3.1888   -2.5919   -1.4548 H   0  0  0  0  0  0  0  0  0  0  0  0
    3.7757   -4.3785   -3.0661 H   0  0  0  0  0  0  0  0  0  0  0  0
    4.9712   -3.8137   -5.1698 H   0  0  0  0  0  0  0  0  0  0  0  0
    5.5875   -1.4560   -5.6472 H   0  0  0  0  0  0  0  0  0  0  0  0
    4.9838    0.3333   -4.0654 H   0  0  0  0  0  0  0  0  0  0  0  0
  2  1  1  0  0  0  0
  2  3  2  0  0  0  0
  4  2  1  0  0  0  0
  5  6  2  0  0  0  0
  5  4  1  0  0  0  0
  6  1  1  0  0  0  0
  7 25  1  0  0  0  0
  7 23  1  0  0  0  0
  7  6  1  0  0  0  0
  8  5  1  0  0  0  0
  9 26  1  0  0  0  0
  9  8  1  0  0  0  0
 10  9  2  0  0  0  0
 11 12  2  0  0  0  0
 11 10  1  0  0  0  0
 12 13  1  0  0  0  0
 13 30  1  0  0  0  0
 13  8  2  0  0  0  0
 14  4  1  0  0  0  0
 14 15  1  1  0  0  0
 16 14  1  0  0  0  0
 16 32  1  0  0  0  0
 17 18  1  0  0  0  0
 17 14  1  0  0  0  0
 18 34  1  0  0  0  0
 19 35  1  0  0  0  0
 19 18  2  0  0  0  0
 20 19  1  0  0  0  0
 21 20  2  0  0  0  0
 21 22  1  0  0  0  0
 22 17  2  0  0  0  0
 24  7  1  0  0  0  0
 27 10  1  0  0  0  0
 28 11  1  0  0  0  0
 29 12  1  0  0  0  0
 31 16  1  0  0  0  0
 33 16  1  0  0  0  0
 36 20  1  0  0  0  0
 37 21  1  0  0  0  0
 38 22  1  0  0  0  0
M  END
$$$$
