rmsd25.gzmat
 OpenBabel08211713393D

 38 40  0  0  1  0  0  0  0  0999 V2000
    0.0000    0.0000    0.0000 S   0  0  0  0  0  0  0  0  0  0  0  0
    1.7872    0.0000    0.0000 C   0  0  0  0  0  0  0  0  0  0  0  0
    2.6864    0.0000    1.3747 S   0  0  0  0  0  0  0  0  0  0  0  0
    2.2313   -0.0034   -1.2992 N   0  0  0  0  0  0  0  0  0  0  0  0
    1.2030    0.0140   -2.2700 C   0  0  0  0  0  0  0  0  0  0  0  0
   -0.0570    0.0083   -1.7496 C   0  0  0  0  0  0  0  0  0  0  0  0
   -1.3292    0.0052   -2.4859 C   0  0  0  0  0  0  0  0  0  0  0  0
    1.4656    0.0261   -3.7111 C   0  0  0  0  0  0  0  0  0  0  0  0
    1.4601   -1.1778   -4.4203 C   0  0  0  0  0  0  0  0  0  0  0  0
    1.6368   -1.1665   -5.8012 C   0  0  0  0  0  0  0  0  0  0  0  0
    1.8171    0.0422   -6.4718 C   0  0  0  0  0  0  0  0  0  0  0  0
    1.8077    1.2431   -5.7645 C   0  0  0  0  0  0  0  0  0  0  0  0
    1.6259    1.2390   -4.3836 C   0  0  0  0  0  0  0  0  0  0  0  0
    3.6784    0.0358   -1.6298 C   0  0  2  0  0  0  0  0  0  0  0  0
    4.2563   -0.2315   -0.6841 H   0  0  0  0  0  0  0  0  0  0  0  0
    4.0707    1.4654   -2.0135 C   0  0  0  0  0  0  0  0  0  0  0  0
    4.0312   -1.0234   -2.6488 C   0  0  0  0  0  0  0  0  0  0  0  0
    4.6749   -0.7212   -3.8474 C   0  0  0  0  0  0  0  0  0  0  0  0
    5.0178   -1.7426   -4.7333 C   0  0  0  0  0  0  0  0  0  0  0  0
    4.7229   -3.0677   -4.4244 C   0  0  0  0  0  0  0  0  0  0  0  0
    4.0873   -3.3738   -3.2214 C   0  0  0  0  0  0  0  0  0  0  0  0
    3.7468   -2.3569   -2.3352 C   0  0  0  0  0  0  0  0  0  0  0  0
   -1.9623   -0.8599   -2.2254 H   0  0  0  0  0  0  0  0  0  0  0  0
   -1.1756   -0.0440   -3.5784 H   0  0  0  0  0  0  0  0  0  0  0  0
   -1.9253    0.9145   -2.2987 H   0  0  0  0  0  0  0  0  0  0  0  0
    1.3303   -2.1212   -3.8897 H   0  0  0  0  0  0  0  0  0  0  0  0
    1.6370   -2.1043   -6.3542 H   0  0  0  0  0  0  0  0  0  0  0  0
    1.9621    0.0479   -7.5506 H   0  0  0  0  0  0  0  0  0  0  0  0
    1.9354    2.1863   -6.2918 H   0  0  0  0  0  0  0  0  0  0  0  0
    1.5963    2.1771   -3.8304 H   0  0  0  0  0  0  0  0  0  0  0  0
    5.1593    1.5530   -2.1230 H   0  0  0  0  0  0  0  0  0  0  0  0
    3.7677    2.1778   -1.2321 H   0  0  0  0  0  0  0  0  0  0  0  0
    3.6081    1.7913   -2.9507 H   0  0  0  0  0  0  0  0  0  0  0  0
    4.9070    0.3090   -4.1118 H   0  0  0  0  0  0  0  0  0  0  0  0
    5.5138   -1.4984   -5.6701 H   0  0  0  0  0  0  0  0  0  0  0  0
    4.9912   -3.8622   -5.1172 H   0  0  0  0  0  0  0  0  0  0  0  0
    3.8627   -4.4092   -2.9718 H   0  0  0  0  0  0  0  0  0  0  0  0
    3.2574   -2.6012   -1.3919 H   0  0  0  0  0  0  0  0  0  0  0  0
  2  1  1  0  0  0  0
  2  3  2  0  0  0  0
  4  2  1  0  0  0  0
  5  6  2  0  0  0  0
  5  4  1  0  0  0  0
  6  1  1  0  0  0  0
  7 25  1  0  0  0  0
  7 23  1  0  0  0  0
  7  6  1  0  0  0  0
  8  5  1  0  0  0  0
  9 26  1  0  0  0  0
  9  8  2  0  0  0  0
 10  9  1  0  0  0  0
 11 10  2  0  0  0  0
 11 12  1  0  0  0  0
 12 13  2  0  0  0  0
 13 30  1  0  0  0  0
 13  8  1  0  0  0  0
 14  4  1  0  0  0  0
 14 15  1  1  0  0  0
 16 14  1  0  0  0  0
 16 32  1  0  0  0  0
 17 22  1  0  0  0  0
 17 14  1  0  0  0  0
 18 17  2  0  0  0  0
 19 20  2  0  0  0  0
 19 18  1  0  0  0  0
 20 21  1  0  0  0  0
 21 37  1  0  0  0  0
 21 22  2  0  0  0  0
 22 38  1  0  0  0  0
 24  7  1  0  0  0  0
 27 10  1  0  0  0  0
 28 11  1  0  0  0  0
 29 12  1  0  0  0  0
 31 16  1  0  0  0  0
 33 16  1  0  0  0  0
 34 18  1  0  0  0  0
 35 19  1  0  0  0  0
 36 20  1  0  0  0  0
M  END
$$$$
