38

S         -0.00460        0.01270        0.00430
C          1.75200       -0.19590        0.04040
S          2.62430       -0.32220        1.44040
N          2.20620       -0.19870       -1.25820
C          1.21630       -0.05370       -2.24930
C         -0.04160        0.08180       -1.75030
C         -1.33140        0.21590       -2.49340
C          1.56160       -0.07940       -3.69030
C          2.01620       -1.26070       -4.30240
C          2.32280       -1.28030       -5.66310
C          2.17270       -0.12240       -6.43360
C          1.71470        1.05450       -5.83670
C          1.41300        1.07670       -4.47270
C          3.65090       -0.20310       -1.58650
H          3.67570       -0.07490       -2.67650
C          4.29960       -1.55000       -1.27800
C          4.33820        1.02870       -1.00930
C          3.76120        2.28690       -1.23610
C          4.37380        3.45000       -0.77050
C          5.58320        3.37310       -0.07310
C          6.16640        2.12520        0.15360
C          5.54660        0.96120       -0.30890
H         -2.03430       -0.58860       -2.22050
H         -1.15740        0.16690       -3.57710
H         -1.82900        1.17390       -2.26820
H          2.12190       -2.16750       -3.70300
H          2.67440       -2.20490       -6.12670
H          2.41220       -0.13920       -7.49930
H          1.59650        1.96190       -6.43330
H          1.06430        1.99750       -4.00010
H          5.32450       -1.57240       -1.67630
H          3.72970       -2.35530       -1.76420
H          4.32500       -1.74310       -0.19830
H          2.81210        2.35510       -1.77360
H          3.90550        4.42060       -0.95130
H          6.06530        4.28180        0.29510
H          7.10650        2.05240        0.70590
H          6.00540       -0.00530       -0.10110
