rmsd1.gzmat
 OpenBabel08211713383D

 38 40  0  0  1  0  0  0  0  0999 V2000
    0.0000    0.0000    0.0000 S   0  0  0  0  0  0  0  0  0  0  0  0
    1.7875    0.0000    0.0000 C   0  0  0  0  0  0  0  0  0  0  0  0
    2.6910    0.0000    1.3713 S   0  0  0  0  0  0  0  0  0  0  0  0
    2.2299    0.0020   -1.2995 N   0  0  0  0  0  0  0  0  0  0  0  0
    1.2021    0.0276   -2.2711 C   0  0  0  0  0  0  0  0  0  0  0  0
   -0.0573    0.0242   -1.7505 C   0  0  0  0  0  0  0  0  0  0  0  0
   -1.3276    0.0403   -2.4891 C   0  0  0  0  0  0  0  0  0  0  0  0
    1.4739    0.0623   -3.7104 C   0  0  0  0  0  0  0  0  0  0  0  0
    1.5599   -1.1289   -4.4338 C   0  0  0  0  0  0  0  0  0  0  0  0
    1.7730   -1.0881   -5.8095 C   0  0  0  0  0  0  0  0  0  0  0  0
    1.8889    0.1381   -6.4615 C   0  0  0  0  0  0  0  0  0  0  0  0
    1.7798    1.3266   -5.7412 C   0  0  0  0  0  0  0  0  0  0  0  0
    1.5682    1.2923   -4.3655 C   0  0  0  0  0  0  0  0  0  0  0  0
    3.6754    0.0006   -1.6374 C   0  0  2  0  0  0  0  0  0  0  0  0
    4.2583   -0.1920   -0.6768 H   0  0  0  0  0  0  0  0  0  0  0  0
    4.0803    1.3868   -2.1468 C   0  0  0  0  0  0  0  0  0  0  0  0
    4.0072   -1.1461   -2.5654 C   0  0  0  0  0  0  0  0  0  0  0  0
    3.5804   -2.4314   -2.2134 C   0  0  0  0  0  0  0  0  0  0  0  0
    3.8910   -3.5196   -3.0228 C   0  0  0  0  0  0  0  0  0  0  0  0
    4.6452   -3.3352   -4.1812 C   0  0  0  0  0  0  0  0  0  0  0  0
    5.0878   -2.0601   -4.5230 C   0  0  0  0  0  0  0  0  0  0  0  0
    4.7706   -0.9667   -3.7177 C   0  0  0  0  0  0  0  0  0  0  0  0
   -1.9089   -0.8858   -2.3405 H   0  0  0  0  0  0  0  0  0  0  0  0
   -1.1698    0.1348   -3.5777 H   0  0  0  0  0  0  0  0  0  0  0  0
   -1.9762    0.8831   -2.1968 H   0  0  0  0  0  0  0  0  0  0  0  0
    1.4749   -2.0870   -3.9197 H   0  0  0  0  0  0  0  0  0  0  0  0
    1.8551   -2.0168   -6.3719 H   0  0  0  0  0  0  0  0  0  0  0  0
    2.0619    0.1676   -7.5357 H   0  0  0  0  0  0  0  0  0  0  0  0
    1.8559    2.2836   -6.2544 H   0  0  0  0  0  0  0  0  0  0  0  0
    1.4699    2.2189   -3.8005 H   0  0  0  0  0  0  0  0  0  0  0  0
    5.1728    1.4802   -2.1929 H   0  0  0  0  0  0  0  0  0  0  0  0
    3.7195    2.1755   -1.4715 H   0  0  0  0  0  0  0  0  0  0  0  0
    3.6820    1.5997   -3.1450 H   0  0  0  0  0  0  0  0  0  0  0  0
    3.0036   -2.5832   -1.3002 H   0  0  0  0  0  0  0  0  0  0  0  0
    3.5502   -4.5164   -2.7481 H   0  0  0  0  0  0  0  0  0  0  0  0
    4.8918   -4.1859   -4.8123 H   0  0  0  0  0  0  0  0  0  0  0  0
    5.6834   -1.9121   -5.4214 H   0  0  0  0  0  0  0  0  0  0  0  0
    5.1225    0.0223   -4.0053 H   0  0  0  0  0  0  0  0  0  0  0  0
  2  1  1  0  0  0  0
  2  3  2  0  0  0  0
  4  2  1  0  0  0  0
  5  6  2  0  0  0  0
  5  4  1  0  0  0  0
  6  1  1  0  0  0  0
  7 23  1  0  0  0  0
  7 25  1  0  0  0  0
  7  6  1  0  0  0  0
  8  5  1  0  0  0  0
  9 26  1  0  0  0  0
  9  8  2  0  0  0  0
 10  9  1  0  0  0  0
 11 10  2  0  0  0  0
 11 12  1  0  0  0  0
 12 13  2  0  0  0  0
 13 30  1  0  0  0  0
 13  8  1  0  0  0  0
 14  4  1  0  0  0  0
 14 15  1  1  0  0  0
 16 14  1  0  0  0  0
 16 32  1  0  0  0  0
 17 18  1  0  0  0  0
 17 14  1  0  0  0  0
 18 34  1  0  0  0  0
 19 35  1  0  0  0  0
 19 18  2  0  0  0  0
 20 19  1  0  0  0  0
 21 20  2  0  0  0  0
 21 22  1  0  0  0  0
 22 17  2  0  0  0  0
 24  7  1  0  0  0  0
 27 10  1  0  0  0  0
 28 11  1  0  0  0  0
 29 12  1  0  0  0  0
 31 16  1  0  0  0  0
 33 16  1  0  0  0  0
 36 20  1  0  0  0  0
 37 21  1  0  0  0  0
 38 22  1  0  0  0  0
M  END
$$$$
