
     RDKit          3D

 38 40  0  0  0  0  0  0  0  0999 V2000
    0.0054    0.1035    0.0200 S   0  0  0  0  0  0  0  0  0  0  0  0
    1.7653    0.0884    0.0056 C   0  0  0  0  0  0  0  0  0  0  0  0
    2.7028    0.1354    1.3755 S   0  0  0  0  0  0  0  0  0  0  0  0
    2.1888    0.0238   -1.3031 N   0  0  0  0  0  0  0  0  0  0  0  0
    1.1655    0.0086   -2.2697 C   0  0  0  0  0  0  0  0  0  0  0  0
   -0.0839    0.0368   -1.7341 C   0  0  0  0  0  0  0  0  0  0  0  0
   -1.3979    0.0478   -2.4455 C   0  0  0  0  0  0  0  0  0  0  0  0
    1.4459   -0.0239   -3.7284 C   0  0  0  0  0  0  0  0  0  0  0  0
    1.3163   -1.2238   -4.4440 C   0  0  0  0  0  0  0  0  0  0  0  0
    1.5766   -1.2623   -5.8134 C   0  0  0  0  0  0  0  0  0  0  0  0
    1.9580   -0.0990   -6.4879 C   0  0  0  0  0  0  0  0  0  0  0  0
    2.0600    1.1071   -5.7897 C   0  0  0  0  0  0  0  0  0  0  0  0
    1.7982    1.1456   -4.4185 C   0  0  0  0  0  0  0  0  0  0  0  0
    3.6405   -0.0503   -1.5918 C   0  0  2  0  0  0  0  0  0  0  0  0
    4.0593   -0.3549   -0.6193 H   0  0  0  0  0  0  0  0  0  0  0  0
    4.2194    1.3267   -1.9008 C   0  0  0  0  0  0  0  0  0  0  0  0
    3.9485   -1.1586   -2.5814 C   0  0  0  0  0  0  0  0  0  0  0  0
    4.6116   -0.9328   -3.7918 C   0  0  0  0  0  0  0  0  0  0  0  0
    4.8597   -1.9885   -4.6735 C   0  0  0  0  0  0  0  0  0  0  0  0
    4.4538   -3.2847   -4.3523 C   0  0  0  0  0  0  0  0  0  0  0  0
    3.8054   -3.5229   -3.1353 C   0  0  0  0  0  0  0  0  0  0  0  0
    3.5601   -2.4682   -2.2572 C   0  0  0  0  0  0  0  0  0  0  0  0
   -2.0101   -0.8285   -2.1748 H   0  0  0  0  0  0  0  0  0  0  0  0
   -1.2414    0.0337   -3.5329 H   0  0  0  0  0  0  0  0  0  0  0  0
   -1.9837    0.9471   -2.1926 H   0  0  0  0  0  0  0  0  0  0  0  0
    1.0417   -2.1345   -3.9106 H   0  0  0  0  0  0  0  0  0  0  0  0
    1.4925   -2.2077   -6.3537 H   0  0  0  0  0  0  0  0  0  0  0  0
    2.1686   -0.1308   -7.5595 H   0  0  0  0  0  0  0  0  0  0  0  0
    2.3383    2.0236   -6.3152 H   0  0  0  0  0  0  0  0  0  0  0  0
    1.8600    2.0904   -3.8752 H   0  0  0  0  0  0  0  0  0  0  0  0
    5.3164    1.2661   -1.9582 H   0  0  0  0  0  0  0  0  0  0  0  0
    3.9603    2.0159   -1.0846 H   0  0  0  0  0  0  0  0  0  0  0  0
    3.8476    1.7387   -2.8480 H   0  0  0  0  0  0  0  0  0  0  0  0
    4.9153    0.0763   -4.0702 H   0  0  0  0  0  0  0  0  0  0  0  0
    5.3650   -1.7916   -5.6219 H   0  0  0  0  0  0  0  0  0  0  0  0
    4.6449   -4.1085   -5.0440 H   0  0  0  0  0  0  0  0  0  0  0  0
    3.4938   -4.5360   -2.8693 H   0  0  0  0  0  0  0  0  0  0  0  0
    3.0505   -2.6538   -1.3079 H   0  0  0  0  0  0  0  0  0  0  0  0
  1  2  1  0
  1  6  1  0
  2  3  2  0
  2  4  1  0
  4  5  1  0
  4 14  1  0
  5  6  2  0
  5  8  1  0
  6  7  1  0
  7 23  1  0
  7 24  1  0
  7 25  1  0
  8  9  2  0
  8 13  1  0
  9 10  1  0
  9 26  1  0
 10 11  2  0
 10 27  1  0
 11 12  1  0
 11 28  1  0
 12 13  2  0
 12 29  1  0
 13 30  1  0
 14 15  1  1
 14 16  1  0
 14 17  1  0
 16 31  1  0
 16 32  1  0
 16 33  1  0
 17 18  2  0
 17 22  1  0
 18 19  1  0
 18 34  1  0
 19 20  2  0
 19 35  1  0
 20 21  1  0
 20 36  1  0
 21 22  2  0
 21 37  1  0
 22 38  1  0
M  END

