38
rmsd25.gzmat
S          0.00000        0.00000        0.00000
C          1.78720        0.00000        0.00000
S          2.68640        0.00000        1.37470
N          2.23130       -0.00340       -1.29920
C          1.20300        0.01400       -2.27000
C         -0.05700        0.00830       -1.74960
C         -1.32920        0.00520       -2.48590
C          1.46560        0.02610       -3.71110
C          1.46010       -1.17780       -4.42030
C          1.63680       -1.16650       -5.80120
C          1.81710        0.04220       -6.47180
C          1.80770        1.24310       -5.76450
C          1.62590        1.23900       -4.38360
C          3.67840        0.03580       -1.62980
H          4.25630       -0.23150       -0.68410
C          4.07070        1.46540       -2.01350
C          4.03120       -1.02340       -2.64880
C          4.67490       -0.72120       -3.84740
C          5.01780       -1.74260       -4.73330
C          4.72290       -3.06770       -4.42440
C          4.08730       -3.37380       -3.22140
C          3.74680       -2.35690       -2.33520
H         -1.96230       -0.85990       -2.22540
H         -1.17560       -0.04400       -3.57840
H         -1.92530        0.91450       -2.29870
H          1.33030       -2.12120       -3.88970
H          1.63700       -2.10430       -6.35420
H          1.96210        0.04790       -7.55060
H          1.93540        2.18630       -6.29180
H          1.59630        2.17710       -3.83040
H          5.15930        1.55300       -2.12300
H          3.76770        2.17780       -1.23210
H          3.60810        1.79130       -2.95070
H          4.90700        0.30900       -4.11180
H          5.51380       -1.49840       -5.67010
H          4.99120       -3.86220       -5.11720
H          3.86270       -4.40920       -2.97180
H          3.25740       -2.60120       -1.39190
