38
rmsd19.gzmat
S          0.00000        0.00000        0.00000
C          1.78730        0.00000        0.00000
S          2.68810        0.00000        1.37340
N          2.23060        0.00270       -1.29920
C          1.20200        0.02630       -2.27060
C         -0.05750        0.01500       -1.75030
C         -1.33000        0.00660       -2.48570
C          1.47290        0.06600       -3.70960
C          1.49400       -1.12320       -4.44200
C          1.70240       -1.08400       -5.81810
C          1.88690        0.13870       -6.46130
C          1.84730        1.32590       -5.73150
C          1.63260        1.29350       -4.35580
C          3.67570       -0.06570       -1.63450
H          4.24430       -0.29010       -0.67200
C          4.15680        1.29780       -2.13630
C          3.94870       -1.22630       -2.56430
C          4.67120       -1.07790       -3.74670
C          4.92640       -2.18700       -4.55280
C          4.46080       -3.44560       -4.18170
C          3.74720       -3.59890       -2.99330
C          3.49850       -2.49540       -2.18400
H         -1.89930       -0.92420       -2.31890
H         -1.17720        0.08470       -3.57650
H         -1.98860        0.84500       -2.20400
H          1.36230       -2.07840       -3.93270
H          1.72600       -2.01150       -6.38720
H          2.05890        0.16620       -7.53590
H          1.97940        2.28070       -6.23720
H          1.58350        2.22020       -3.78470
H          5.25020        1.31160       -2.23410
H          3.88780        2.09360       -1.42740
H          3.72960        1.56450       -3.10840
H          5.03410       -0.10050       -4.05870
H          5.48920       -2.06380       -5.47530
H          4.65690       -4.30830       -4.81410
H          3.38920       -4.58240       -2.69460
H          2.95090       -2.62180       -1.24920
