38
rmsd1.gzmat
S          0.00000        0.00000        0.00000
C          1.78750        0.00000        0.00000
S          2.69100        0.00000        1.37130
N          2.22990        0.00200       -1.29950
C          1.20210        0.02760       -2.27110
C         -0.05730        0.02420       -1.75050
C         -1.32760        0.04030       -2.48910
C          1.47390        0.06230       -3.71040
C          1.55990       -1.12890       -4.43380
C          1.77300       -1.08810       -5.80950
C          1.88890        0.13810       -6.46150
C          1.77980        1.32660       -5.74120
C          1.56820        1.29230       -4.36550
C          3.67540        0.00060       -1.63740
H          4.25830       -0.19200       -0.67680
C          4.08030        1.38680       -2.14680
C          4.00720       -1.14610       -2.56540
C          3.58040       -2.43140       -2.21340
C          3.89100       -3.51960       -3.02280
C          4.64520       -3.33520       -4.18120
C          5.08780       -2.06010       -4.52300
C          4.77060       -0.96670       -3.71770
H         -1.90890       -0.88580       -2.34050
H         -1.16980        0.13480       -3.57770
H         -1.97620        0.88310       -2.19680
H          1.47490       -2.08700       -3.91970
H          1.85510       -2.01680       -6.37190
H          2.06190        0.16760       -7.53570
H          1.85590        2.28360       -6.25440
H          1.46990        2.21890       -3.80050
H          5.17280        1.48020       -2.19290
H          3.71950        2.17550       -1.47150
H          3.68200        1.59970       -3.14500
H          3.00360       -2.58320       -1.30020
H          3.55020       -4.51640       -2.74810
H          4.89180       -4.18590       -4.81230
H          5.68340       -1.91210       -5.42140
H          5.12250        0.02230       -4.00530
