rmsd22.gzmat
 OpenBabel08211713383D

 38 40  0  0  1  0  0  0  0  0999 V2000
    0.0000    0.0000    0.0000 S   0  0  0  0  0  0  0  0  0  0  0  0
    1.7875    0.0000    0.0000 C   0  0  0  0  0  0  0  0  0  0  0  0
    2.6894    0.0000    1.3730 S   0  0  0  0  0  0  0  0  0  0  0  0
    2.2308   -0.0011   -1.2992 N   0  0  0  0  0  0  0  0  0  0  0  0
    1.2019    0.0117   -2.2698 C   0  0  0  0  0  0  0  0  0  0  0  0
   -0.0580    0.0116   -1.7495 C   0  0  0  0  0  0  0  0  0  0  0  0
   -1.3280    0.0079   -2.4897 C   0  0  0  0  0  0  0  0  0  0  0  0
    1.4707    0.0194   -3.7095 C   0  0  0  0  0  0  0  0  0  0  0  0
    1.5384   -1.1890   -4.4069 C   0  0  0  0  0  0  0  0  0  0  0  0
    1.7415   -1.1806   -5.7845 C   0  0  0  0  0  0  0  0  0  0  0  0
    1.8756    0.0296   -6.4629 C   0  0  0  0  0  0  0  0  0  0  0  0
    1.7890    1.2351   -5.7678 C   0  0  0  0  0  0  0  0  0  0  0  0
    1.5775    1.2337   -4.3914 C   0  0  0  0  0  0  0  0  0  0  0  0
    3.6773   -0.0085   -1.6350 C   0  0  2  0  0  0  0  0  0  0  0  0
    4.2577   -0.1883   -0.6700 H   0  0  0  0  0  0  0  0  0  0  0  0
    4.0920    1.3683   -2.1609 C   0  0  0  0  0  0  0  0  0  0  0  0
    4.0068   -1.1694   -2.5459 C   0  0  0  0  0  0  0  0  0  0  0  0
    4.7182   -1.0037   -3.7333 C   0  0  0  0  0  0  0  0  0  0  0  0
    5.0284   -2.1113   -4.5218 C   0  0  0  0  0  0  0  0  0  0  0  0
    4.6303   -3.3862   -4.1282 C   0  0  0  0  0  0  0  0  0  0  0  0
    3.9298   -3.5565   -2.9345 C   0  0  0  0  0  0  0  0  0  0  0  0
    3.6272   -2.4539   -2.1422 C   0  0  0  0  0  0  0  0  0  0  0  0
   -1.7965   -0.9920   -2.4953 H   0  0  0  0  0  0  0  0  0  0  0  0
   -1.1875    0.2896   -3.5484 H   0  0  0  0  0  0  0  0  0  0  0  0
   -2.0698    0.7126   -2.0788 H   0  0  0  0  0  0  0  0  0  0  0  0
    1.4435   -2.1334   -3.8700 H   0  0  0  0  0  0  0  0  0  0  0  0
    1.8003   -2.1221   -6.3280 H   0  0  0  0  0  0  0  0  0  0  0  0
    2.0453    0.0330   -7.5382 H   0  0  0  0  0  0  0  0  0  0  0  0
    1.8837    2.1794   -6.3008 H   0  0  0  0  0  0  0  0  0  0  0  0
    1.4911    2.1734   -3.8470 H   0  0  0  0  0  0  0  0  0  0  0  0
    5.1846    1.4379   -2.2445 H   0  0  0  0  0  0  0  0  0  0  0  0
    3.7701    2.1648   -1.4748 H   0  0  0  0  0  0  0  0  0  0  0  0
    3.6661    1.5902   -3.1454 H   0  0  0  0  0  0  0  0  0  0  0  0
    5.0324   -0.0150   -4.0629 H   0  0  0  0  0  0  0  0  0  0  0  0
    5.5818   -1.9748   -5.4486 H   0  0  0  0  0  0  0  0  0  0  0  0
    4.8713   -4.2475   -4.7466 H   0  0  0  0  0  0  0  0  0  0  0  0
    3.6244   -4.5522   -2.6180 H   0  0  0  0  0  0  0  0  0  0  0  0
    3.0951   -2.5944   -1.2006 H   0  0  0  0  0  0  0  0  0  0  0  0
  2  1  1  0  0  0  0
  2  3  2  0  0  0  0
  4  2  1  0  0  0  0
  5  6  2  0  0  0  0
  5  4  1  0  0  0  0
  6  1  1  0  0  0  0
  7 25  1  0  0  0  0
  7  6  1  0  0  0  0
  8  5  1  0  0  0  0
  9 26  1  0  0  0  0
  9  8  2  0  0  0  0
 10  9  1  0  0  0  0
 11 10  2  0  0  0  0
 11 12  1  0  0  0  0
 12 13  2  0  0  0  0
 13 30  1  0  0  0  0
 13  8  1  0  0  0  0
 14  4  1  0  0  0  0
 14 15  1  1  0  0  0
 16 14  1  0  0  0  0
 16 32  1  0  0  0  0
 17 22  1  0  0  0  0
 17 14  1  0  0  0  0
 18 17  2  0  0  0  0
 19 20  2  0  0  0  0
 19 18  1  0  0  0  0
 20 21  1  0  0  0  0
 21 37  1  0  0  0  0
 21 22  2  0  0  0  0
 22 38  1  0  0  0  0
 23  7  1  0  0  0  0
 24  7  1  0  0  0  0
 27 10  1  0  0  0  0
 28 11  1  0  0  0  0
 29 12  1  0  0  0  0
 31 16  1  0  0  0  0
 33 16  1  0  0  0  0
 34 18  1  0  0  0  0
 35 19  1  0  0  0  0
 36 20  1  0  0  0  0
M  END
$$$$
