rmsd45.gzmat
 OpenBabel08211713393D

 59 61  0  0  0  0  0  0  0  0999 V2000
    0.0000    0.0000    0.0000 N   0  0  0  0  0  0  0  0  0  0  0  0
    1.4164    0.0000    0.0000 C   0  0  0  0  0  0  0  0  0  0  0  0
    2.0267    0.0000    1.0515 O   0  0  0  0  0  0  0  0  0  0  0  0
    2.0629    0.0404   -1.2303 N   0  0  0  0  0  0  0  0  0  0  0  0
    1.3780   -0.0047   -2.4710 C   0  0  0  0  0  0  0  0  0  0  0  0
    2.1247    0.0027   -3.5332 N   0  0  0  0  0  0  0  0  0  0  0  0
    1.5803   -0.0195   -4.8332 C   0  0  0  0  0  0  0  0  0  0  0  0
    1.6828   -1.2045   -5.5869 C   0  0  0  0  0  0  0  0  0  0  0  0
    1.2535   -1.2109   -6.9118 C   0  0  0  0  0  0  0  0  0  0  0  0
    0.7219   -0.0579   -7.4914 C   0  0  0  0  0  0  0  0  0  0  0  0
    0.6233    1.1142   -6.7422 C   0  0  0  0  0  0  0  0  0  0  0  0
    1.0478    1.1451   -5.4147 C   0  0  0  0  0  0  0  0  0  0  0  0
    0.9374    2.4039   -4.6233 C   0  0  0  0  0  0  0  0  0  0  0  0
    0.2756   -0.0804   -8.9152 C   0  0  0  0  0  0  0  0  0  0  0  0
    2.2336   -2.4423   -4.9662 C   0  0  0  0  0  0  0  0  0  0  0  0
   -0.0714   -0.0531   -2.3799 C   0  0  0  0  0  0  0  0  0  0  0  0
   -0.7164   -0.0646   -1.1867 C   0  0  0  0  0  0  0  0  0  0  0  0
   -2.1897   -0.0937   -1.1205 C   0  0  0  0  0  0  0  0  0  0  0  0
   -2.8805    1.1130   -0.9711 C   0  0  0  0  0  0  0  0  0  0  0  0
   -4.2684    1.1050   -0.9349 C   0  0  0  0  0  0  0  0  0  0  0  0
   -4.9707   -0.1174   -1.0382 C   0  0  0  0  0  0  0  0  0  0  0  0
   -4.2641   -1.3126   -1.1988 C   0  0  0  0  0  0  0  0  0  0  0  0
   -2.8725   -1.2993   -1.2449 C   0  0  0  0  0  0  0  0  0  0  0  0
   -6.3108   -0.3076   -0.9675 O   0  0  0  0  0  0  0  0  0  0  0  0
   -7.1570    0.8329   -1.0403 C   0  0  0  0  0  0  0  0  0  0  0  0
   -5.0450    2.2146   -0.7774 O   0  0  0  0  0  0  0  0  0  0  0  0
   -4.3984    3.4698   -0.9498 C   0  0  0  0  0  0  0  0  0  0  0  0
    3.5338    0.0667   -1.2362 C   0  0  0  0  0  0  0  0  0  0  0  0
   -0.6599   -0.1716    1.3106 C   0  0  0  0  0  0  0  0  0  0  0  0
   -0.8083   -1.6516    1.6653 C   0  0  0  0  0  0  0  0  0  0  0  0
    1.3343   -2.1218   -7.4993 H   0  0  0  0  0  0  0  0  0  0  0  0
    0.2146    2.0128   -7.1965 H   0  0  0  0  0  0  0  0  0  0  0  0
    1.8947    2.6482   -4.1344 H   0  0  0  0  0  0  0  0  0  0  0  0
    0.1858    2.3076   -3.8246 H   0  0  0  0  0  0  0  0  0  0  0  0
    0.6568    3.2671   -5.2383 H   0  0  0  0  0  0  0  0  0  0  0  0
   -0.1901   -1.0376   -9.1856 H   0  0  0  0  0  0  0  0  0  0  0  0
    1.1306    0.0690   -9.5917 H   0  0  0  0  0  0  0  0  0  0  0  0
   -0.4560    0.7073   -9.1378 H   0  0  0  0  0  0  0  0  0  0  0  0
    2.4127   -3.2416   -5.6943 H   0  0  0  0  0  0  0  0  0  0  0  0
    1.5504   -2.8355   -4.1983 H   0  0  0  0  0  0  0  0  0  0  0  0
    3.1917   -2.2341   -4.4597 H   0  0  0  0  0  0  0  0  0  0  0  0
   -0.6176   -0.0803   -3.3222 H   0  0  0  0  0  0  0  0  0  0  0  0
   -2.3201    2.0424   -0.8882 H   0  0  0  0  0  0  0  0  0  0  0  0
   -4.8169   -2.2471   -1.2918 H   0  0  0  0  0  0  0  0  0  0  0  0
   -2.3244   -2.2314   -1.3864 H   0  0  0  0  0  0  0  0  0  0  0  0
   -8.1539    0.3735   -1.0871 H   0  0  0  0  0  0  0  0  0  0  0  0
   -6.9577    1.4204   -1.9419 H   0  0  0  0  0  0  0  0  0  0  0  0
   -7.0559    1.4438   -0.1358 H   0  0  0  0  0  0  0  0  0  0  0  0
   -5.2426    4.1710   -0.9096 H   0  0  0  0  0  0  0  0  0  0  0  0
   -3.8968    3.5304   -1.9212 H   0  0  0  0  0  0  0  0  0  0  0  0
   -3.7043    3.6625   -0.1253 H   0  0  0  0  0  0  0  0  0  0  0  0
    3.8901    0.9030   -1.8690 H   0  0  0  0  0  0  0  0  0  0  0  0
    3.9287   -0.8721   -1.6668 H   0  0  0  0  0  0  0  0  0  0  0  0
    3.9354    0.1924   -0.2154 H   0  0  0  0  0  0  0  0  0  0  0  0
   -1.6522    0.3332    1.2855 H   0  0  0  0  0  0  0  0  0  0  0  0
   -0.0477    0.3531    2.0856 H   0  0  0  0  0  0  0  0  0  0  0  0
   -1.4042   -2.1918    0.9206 H   0  0  0  0  0  0  0  0  0  0  0  0
   -1.3010   -1.7727    2.6368 H   0  0  0  0  0  0  0  0  0  0  0  0
    0.1709   -2.1451    1.7309 H   0  0  0  0  0  0  0  0  0  0  0  0
  1  2  1  0  0  0  0
  1 29  1  0  0  0  0
  2  3  2  0  0  0  0
  4  2  1  0  0  0  0
  5 16  1  0  0  0  0
  5  4  1  0  0  0  0
  6  5  2  0  0  0  0
  7  6  1  0  0  0  0
  8 15  1  0  0  0  0
  8  7  2  0  0  0  0
  9  8  1  0  0  0  0
 10  9  2  0  0  0  0
 10 11  1  0  0  0  0
 11 12  2  0  0  0  0
 12  7  1  0  0  0  0
 12 13  1  0  0  0  0
 13 33  1  0  0  0  0
 13 34  1  0  0  0  0
 14 10  1  0  0  0  0
 15 41  1  0  0  0  0
 15 40  1  0  0  0  0
 16 17  2  0  0  0  0
 17 18  1  0  0  0  0
 17  1  1  0  0  0  0
 18 19  2  0  0  0  0
 19 20  1  0  0  0  0
 19 43  1  0  0  0  0
 20 26  1  0  0  0  0
 21 24  1  0  0  0  0
 21 20  2  0  0  0  0
 22 21  1  0  0  0  0
 23 22  2  0  0  0  0
 23 18  1  0  0  0  0
 25 24  1  0  0  0  0
 25 48  1  0  0  0  0
 27 49  1  0  0  0  0
 27 26  1  0  0  0  0
 27 51  1  0  0  0  0
 28  4  1  0  0  0  0
 28 54  1  0  0  0  0
 29 30  1  0  0  0  0
 29 56  1  0  0  0  0
 30 59  1  0  0  0  0
 30 58  1  0  0  0  0
 31  9  1  0  0  0  0
 32 11  1  0  0  0  0
 35 13  1  0  0  0  0
 36 14  1  0  0  0  0
 37 14  1  0  0  0  0
 38 14  1  0  0  0  0
 39 15  1  0  0  0  0
 42 16  1  0  0  0  0
 44 22  1  0  0  0  0
 45 23  1  0  0  0  0
 46 25  1  0  0  0  0
 47 25  1  0  0  0  0
 50 27  1  0  0  0  0
 52 28  1  0  0  0  0
 53 28  1  0  0  0  0
 55 29  1  0  0  0  0
 57 30  1  0  0  0  0
M  END
$$$$
