rmsd37.gzmat
 OpenBabel08211713393D

 59 61  0  0  0  0  0  0  0  0999 V2000
    0.0000    0.0000    0.0000 N   0  0  0  0  0  0  0  0  0  0  0  0
    1.4168    0.0000    0.0000 C   0  0  0  0  0  0  0  0  0  0  0  0
    2.0265    0.0000    1.0518 O   0  0  0  0  0  0  0  0  0  0  0  0
    2.0645   -0.0414   -1.2299 N   0  0  0  0  0  0  0  0  0  0  0  0
    1.3819    0.0323   -2.4708 C   0  0  0  0  0  0  0  0  0  0  0  0
    2.1327    0.0848   -3.5284 N   0  0  0  0  0  0  0  0  0  0  0  0
    1.6044    0.1418   -4.8333 C   0  0  0  0  0  0  0  0  0  0  0  0
    1.0958   -1.0091   -5.4625 C   0  0  0  0  0  0  0  0  0  0  0  0
    0.7028   -0.9414   -6.7988 C   0  0  0  0  0  0  0  0  0  0  0  0
    0.8108    0.2522   -7.5106 C   0  0  0  0  0  0  0  0  0  0  0  0
    1.3123    1.3937   -6.8821 C   0  0  0  0  0  0  0  0  0  0  0  0
    1.7094    1.3512   -5.5483 C   0  0  0  0  0  0  0  0  0  0  0  0
    2.2304    2.5766   -4.8785 C   0  0  0  0  0  0  0  0  0  0  0  0
    0.3908    0.3250   -8.9407 C   0  0  0  0  0  0  0  0  0  0  0  0
    0.9799   -2.2934   -4.7145 C   0  0  0  0  0  0  0  0  0  0  0  0
   -0.0682    0.0448   -2.3808 C   0  0  0  0  0  0  0  0  0  0  0  0
   -0.7151    0.0478   -1.1881 C   0  0  0  0  0  0  0  0  0  0  0  0
   -2.1885    0.0728   -1.1229 C   0  0  0  0  0  0  0  0  0  0  0  0
   -2.8535    1.2715   -1.3974 C   0  0  0  0  0  0  0  0  0  0  0  0
   -4.2412    1.3094   -1.3505 C   0  0  0  0  0  0  0  0  0  0  0  0
   -4.9694    0.1428   -1.0237 C   0  0  0  0  0  0  0  0  0  0  0  0
   -4.2885   -1.0520   -0.7703 C   0  0  0  0  0  0  0  0  0  0  0  0
   -2.8983   -1.0869   -0.8233 C   0  0  0  0  0  0  0  0  0  0  0  0
   -6.3119    0.0132   -0.8916 O   0  0  0  0  0  0  0  0  0  0  0  0
   -7.1373    1.1045   -1.2774 C   0  0  0  0  0  0  0  0  0  0  0  0
   -4.9938    2.4232   -1.5781 O   0  0  0  0  0  0  0  0  0  0  0  0
   -4.3210    3.5406   -2.1458 C   0  0  0  0  0  0  0  0  0  0  0  0
    3.5353   -0.0758   -1.2333 C   0  0  0  0  0  0  0  0  0  0  0  0
   -0.6597    0.2059    1.3058 C   0  0  0  0  0  0  0  0  0  0  0  0
   -0.8498    1.6945    1.6005 C   0  0  0  0  0  0  0  0  0  0  0  0
    0.3105   -1.8293   -7.2881 H   0  0  0  0  0  0  0  0  0  0  0  0
    1.3950    2.3224   -7.4404 H   0  0  0  0  0  0  0  0  0  0  0  0
    3.1805    2.3657   -4.3582 H   0  0  0  0  0  0  0  0  0  0  0  0
    1.5265    2.9374   -4.1140 H   0  0  0  0  0  0  0  0  0  0  0  0
    2.4145    3.3988   -5.5793 H   0  0  0  0  0  0  0  0  0  0  0  0
    0.1120   -0.6540   -9.3510 H   0  0  0  0  0  0  0  0  0  0  0  0
    1.1966    0.7226   -9.5744 H   0  0  0  0  0  0  0  0  0  0  0  0
   -0.4781    0.9877   -9.0633 H   0  0  0  0  0  0  0  0  0  0  0  0
    0.6780   -3.1316   -5.3538 H   0  0  0  0  0  0  0  0  0  0  0  0
    0.2417   -2.2177   -3.9012 H   0  0  0  0  0  0  0  0  0  0  0  0
    1.9411   -2.5664   -4.2491 H   0  0  0  0  0  0  0  0  0  0  0  0
   -0.6137    0.0519   -3.3235 H   0  0  0  0  0  0  0  0  0  0  0  0
   -2.2744    2.1595   -1.6451 H   0  0  0  0  0  0  0  0  0  0  0  0
   -4.8616   -1.9489   -0.5360 H   0  0  0  0  0  0  0  0  0  0  0  0
   -2.3706   -2.0227   -0.6358 H   0  0  0  0  0  0  0  0  0  0  0  0
   -8.1442    0.6862   -1.1432 H   0  0  0  0  0  0  0  0  0  0  0  0
   -6.9681    1.3779   -2.3236 H   0  0  0  0  0  0  0  0  0  0  0  0
   -6.9827    1.9603   -0.6107 H   0  0  0  0  0  0  0  0  0  0  0  0
   -5.1511    4.2320   -2.3439 H   0  0  0  0  0  0  0  0  0  0  0  0
   -3.8176    3.2711   -3.0804 H   0  0  0  0  0  0  0  0  0  0  0  0
   -3.6242    3.9790   -1.4243 H   0  0  0  0  0  0  0  0  0  0  0  0
    3.9387    0.8574   -1.6679 H   0  0  0  0  0  0  0  0  0  0  0  0
    3.8865   -0.9174   -1.8616 H   0  0  0  0  0  0  0  0  0  0  0  0
    3.9337   -0.2000   -0.2109 H   0  0  0  0  0  0  0  0  0  0  0  0
   -0.0319   -0.2699    2.0999 H   0  0  0  0  0  0  0  0  0  0  0  0
   -1.6375   -0.3276    1.3075 H   0  0  0  0  0  0  0  0  0  0  0  0
    0.1134    2.2216    1.6310 H   0  0  0  0  0  0  0  0  0  0  0  0
   -1.3333    1.8411    2.5735 H   0  0  0  0  0  0  0  0  0  0  0  0
   -1.4734    2.1830    0.8429 H   0  0  0  0  0  0  0  0  0  0  0  0
  1 29  1  0  0  0  0
  2  1  1  0  0  0  0
  2  3  2  0  0  0  0
  4  2  1  0  0  0  0
  5 16  1  0  0  0  0
  5  4  1  0  0  0  0
  6  5  2  0  0  0  0
  7  6  1  0  0  0  0
  8  7  1  0  0  0  0
  8 15  1  0  0  0  0
  9  8  2  0  0  0  0
 10 11  2  0  0  0  0
 10  9  1  0  0  0  0
 11 12  1  0  0  0  0
 12 13  1  0  0  0  0
 12  7  2  0  0  0  0
 13 33  1  0  0  0  0
 13 34  1  0  0  0  0
 14 10  1  0  0  0  0
 15 41  1  0  0  0  0
 15 40  1  0  0  0  0
 16 17  2  0  0  0  0
 17 18  1  0  0  0  0
 17  1  1  0  0  0  0
 18 23  2  0  0  0  0
 19 20  2  0  0  0  0
 19 18  1  0  0  0  0
 20 21  1  0  0  0  0
 21 24  1  0  0  0  0
 21 22  2  0  0  0  0
 22 44  1  0  0  0  0
 23 22  1  0  0  0  0
 23 45  1  0  0  0  0
 25 46  1  0  0  0  0
 25 24  1  0  0  0  0
 25 48  1  0  0  0  0
 26 20  1  0  0  0  0
 27 26  1  0  0  0  0
 27 51  1  0  0  0  0
 28  4  1  0  0  0  0
 28 54  1  0  0  0  0
 29 56  1  0  0  0  0
 29 30  1  0  0  0  0
 29 55  1  0  0  0  0
 30 57  1  0  0  0  0
 30 58  1  0  0  0  0
 31  9  1  0  0  0  0
 32 11  1  0  0  0  0
 35 13  1  0  0  0  0
 36 14  1  0  0  0  0
 37 14  1  0  0  0  0
 38 14  1  0  0  0  0
 39 15  1  0  0  0  0
 42 16  1  0  0  0  0
 43 19  1  0  0  0  0
 47 25  1  0  0  0  0
 49 27  1  0  0  0  0
 50 27  1  0  0  0  0
 52 28  1  0  0  0  0
 53 28  1  0  0  0  0
 59 30  1  0  0  0  0
M  END
$$$$
