
     RDKit          3D

 59 61  0  0  0  0  0  0  0  0999 V2000
    0.0984   -0.0322    0.0959 N   0  0  0  0  0  0  0  0  0  0  0  0
    1.4969   -0.1731    0.0738 C   0  0  0  0  0  0  0  0  0  0  0  0
    2.1381   -0.2212    1.1080 O   0  0  0  0  0  0  0  0  0  0  0  0
    2.0946   -0.2393   -1.1774 N   0  0  0  0  0  0  0  0  0  0  0  0
    1.4135   -0.0749   -2.3932 C   0  0  0  0  0  0  0  0  0  0  0  0
    2.1046   -0.0715   -3.4786 N   0  0  0  0  0  0  0  0  0  0  0  0
    1.4806    0.1316   -4.7182 C   0  0  0  0  0  0  0  0  0  0  0  0
    1.2791   -0.9718   -5.5782 C   0  0  0  0  0  0  0  0  0  0  0  0
    0.7108   -0.7567   -6.8365 C   0  0  0  0  0  0  0  0  0  0  0  0
    0.3418    0.5218   -7.2774 C   0  0  0  0  0  0  0  0  0  0  0  0
    0.5582    1.5987   -6.4111 C   0  0  0  0  0  0  0  0  0  0  0  0
    1.1210    1.4306   -5.1394 C   0  0  0  0  0  0  0  0  0  0  0  0
    1.3535    2.6091   -4.2298 C   0  0  0  0  0  0  0  0  0  0  0  0
   -0.2418    0.7249   -8.6537 C   0  0  0  0  0  0  0  0  0  0  0  0
    1.6699   -2.3491   -5.1133 C   0  0  0  0  0  0  0  0  0  0  0  0
   -0.0230    0.0484   -2.2845 C   0  0  0  0  0  0  0  0  0  0  0  0
   -0.6412    0.0648   -1.0757 C   0  0  0  0  0  0  0  0  0  0  0  0
   -2.1224    0.1618   -1.0047 C   0  0  0  0  0  0  0  0  0  0  0  0
   -2.7572    1.2550   -1.6177 C   0  0  0  0  0  0  0  0  0  0  0  0
   -4.1520    1.3630   -1.6335 C   0  0  0  0  0  0  0  0  0  0  0  0
   -4.9345    0.3415   -1.0390 C   0  0  0  0  0  0  0  0  0  0  0  0
   -4.2923   -0.7435   -0.4396 C   0  0  0  0  0  0  0  0  0  0  0  0
   -2.9003   -0.8399   -0.4123 C   0  0  0  0  0  0  0  0  0  0  0  0
   -6.2911    0.4044   -0.9825 O   0  0  0  0  0  0  0  0  0  0  0  0
   -7.0072    0.4451   -2.2100 C   0  0  0  0  0  0  0  0  0  0  0  0
   -4.8250    2.4088   -2.1727 O   0  0  0  0  0  0  0  0  0  0  0  0
   -4.0950    3.4503   -2.7846 C   0  0  0  0  0  0  0  0  0  0  0  0
    3.5433   -0.4063   -1.2380 C   0  0  0  0  0  0  0  0  0  0  0  0
   -0.4771    0.2980    1.4115 C   0  0  0  0  0  0  0  0  0  0  0  0
   -0.4810    1.8001    1.6733 C   0  0  0  0  0  0  0  0  0  0  0  0
    0.5526   -1.6167   -7.4950 H   0  0  0  0  0  0  0  0  0  0  0  0
    0.2854    2.6082   -6.7345 H   0  0  0  0  0  0  0  0  0  0  0  0
    2.3808    2.6023   -3.8317 H   0  0  0  0  0  0  0  0  0  0  0  0
    0.6817    2.5894   -3.3539 H   0  0  0  0  0  0  0  0  0  0  0  0
    1.1878    3.5588   -4.7590 H   0  0  0  0  0  0  0  0  0  0  0  0
   -1.0272   -0.0165   -8.8733 H   0  0  0  0  0  0  0  0  0  0  0  0
    0.5285    0.6176   -9.4372 H   0  0  0  0  0  0  0  0  0  0  0  0
   -0.6829    1.7273   -8.7612 H   0  0  0  0  0  0  0  0  0  0  0  0
    1.5522   -3.0920   -5.9155 H   0  0  0  0  0  0  0  0  0  0  0  0
    1.0566   -2.6738   -4.2554 H   0  0  0  0  0  0  0  0  0  0  0  0
    2.7155   -2.3618   -4.7659 H   0  0  0  0  0  0  0  0  0  0  0  0
   -0.6065    0.0860   -3.2012 H   0  0  0  0  0  0  0  0  0  0  0  0
   -2.1385    2.0287   -2.0692 H   0  0  0  0  0  0  0  0  0  0  0  0
   -4.9214   -1.5170    0.0043 H   0  0  0  0  0  0  0  0  0  0  0  0
   -2.4224   -1.7098    0.0418 H   0  0  0  0  0  0  0  0  0  0  0  0
   -8.0714    0.3581   -1.9516 H   0  0  0  0  0  0  0  0  0  0  0  0
   -6.7255   -0.4047   -2.8574 H   0  0  0  0  0  0  0  0  0  0  0  0
   -6.8366    1.3860   -2.7531 H   0  0  0  0  0  0  0  0  0  0  0  0
   -4.8338    4.1732   -3.1537 H   0  0  0  0  0  0  0  0  0  0  0  0
   -3.4925    3.0827   -3.6340 H   0  0  0  0  0  0  0  0  0  0  0  0
   -3.4264    3.9547   -2.0650 H   0  0  0  0  0  0  0  0  0  0  0  0
    4.0027    0.4756   -1.7074 H   0  0  0  0  0  0  0  0  0  0  0  0
    3.7862   -1.2750   -1.8654 H   0  0  0  0  0  0  0  0  0  0  0  0
    3.9142   -0.5392   -0.2179 H   0  0  0  0  0  0  0  0  0  0  0  0
    0.1354   -0.2205    2.1572 H   0  0  0  0  0  0  0  0  0  0  0  0
   -1.4931   -0.1053    1.4585 H   0  0  0  0  0  0  0  0  0  0  0  0
    0.5437    2.2005    1.6478 H   0  0  0  0  0  0  0  0  0  0  0  0
   -0.9052    2.0112    2.6674 H   0  0  0  0  0  0  0  0  0  0  0  0
   -1.0890    2.3312    0.9240 H   0  0  0  0  0  0  0  0  0  0  0  0
  1  2  1  0
  1 17  1  0
  1 29  1  0
  2  3  2  0
  2  4  1  0
  4  5  1  0
  4 28  1  0
  5  6  2  0
  5 16  1  0
  6  7  1  0
  7  8  2  0
  7 12  1  0
  8  9  1  0
  8 15  1  0
  9 10  2  0
  9 31  1  0
 10 11  1  0
 10 14  1  0
 11 12  2  0
 11 32  1  0
 12 13  1  0
 13 33  1  0
 13 34  1  0
 13 35  1  0
 14 36  1  0
 14 37  1  0
 14 38  1  0
 15 39  1  0
 15 40  1  0
 15 41  1  0
 16 17  2  0
 16 42  1  0
 17 18  1  0
 18 19  2  0
 18 23  1  0
 19 20  1  0
 19 43  1  0
 20 21  2  0
 20 26  1  0
 21 22  1  0
 21 24  1  0
 22 23  2  0
 22 44  1  0
 23 45  1  0
 24 25  1  0
 25 46  1  0
 25 47  1  0
 25 48  1  0
 26 27  1  0
 27 49  1  0
 27 50  1  0
 27 51  1  0
 28 52  1  0
 28 53  1  0
 28 54  1  0
 29 30  1  0
 29 55  1  0
 29 56  1  0
 30 57  1  0
 30 58  1  0
 30 59  1  0
M  END

