rmsd36.gzmat
 OpenBabel08211713393D

 59 61  0  0  0  0  0  0  0  0999 V2000
    0.0000    0.0000    0.0000 N   0  0  0  0  0  0  0  0  0  0  0  0
    1.4170    0.0000    0.0000 C   0  0  0  0  0  0  0  0  0  0  0  0
    2.0274    0.0000    1.0513 O   0  0  0  0  0  0  0  0  0  0  0  0
    2.0646   -0.0468   -1.2296 N   0  0  0  0  0  0  0  0  0  0  0  0
    1.3837    0.0464   -2.4703 C   0  0  0  0  0  0  0  0  0  0  0  0
    2.1382    0.1226   -3.5234 N   0  0  0  0  0  0  0  0  0  0  0  0
    1.6206    0.1966   -4.8311 C   0  0  0  0  0  0  0  0  0  0  0  0
    1.1229   -0.9469   -5.4818 C   0  0  0  0  0  0  0  0  0  0  0  0
    0.7374   -0.8603   -6.8191 C   0  0  0  0  0  0  0  0  0  0  0  0
    0.8423    0.3453   -7.5109 C   0  0  0  0  0  0  0  0  0  0  0  0
    1.3380    1.4782   -6.8626 C   0  0  0  0  0  0  0  0  0  0  0  0
    1.7292    1.4160   -5.5278 C   0  0  0  0  0  0  0  0  0  0  0  0
    2.2534    2.6297   -4.8394 C   0  0  0  0  0  0  0  0  0  0  0  0
    0.4329    0.4366   -8.9431 C   0  0  0  0  0  0  0  0  0  0  0  0
    1.0130   -2.2438   -4.7550 C   0  0  0  0  0  0  0  0  0  0  0  0
   -0.0665    0.0448   -2.3820 C   0  0  0  0  0  0  0  0  0  0  0  0
   -0.7148    0.0381   -1.1897 C   0  0  0  0  0  0  0  0  0  0  0  0
   -2.1885    0.0415   -1.1296 C   0  0  0  0  0  0  0  0  0  0  0  0
   -2.8717    1.2081   -1.4865 C   0  0  0  0  0  0  0  0  0  0  0  0
   -4.2601    1.2243   -1.4541 C   0  0  0  0  0  0  0  0  0  0  0  0
   -4.9718    0.0690   -1.0584 C   0  0  0  0  0  0  0  0  0  0  0  0
   -4.2729   -1.0946   -0.7216 C   0  0  0  0  0  0  0  0  0  0  0  0
   -2.8818   -1.1085   -0.7607 C   0  0  0  0  0  0  0  0  0  0  0  0
   -6.3131   -0.0743   -0.9299 O   0  0  0  0  0  0  0  0  0  0  0  0
   -7.1524    0.9777   -1.3891 C   0  0  0  0  0  0  0  0  0  0  0  0
   -5.0291    2.3078   -1.7603 O   0  0  0  0  0  0  0  0  0  0  0  0
   -4.3713    3.3923   -2.4040 C   0  0  0  0  0  0  0  0  0  0  0  0
    3.5353   -0.0893   -1.2306 C   0  0  0  0  0  0  0  0  0  0  0  0
   -0.6585    0.2371    1.3011 C   0  0  0  0  0  0  0  0  0  0  0  0
   -0.8842    1.7306    1.5412 C   0  0  0  0  0  0  0  0  0  0  0  0
    0.3539   -1.7433   -7.3247 H   0  0  0  0  0  0  0  0  0  0  0  0
    1.4237    2.4152   -7.4063 H   0  0  0  0  0  0  0  0  0  0  0  0
    3.1669    2.3934   -4.2670 H   0  0  0  0  0  0  0  0  0  0  0  0
    1.5212    3.0209   -4.1175 H   0  0  0  0  0  0  0  0  0  0  0  0
    2.5027    3.4386   -5.5357 H   0  0  0  0  0  0  0  0  0  0  0  0
    0.0984   -0.5263   -9.3504 H   0  0  0  0  0  0  0  0  0  0  0  0
    1.2658    0.7808   -9.5735 H   0  0  0  0  0  0  0  0  0  0  0  0
   -0.3937    1.1490   -9.0756 H   0  0  0  0  0  0  0  0  0  0  0  0
    0.7536   -3.0795   -5.4158 H   0  0  0  0  0  0  0  0  0  0  0  0
    0.2448   -2.1968   -3.9677 H   0  0  0  0  0  0  0  0  0  0  0  0
    1.9640   -2.5008   -4.2603 H   0  0  0  0  0  0  0  0  0  0  0  0
   -0.6115    0.0482   -3.3249 H   0  0  0  0  0  0  0  0  0  0  0  0
   -2.3053    2.0882   -1.7866 H   0  0  0  0  0  0  0  0  0  0  0  0
   -4.8328   -1.9841   -0.4337 H   0  0  0  0  0  0  0  0  0  0  0  0
   -2.3404   -2.0211   -0.5083 H   0  0  0  0  0  0  0  0  0  0  0  0
   -8.1540    0.5511   -1.2416 H   0  0  0  0  0  0  0  0  0  0  0  0
   -6.9755    1.1935   -2.4474 H   0  0  0  0  0  0  0  0  0  0  0  0
   -7.0201    1.8734   -0.7718 H   0  0  0  0  0  0  0  0  0  0  0  0
   -5.2105    4.0581   -2.6458 H   0  0  0  0  0  0  0  0  0  0  0  0
   -3.8670    3.0652   -3.3197 H   0  0  0  0  0  0  0  0  0  0  0  0
   -3.6783    3.8872   -1.7160 H   0  0  0  0  0  0  0  0  0  0  0  0
    3.9474    0.8731   -1.5847 H   0  0  0  0  0  0  0  0  0  0  0  0
    3.8836   -0.8797   -1.9241 H   0  0  0  0  0  0  0  0  0  0  0  0
    3.9280   -0.3004   -0.2202 H   0  0  0  0  0  0  0  0  0  0  0  0
   -0.0154   -0.1924    2.1091 H   0  0  0  0  0  0  0  0  0  0  0  0
   -1.6221   -0.3203    1.3279 H   0  0  0  0  0  0  0  0  0  0  0  0
    0.0671    2.2786    1.5632 H   0  0  0  0  0  0  0  0  0  0  0  0
   -1.3825    1.8999    2.5030 H   0  0  0  0  0  0  0  0  0  0  0  0
   -1.5097    2.1784    0.7602 H   0  0  0  0  0  0  0  0  0  0  0  0
  1  2  1  0  0  0  0
  1 29  1  0  0  0  0
  2  3  2  0  0  0  0
  4  2  1  0  0  0  0
  5 16  1  0  0  0  0
  5  4  1  0  0  0  0
  6  5  2  0  0  0  0
  7  6  1  0  0  0  0
  8  7  1  0  0  0  0
  8 15  1  0  0  0  0
  9  8  2  0  0  0  0
 10 11  2  0  0  0  0
 10  9  1  0  0  0  0
 11 12  1  0  0  0  0
 12 13  1  0  0  0  0
 12  7  2  0  0  0  0
 13 33  1  0  0  0  0
 13 34  1  0  0  0  0
 14 10  1  0  0  0  0
 15 41  1  0  0  0  0
 15 40  1  0  0  0  0
 16 17  2  0  0  0  0
 17 18  1  0  0  0  0
 17  1  1  0  0  0  0
 18 23  2  0  0  0  0
 19 20  2  0  0  0  0
 19 18  1  0  0  0  0
 20 21  1  0  0  0  0
 21 24  1  0  0  0  0
 21 22  2  0  0  0  0
 22 44  1  0  0  0  0
 23 22  1  0  0  0  0
 23 45  1  0  0  0  0
 25 46  1  0  0  0  0
 25 24  1  0  0  0  0
 25 48  1  0  0  0  0
 26 20  1  0  0  0  0
 27 26  1  0  0  0  0
 27 51  1  0  0  0  0
 28  4  1  0  0  0  0
 28 54  1  0  0  0  0
 29 56  1  0  0  0  0
 29 30  1  0  0  0  0
 29 55  1  0  0  0  0
 30 57  1  0  0  0  0
 30 58  1  0  0  0  0
 31  9  1  0  0  0  0
 32 11  1  0  0  0  0
 35 13  1  0  0  0  0
 36 14  1  0  0  0  0
 37 14  1  0  0  0  0
 38 14  1  0  0  0  0
 39 15  1  0  0  0  0
 42 16  1  0  0  0  0
 43 19  1  0  0  0  0
 47 25  1  0  0  0  0
 49 27  1  0  0  0  0
 50 27  1  0  0  0  0
 52 28  1  0  0  0  0
 53 28  1  0  0  0  0
 59 30  1  0  0  0  0
M  END
$$$$
