59
rmsd45.gzmat
N          0.00000        0.00000        0.00000
C          1.41640        0.00000        0.00000
O          2.02670        0.00000        1.05150
N          2.06290        0.04040       -1.23030
C          1.37800       -0.00470       -2.47100
N          2.12470        0.00270       -3.53320
C          1.58030       -0.01950       -4.83320
C          1.68280       -1.20450       -5.58690
C          1.25350       -1.21090       -6.91180
C          0.72190       -0.05790       -7.49140
C          0.62330        1.11420       -6.74220
C          1.04780        1.14510       -5.41470
C          0.93740        2.40390       -4.62330
C          0.27560       -0.08040       -8.91520
C          2.23360       -2.44230       -4.96620
C         -0.07140       -0.05310       -2.37990
C         -0.71640       -0.06460       -1.18670
C         -2.18970       -0.09370       -1.12050
C         -2.88050        1.11300       -0.97110
C         -4.26840        1.10500       -0.93490
C         -4.97070       -0.11740       -1.03820
C         -4.26410       -1.31260       -1.19880
C         -2.87250       -1.29930       -1.24490
O         -6.31080       -0.30760       -0.96750
C         -7.15700        0.83290       -1.04030
O         -5.04500        2.21460       -0.77740
C         -4.39840        3.46980       -0.94980
C          3.53380        0.06670       -1.23620
C         -0.65990       -0.17160        1.31060
C         -0.80830       -1.65160        1.66530
H          1.33430       -2.12180       -7.49930
H          0.21460        2.01280       -7.19650
H          1.89470        2.64820       -4.13440
H          0.18580        2.30760       -3.82460
H          0.65680        3.26710       -5.23830
H         -0.19010       -1.03760       -9.18560
H          1.13060        0.06900       -9.59170
H         -0.45600        0.70730       -9.13780
H          2.41270       -3.24160       -5.69430
H          1.55040       -2.83550       -4.19830
H          3.19170       -2.23410       -4.45970
H         -0.61760       -0.08030       -3.32220
H         -2.32010        2.04240       -0.88820
H         -4.81690       -2.24710       -1.29180
H         -2.32440       -2.23140       -1.38640
H         -8.15390        0.37350       -1.08710
H         -6.95770        1.42040       -1.94190
H         -7.05590        1.44380       -0.13580
H         -5.24260        4.17100       -0.90960
H         -3.89680        3.53040       -1.92120
H         -3.70430        3.66250       -0.12530
H          3.89010        0.90300       -1.86900
H          3.92870       -0.87210       -1.66680
H          3.93540        0.19240       -0.21540
H         -1.65220        0.33320        1.28550
H         -0.04770        0.35310        2.08560
H         -1.40420       -2.19180        0.92060
H         -1.30100       -1.77270        2.63680
H          0.17090       -2.14510        1.73090
