59

N          0.09840       -0.03220        0.09590
C          1.49690       -0.17310        0.07380
O          2.13810       -0.22120        1.10800
N          2.09460       -0.23930       -1.17740
C          1.41350       -0.07490       -2.39320
N          2.10460       -0.07150       -3.47860
C          1.48060        0.13160       -4.71820
C          1.27910       -0.97180       -5.57820
C          0.71080       -0.75670       -6.83650
C          0.34180        0.52180       -7.27740
C          0.55820        1.59870       -6.41110
C          1.12100        1.43060       -5.13940
C          1.35350        2.60910       -4.22980
C         -0.24180        0.72490       -8.65370
C          1.66990       -2.34910       -5.11330
C         -0.02300        0.04840       -2.28450
C         -0.64120        0.06480       -1.07570
C         -2.12240        0.16180       -1.00470
C         -2.75720        1.25500       -1.61770
C         -4.15200        1.36300       -1.63350
C         -4.93450        0.34150       -1.03900
C         -4.29230       -0.74350       -0.43960
C         -2.90030       -0.83990       -0.41230
O         -6.29110        0.40440       -0.98250
C         -7.00720        0.44510       -2.21000
O         -4.82500        2.40880       -2.17270
C         -4.09500        3.45030       -2.78460
C          3.54330       -0.40630       -1.23800
C         -0.47710        0.29800        1.41150
C         -0.48100        1.80010        1.67330
H          0.55260       -1.61670       -7.49500
H          0.28540        2.60820       -6.73450
H          2.38080        2.60230       -3.83170
H          0.68170        2.58940       -3.35390
H          1.18780        3.55880       -4.75900
H         -1.02720       -0.01650       -8.87330
H          0.52850        0.61760       -9.43720
H         -0.68290        1.72730       -8.76120
H          1.55220       -3.09200       -5.91550
H          1.05660       -2.67380       -4.25540
H          2.71550       -2.36180       -4.76590
H         -0.60650        0.08600       -3.20120
H         -2.13850        2.02870       -2.06920
H         -4.92140       -1.51700        0.00430
H         -2.42240       -1.70980        0.04180
H         -8.07140        0.35810       -1.95160
H         -6.72550       -0.40470       -2.85740
H         -6.83660        1.38600       -2.75310
H         -4.83380        4.17320       -3.15370
H         -3.49250        3.08270       -3.63400
H         -3.42640        3.95470       -2.06500
H          4.00270        0.47560       -1.70740
H          3.78620       -1.27500       -1.86540
H          3.91420       -0.53920       -0.21790
H          0.13540       -0.22050        2.15720
H         -1.49310       -0.10530        1.45850
H          0.54370        2.20050        1.64780
H         -0.90520        2.01120        2.66740
H         -1.08900        2.33120        0.92400
