59
rmsd176.gzmat
N          0.00000        0.00000        0.00000
C          1.41650        0.00000        0.00000
O          2.02670        0.00000        1.05170
N          2.06300        0.03820       -1.23030
C          1.37770       -0.00010       -2.47120
N          2.12570       -0.00070       -3.53220
C          1.58450       -0.03150       -4.83350
C          1.63450       -1.23700       -5.55950
C          1.21000       -1.25390       -6.88590
C          0.73930       -0.09000       -7.49540
C          0.69340        1.10270       -6.77390
C          1.11110        1.14370       -5.44470
C          1.05530        2.42190       -4.67950
C          0.30150       -0.12260       -8.92170
C          2.13140       -2.48260       -4.90950
C         -0.07220       -0.03660       -2.38040
C         -0.71680       -0.05490       -1.18710
C         -2.19000       -0.08220       -1.11670
C         -2.87820        1.12680       -0.96990
C         -4.26540        1.12070       -0.91470
C         -4.97050       -0.10150       -1.00490
C         -4.26670       -1.29910       -1.16450
C         -2.87550       -1.28800       -1.22500
O         -6.31020       -0.29150       -0.93130
C         -7.15540        0.85170       -0.93240
O         -5.04010        2.23070       -0.74960
C         -4.38450        3.48700       -0.86980
C          3.53390        0.06410       -1.23700
C         -0.65890       -0.18420        1.30930
C         -0.80770       -1.66770        1.64900
H          1.24790       -2.18160       -7.45120
H          0.33010        2.00890       -7.25150
H          2.02460        2.63630       -4.20040
H          0.30580        2.37090       -3.87500
H          0.80610        3.28310       -5.31060
H         -0.19140       -1.06940       -9.18020
H          1.16510       -0.01040       -9.59470
H         -0.40410        0.68340       -9.16190
H          2.24300       -3.31590       -5.61250
H          1.45140       -2.80920       -4.10850
H          3.11460       -2.31120       -4.43860
H         -0.61890       -0.05130       -3.32260
H         -2.31530        2.05620       -0.90340
H         -4.82190       -2.23380       -1.24300
H         -2.33090       -2.22260       -1.36480
H         -8.15390        0.39490       -0.96590
H         -6.98380        1.47170       -1.81780
H         -7.02490        1.42900       -0.01040
H         -5.22420        4.19200       -0.80320
H         -3.88170        3.58250       -1.83770
H         -3.69010        3.64180       -0.03750
H          3.88990        0.92430       -1.83650
H          3.92720       -0.85720       -1.70580
H          3.93710        0.14840       -0.21240
H         -1.65070        0.32200        1.29070
H         -0.04560        0.33170        2.08930
H         -1.41170       -2.19920        0.90430
H         -1.29170       -1.79780        2.62380
H          0.17140       -2.16360        1.69990
