rmsd176.gzmat
 OpenBabel08211713393D

 59 61  0  0  0  0  0  0  0  0999 V2000
    0.0000    0.0000    0.0000 N   0  0  0  0  0  0  0  0  0  0  0  0
    1.4165    0.0000    0.0000 C   0  0  0  0  0  0  0  0  0  0  0  0
    2.0267    0.0000    1.0517 O   0  0  0  0  0  0  0  0  0  0  0  0
    2.0630    0.0382   -1.2303 N   0  0  0  0  0  0  0  0  0  0  0  0
    1.3777   -0.0001   -2.4712 C   0  0  0  0  0  0  0  0  0  0  0  0
    2.1257   -0.0007   -3.5322 N   0  0  0  0  0  0  0  0  0  0  0  0
    1.5845   -0.0315   -4.8335 C   0  0  0  0  0  0  0  0  0  0  0  0
    1.6345   -1.2370   -5.5595 C   0  0  0  0  0  0  0  0  0  0  0  0
    1.2100   -1.2539   -6.8859 C   0  0  0  0  0  0  0  0  0  0  0  0
    0.7393   -0.0900   -7.4954 C   0  0  0  0  0  0  0  0  0  0  0  0
    0.6934    1.1027   -6.7739 C   0  0  0  0  0  0  0  0  0  0  0  0
    1.1111    1.1437   -5.4447 C   0  0  0  0  0  0  0  0  0  0  0  0
    1.0553    2.4219   -4.6795 C   0  0  0  0  0  0  0  0  0  0  0  0
    0.3015   -0.1226   -8.9217 C   0  0  0  0  0  0  0  0  0  0  0  0
    2.1314   -2.4826   -4.9095 C   0  0  0  0  0  0  0  0  0  0  0  0
   -0.0722   -0.0366   -2.3804 C   0  0  0  0  0  0  0  0  0  0  0  0
   -0.7168   -0.0549   -1.1871 C   0  0  0  0  0  0  0  0  0  0  0  0
   -2.1900   -0.0822   -1.1167 C   0  0  0  0  0  0  0  0  0  0  0  0
   -2.8782    1.1268   -0.9699 C   0  0  0  0  0  0  0  0  0  0  0  0
   -4.2654    1.1207   -0.9147 C   0  0  0  0  0  0  0  0  0  0  0  0
   -4.9705   -0.1015   -1.0049 C   0  0  0  0  0  0  0  0  0  0  0  0
   -4.2667   -1.2991   -1.1645 C   0  0  0  0  0  0  0  0  0  0  0  0
   -2.8755   -1.2880   -1.2250 C   0  0  0  0  0  0  0  0  0  0  0  0
   -6.3102   -0.2915   -0.9313 O   0  0  0  0  0  0  0  0  0  0  0  0
   -7.1554    0.8517   -0.9324 C   0  0  0  0  0  0  0  0  0  0  0  0
   -5.0401    2.2307   -0.7496 O   0  0  0  0  0  0  0  0  0  0  0  0
   -4.3845    3.4870   -0.8698 C   0  0  0  0  0  0  0  0  0  0  0  0
    3.5339    0.0641   -1.2370 C   0  0  0  0  0  0  0  0  0  0  0  0
   -0.6589   -0.1842    1.3093 C   0  0  0  0  0  0  0  0  0  0  0  0
   -0.8077   -1.6677    1.6490 C   0  0  0  0  0  0  0  0  0  0  0  0
    1.2479   -2.1816   -7.4512 H   0  0  0  0  0  0  0  0  0  0  0  0
    0.3301    2.0089   -7.2515 H   0  0  0  0  0  0  0  0  0  0  0  0
    2.0246    2.6363   -4.2004 H   0  0  0  0  0  0  0  0  0  0  0  0
    0.3058    2.3709   -3.8750 H   0  0  0  0  0  0  0  0  0  0  0  0
    0.8061    3.2831   -5.3106 H   0  0  0  0  0  0  0  0  0  0  0  0
   -0.1914   -1.0694   -9.1802 H   0  0  0  0  0  0  0  0  0  0  0  0
    1.1651   -0.0104   -9.5947 H   0  0  0  0  0  0  0  0  0  0  0  0
   -0.4041    0.6834   -9.1619 H   0  0  0  0  0  0  0  0  0  0  0  0
    2.2430   -3.3159   -5.6125 H   0  0  0  0  0  0  0  0  0  0  0  0
    1.4514   -2.8092   -4.1085 H   0  0  0  0  0  0  0  0  0  0  0  0
    3.1146   -2.3112   -4.4386 H   0  0  0  0  0  0  0  0  0  0  0  0
   -0.6189   -0.0513   -3.3226 H   0  0  0  0  0  0  0  0  0  0  0  0
   -2.3153    2.0562   -0.9034 H   0  0  0  0  0  0  0  0  0  0  0  0
   -4.8219   -2.2338   -1.2430 H   0  0  0  0  0  0  0  0  0  0  0  0
   -2.3309   -2.2226   -1.3648 H   0  0  0  0  0  0  0  0  0  0  0  0
   -8.1539    0.3949   -0.9659 H   0  0  0  0  0  0  0  0  0  0  0  0
   -6.9838    1.4717   -1.8178 H   0  0  0  0  0  0  0  0  0  0  0  0
   -7.0249    1.4290   -0.0104 H   0  0  0  0  0  0  0  0  0  0  0  0
   -5.2242    4.1920   -0.8032 H   0  0  0  0  0  0  0  0  0  0  0  0
   -3.8817    3.5825   -1.8377 H   0  0  0  0  0  0  0  0  0  0  0  0
   -3.6901    3.6418   -0.0375 H   0  0  0  0  0  0  0  0  0  0  0  0
    3.8899    0.9243   -1.8365 H   0  0  0  0  0  0  0  0  0  0  0  0
    3.9272   -0.8572   -1.7058 H   0  0  0  0  0  0  0  0  0  0  0  0
    3.9371    0.1484   -0.2124 H   0  0  0  0  0  0  0  0  0  0  0  0
   -1.6507    0.3220    1.2907 H   0  0  0  0  0  0  0  0  0  0  0  0
   -0.0456    0.3317    2.0893 H   0  0  0  0  0  0  0  0  0  0  0  0
   -1.4117   -2.1992    0.9043 H   0  0  0  0  0  0  0  0  0  0  0  0
   -1.2917   -1.7978    2.6238 H   0  0  0  0  0  0  0  0  0  0  0  0
    0.1714   -2.1636    1.6999 H   0  0  0  0  0  0  0  0  0  0  0  0
  1  2  1  0  0  0  0
  1 29  1  0  0  0  0
  2  3  2  0  0  0  0
  4  2  1  0  0  0  0
  5 16  1  0  0  0  0
  5  4  1  0  0  0  0
  6  5  2  0  0  0  0
  7  6  1  0  0  0  0
  8 15  1  0  0  0  0
  8  7  2  0  0  0  0
  9  8  1  0  0  0  0
 10  9  2  0  0  0  0
 10 11  1  0  0  0  0
 11 12  2  0  0  0  0
 12  7  1  0  0  0  0
 12 13  1  0  0  0  0
 13 33  1  0  0  0  0
 13 34  1  0  0  0  0
 14 10  1  0  0  0  0
 15 41  1  0  0  0  0
 15 40  1  0  0  0  0
 16 17  2  0  0  0  0
 17 18  1  0  0  0  0
 17  1  1  0  0  0  0
 18 19  2  0  0  0  0
 19 20  1  0  0  0  0
 19 43  1  0  0  0  0
 20 26  1  0  0  0  0
 21 24  1  0  0  0  0
 21 20  2  0  0  0  0
 22 21  1  0  0  0  0
 23 22  2  0  0  0  0
 23 18  1  0  0  0  0
 25 24  1  0  0  0  0
 25 48  1  0  0  0  0
 27 49  1  0  0  0  0
 27 26  1  0  0  0  0
 27 51  1  0  0  0  0
 28  4  1  0  0  0  0
 28 54  1  0  0  0  0
 29 30  1  0  0  0  0
 29 56  1  0  0  0  0
 30 59  1  0  0  0  0
 30 58  1  0  0  0  0
 31  9  1  0  0  0  0
 32 11  1  0  0  0  0
 35 13  1  0  0  0  0
 36 14  1  0  0  0  0
 37 14  1  0  0  0  0
 38 14  1  0  0  0  0
 39 15  1  0  0  0  0
 42 16  1  0  0  0  0
 44 22  1  0  0  0  0
 45 23  1  0  0  0  0
 46 25  1  0  0  0  0
 47 25  1  0  0  0  0
 50 27  1  0  0  0  0
 52 28  1  0  0  0  0
 53 28  1  0  0  0  0
 55 29  1  0  0  0  0
 57 30  1  0  0  0  0
M  END
$$$$
