59

N          0.08910       -0.01800        0.08950
C          1.48610       -0.17400        0.07450
O          2.12200       -0.22200        1.11190
N          2.08870       -0.25560       -1.17360
C          1.41520       -0.08750       -2.39310
N          2.11160       -0.09290       -3.47510
C          1.49540        0.11280       -4.71810
C          1.28960       -0.98920       -5.57740
C          0.72840       -0.77090       -6.83940
C          0.37130        0.50920       -7.28310
C          0.59080        1.58580       -6.41580
C          1.14620        1.41470       -5.14220
C          1.38150        2.59190       -4.23150
C         -0.19910        0.72350       -8.66330
C          1.66740       -2.36930       -5.10970
C         -0.02060        0.04900       -2.29190
C         -0.64450        0.07820       -1.08610
C         -2.12500        0.18820       -1.02300
C         -2.74830        1.27850       -1.65270
C         -4.14200        1.39790       -1.67690
C         -4.93620        0.38980       -1.07480
C         -4.30520       -0.69260       -0.45830
C         -2.91430       -0.79960       -0.42210
O         -6.29230        0.45920       -1.02480
C         -7.00840        0.53060       -2.25060
O         -4.80250        2.44430       -2.23090
C         -4.06060        3.46880       -2.85650
C          3.53580       -0.43840       -1.22640
C         -0.48680        0.33290        1.39970
C         -0.46900        1.83740        1.64710
H          0.56600       -1.63020       -7.49750
H          0.32590        2.59720       -6.74050
H          2.40510        2.57590       -3.82440
H          0.70180        2.57880       -3.36170
H          1.22910        3.54260       -4.76280
H         -0.73190       -0.17010       -9.02340
H          0.59610        0.94570       -9.39650
H         -0.90360        1.56980       -8.68340
H          1.54380       -3.11230       -5.91090
H          1.05060       -2.68710       -4.25180
H          2.71270       -2.39100       -4.76170
H         -0.59920        0.08560       -3.21160
H         -2.12130        2.04220       -2.10970
H         -4.94270       -1.45610       -0.00910
H         -2.44620       -1.66810        0.04480
H         -8.06910        0.39630       -1.99820
H         -6.69840       -0.27930       -2.93510
H         -6.86910        1.49940       -2.75190
H         -4.79090        4.19320       -3.23930
H         -3.45900        3.08220       -3.69810
H         -3.38920        3.97810       -2.14290
H          4.00850        0.44130       -1.68680
H          3.77210       -1.30560       -1.85800
H          3.89890       -0.58160       -0.20490
H          0.11430       -0.18800        2.15290
H         -1.50910       -0.05420        1.44570
H          0.56170        2.22190        1.62250
H         -0.89460        2.06450        2.63700
H         -1.06550        2.37010        0.88970
