rmsd119.gzmat
 OpenBabel08211713393D

 59 61  0  0  0  0  0  0  0  0999 V2000
    0.0000    0.0000    0.0000 N   0  0  0  0  0  0  0  0  0  0  0  0
    1.4166    0.0000    0.0000 C   0  0  0  0  0  0  0  0  0  0  0  0
    2.0265    0.0000    1.0517 O   0  0  0  0  0  0  0  0  0  0  0  0
    2.0638   -0.0503   -1.2300 N   0  0  0  0  0  0  0  0  0  0  0  0
    1.3817    0.0364   -2.4709 C   0  0  0  0  0  0  0  0  0  0  0  0
    2.1338    0.0858   -3.5276 N   0  0  0  0  0  0  0  0  0  0  0  0
    1.6082    0.1554   -4.8329 C   0  0  0  0  0  0  0  0  0  0  0  0
    1.0630   -0.9776   -5.4631 C   0  0  0  0  0  0  0  0  0  0  0  0
    0.6629   -0.8932   -6.7964 C   0  0  0  0  0  0  0  0  0  0  0  0
    0.8000    0.2998   -7.5040 C   0  0  0  0  0  0  0  0  0  0  0  0
    1.3474    1.4208   -6.8772 C   0  0  0  0  0  0  0  0  0  0  0  0
    1.7514    1.3619   -5.5462 C   0  0  0  0  0  0  0  0  0  0  0  0
    2.3148    2.5678   -4.8757 C   0  0  0  0  0  0  0  0  0  0  0  0
    0.3565    0.3950   -8.9257 C   0  0  0  0  0  0  0  0  0  0  0  0
    0.9122   -2.2612   -4.7197 C   0  0  0  0  0  0  0  0  0  0  0  0
   -0.0685    0.0520   -2.3814 C   0  0  0  0  0  0  0  0  0  0  0  0
   -0.7151    0.0435   -1.1888 C   0  0  0  0  0  0  0  0  0  0  0  0
   -2.1886    0.0205   -1.1269 C   0  0  0  0  0  0  0  0  0  0  0  0
   -2.8313   -1.1997   -0.8918 C   0  0  0  0  0  0  0  0  0  0  0  0
   -4.2184   -1.2459   -0.8634 C   0  0  0  0  0  0  0  0  0  0  0  0
   -4.9694   -0.0665   -1.0747 C   0  0  0  0  0  0  0  0  0  0  0  0
   -4.3101    1.1424   -1.3132 C   0  0  0  0  0  0  0  0  0  0  0  0
   -2.9185    1.1848   -1.3422 C   0  0  0  0  0  0  0  0  0  0  0  0
   -6.3181    0.0668   -1.0405 O   0  0  0  0  0  0  0  0  0  0  0  0
   -7.1097   -1.1135   -1.0899 C   0  0  0  0  0  0  0  0  0  0  0  0
   -4.9533   -2.3665   -0.6127 O   0  0  0  0  0  0  0  0  0  0  0  0
   -4.2547   -3.6048   -0.6357 C   0  0  0  0  0  0  0  0  0  0  0  0
    3.5347   -0.0828   -1.2312 C   0  0  0  0  0  0  0  0  0  0  0  0
   -0.6606    0.2181    1.3034 C   0  0  0  0  0  0  0  0  0  0  0  0
   -0.8364    1.7099    1.5903 C   0  0  0  0  0  0  0  0  0  0  0  0
    0.2421   -1.7676   -7.2861 H   0  0  0  0  0  0  0  0  0  0  0  0
    1.4596    2.3478   -7.4338 H   0  0  0  0  0  0  0  0  0  0  0  0
    3.2430    2.3198   -4.3334 H   0  0  0  0  0  0  0  0  0  0  0  0
    1.6107    2.9660   -4.1298 H   0  0  0  0  0  0  0  0  0  0  0  0
    2.5503    3.3761   -5.5774 H   0  0  0  0  0  0  0  0  0  0  0  0
    0.0908   -0.5801   -9.3530 H   0  0  0  0  0  0  0  0  0  0  0  0
    1.1409    0.8238   -9.5653 H   0  0  0  0  0  0  0  0  0  0  0  0
   -0.5290    1.0413   -9.0172 H   0  0  0  0  0  0  0  0  0  0  0  0
    0.6391   -3.0988   -5.3728 H   0  0  0  0  0  0  0  0  0  0  0  0
    0.1367   -2.1831   -3.9421 H   0  0  0  0  0  0  0  0  0  0  0  0
    1.8504   -2.5370   -4.2112 H   0  0  0  0  0  0  0  0  0  0  0  0
   -0.6149    0.0696   -3.3239 H   0  0  0  0  0  0  0  0  0  0  0  0
   -2.2341   -2.0963   -0.7358 H   0  0  0  0  0  0  0  0  0  0  0  0
   -4.8995    2.0434   -1.4817 H   0  0  0  0  0  0  0  0  0  0  0  0
   -2.4069    2.1267   -1.5432 H   0  0  0  0  0  0  0  0  0  0  0  0
   -8.1208   -0.7050   -1.2216 H   0  0  0  0  0  0  0  0  0  0  0  0
   -7.0354   -1.6621   -0.1444 H   0  0  0  0  0  0  0  0  0  0  0  0
   -6.8334   -1.7466   -1.9382 H   0  0  0  0  0  0  0  0  0  0  0  0
   -5.0682   -4.3290   -0.4922 H   0  0  0  0  0  0  0  0  0  0  0  0
   -3.5416   -3.6653    0.1927 H   0  0  0  0  0  0  0  0  0  0  0  0
   -3.7643   -3.7645   -1.6013 H   0  0  0  0  0  0  0  0  0  0  0  0
    3.9393    0.8816   -1.5885 H   0  0  0  0  0  0  0  0  0  0  0  0
    3.8896   -0.8730   -1.9217 H   0  0  0  0  0  0  0  0  0  0  0  0
    3.9284   -0.2879   -0.2202 H   0  0  0  0  0  0  0  0  0  0  0  0
   -0.0386   -0.2598    2.1006 H   0  0  0  0  0  0  0  0  0  0  0  0
   -1.6441   -0.3040    1.3042 H   0  0  0  0  0  0  0  0  0  0  0  0
    0.1316    2.2279    1.6127 H   0  0  0  0  0  0  0  0  0  0  0  0
   -1.3127    1.8666    2.5650 H   0  0  0  0  0  0  0  0  0  0  0  0
   -1.4603    2.2000    0.8333 H   0  0  0  0  0  0  0  0  0  0  0  0
  1  2  1  0  0  0  0
  1 29  1  0  0  0  0
  2  3  2  0  0  0  0
  4  2  1  0  0  0  0
  5 16  1  0  0  0  0
  5  4  1  0  0  0  0
  6  5  2  0  0  0  0
  7  6  1  0  0  0  0
  8  7  1  0  0  0  0
  8 15  1  0  0  0  0
  9  8  2  0  0  0  0
 10 11  2  0  0  0  0
 10  9  1  0  0  0  0
 11 12  1  0  0  0  0
 12 13  1  0  0  0  0
 12  7  2  0  0  0  0
 13 33  1  0  0  0  0
 13 34  1  0  0  0  0
 14 10  1  0  0  0  0
 15 41  1  0  0  0  0
 15 40  1  0  0  0  0
 16 17  2  0  0  0  0
 17 18  1  0  0  0  0
 17  1  1  0  0  0  0
 18 19  2  0  0  0  0
 19 20  1  0  0  0  0
 19 43  1  0  0  0  0
 20 26  1  0  0  0  0
 21 24  1  0  0  0  0
 21 20  2  0  0  0  0
 22 21  1  0  0  0  0
 23 22  2  0  0  0  0
 23 18  1  0  0  0  0
 25 24  1  0  0  0  0
 25 47  1  0  0  0  0
 27 26  1  0  0  0  0
 27 49  1  0  0  0  0
 27 50  1  0  0  0  0
 28  4  1  0  0  0  0
 28 54  1  0  0  0  0
 29 56  1  0  0  0  0
 29 30  1  0  0  0  0
 29 55  1  0  0  0  0
 30 57  1  0  0  0  0
 30 58  1  0  0  0  0
 31  9  1  0  0  0  0
 32 11  1  0  0  0  0
 35 13  1  0  0  0  0
 36 14  1  0  0  0  0
 37 14  1  0  0  0  0
 38 14  1  0  0  0  0
 39 15  1  0  0  0  0
 42 16  1  0  0  0  0
 44 22  1  0  0  0  0
 45 23  1  0  0  0  0
 46 25  1  0  0  0  0
 48 25  1  0  0  0  0
 51 27  1  0  0  0  0
 52 28  1  0  0  0  0
 53 28  1  0  0  0  0
 59 30  1  0  0  0  0
M  END
$$$$
