59
rmsd37.gzmat
N          0.00000        0.00000        0.00000
C          1.41680        0.00000        0.00000
O          2.02650        0.00000        1.05180
N          2.06450       -0.04140       -1.22990
C          1.38190        0.03230       -2.47080
N          2.13270        0.08480       -3.52840
C          1.60440        0.14180       -4.83330
C          1.09580       -1.00910       -5.46250
C          0.70280       -0.94140       -6.79880
C          0.81080        0.25220       -7.51060
C          1.31230        1.39370       -6.88210
C          1.70940        1.35120       -5.54830
C          2.23040        2.57660       -4.87850
C          0.39080        0.32500       -8.94070
C          0.97990       -2.29340       -4.71450
C         -0.06820        0.04480       -2.38080
C         -0.71510        0.04780       -1.18810
C         -2.18850        0.07280       -1.12290
C         -2.85350        1.27150       -1.39740
C         -4.24120        1.30940       -1.35050
C         -4.96940        0.14280       -1.02370
C         -4.28850       -1.05200       -0.77030
C         -2.89830       -1.08690       -0.82330
O         -6.31190        0.01320       -0.89160
C         -7.13730        1.10450       -1.27740
O         -4.99380        2.42320       -1.57810
C         -4.32100        3.54060       -2.14580
C          3.53530       -0.07580       -1.23330
C         -0.65970        0.20590        1.30580
C         -0.84980        1.69450        1.60050
H          0.31050       -1.82930       -7.28810
H          1.39500        2.32240       -7.44040
H          3.18050        2.36570       -4.35820
H          1.52650        2.93740       -4.11400
H          2.41450        3.39880       -5.57930
H          0.11200       -0.65400       -9.35100
H          1.19660        0.72260       -9.57440
H         -0.47810        0.98770       -9.06330
H          0.67800       -3.13160       -5.35380
H          0.24170       -2.21770       -3.90120
H          1.94110       -2.56640       -4.24910
H         -0.61370        0.05190       -3.32350
H         -2.27440        2.15950       -1.64510
H         -4.86160       -1.94890       -0.53600
H         -2.37060       -2.02270       -0.63580
H         -8.14420        0.68620       -1.14320
H         -6.96810        1.37790       -2.32360
H         -6.98270        1.96030       -0.61070
H         -5.15110        4.23200       -2.34390
H         -3.81760        3.27110       -3.08040
H         -3.62420        3.97900       -1.42430
H          3.93870        0.85740       -1.66790
H          3.88650       -0.91740       -1.86160
H          3.93370       -0.20000       -0.21090
H         -0.03190       -0.26990        2.09990
H         -1.63750       -0.32760        1.30750
H          0.11340        2.22160        1.63100
H         -1.33330        1.84110        2.57350
H         -1.47340        2.18300        0.84290
