30
rmsd138.gzmat
Cl         0.00000        0.00000        0.00000
C          1.70610        0.00000        0.00000
C          2.38090        0.00000        1.22080
C          1.68850        0.00170        2.50570
C          0.88070        1.00280        2.88560
C          0.22040        1.00800        4.18100
C         -0.73920        1.89430        4.48930
C         -1.39850        1.91670        5.79360
C         -0.64580        1.83870        6.96960
C         -1.28140        1.86890        8.20800
C         -2.66990        1.96670        8.27810
C         -3.42300        2.04270        7.10710
C         -2.79120        2.02570        5.86660
C          3.77550       -0.00480        1.16020
Cl         4.65370        0.01350        2.62320
C          4.47620       -0.01020       -0.03830
C          3.76080       -0.01190       -1.23600
C          2.36680       -0.00620       -1.22250
H          1.88620       -0.86430        3.14320
H          0.68980        1.86210        2.23710
H          0.54030        0.24560        4.89480
H         -1.08560        2.64460        3.77540
H          0.43890        1.76210        6.91360
H         -0.69370        1.81680        9.12250
H         -3.16630        1.98500        9.24560
H         -4.50720        2.11690        7.16250
H         -3.38200        2.08880        4.95460
H          5.56690       -0.01160       -0.05010
H          4.29580       -0.01780       -2.18610
H          1.80860       -0.00600       -2.16000
