rmsd150.gzmat
 OpenBabel08211713383D

 30 31  0  0  0  0  0  0  0  0999 V2000
    0.0000    0.0000    0.0000 Cl  0  0  0  0  0  0  0  0  0  0  0  0
    1.7060    0.0000    0.0000 C   0  0  0  0  0  0  0  0  0  0  0  0
    2.3784    0.0000    1.2226 C   0  0  0  0  0  0  0  0  0  0  0  0
    1.6700    0.0246    2.4988 C   0  0  0  0  0  0  0  0  0  0  0  0
    0.8879   -0.9841    2.9107 C   0  0  0  0  0  0  0  0  0  0  0  0
    0.1624   -0.9293    4.1701 C   0  0  0  0  0  0  0  0  0  0  0  0
   -0.6377   -1.9301    4.5732 C   0  0  0  0  0  0  0  0  0  0  0  0
   -1.4165   -1.8894    5.8076 C   0  0  0  0  0  0  0  0  0  0  0  0
   -0.9438   -1.2418    6.9536 C   0  0  0  0  0  0  0  0  0  0  0  0
   -1.7222   -1.2062    8.1082 C   0  0  0  0  0  0  0  0  0  0  0  0
   -2.9748   -1.8163    8.1284 C   0  0  0  0  0  0  0  0  0  0  0  0
   -3.4463   -2.4716    6.9914 C   0  0  0  0  0  0  0  0  0  0  0  0
   -2.6704   -2.5125    5.8373 C   0  0  0  0  0  0  0  0  0  0  0  0
    3.7724   -0.0013    1.1654 C   0  0  0  0  0  0  0  0  0  0  0  0
    4.6474   -0.0121    2.6296 Cl  0  0  0  0  0  0  0  0  0  0  0  0
    4.4760   -0.0007   -0.0319 C   0  0  0  0  0  0  0  0  0  0  0  0
    3.7635    0.0066   -1.2310 C   0  0  0  0  0  0  0  0  0  0  0  0
    2.3696    0.0081   -1.2206 C   0  0  0  0  0  0  0  0  0  0  0  0
    1.8221    0.9275    3.0954 H   0  0  0  0  0  0  0  0  0  0  0  0
    0.7572   -1.8870    2.3086 H   0  0  0  0  0  0  0  0  0  0  0  0
    0.2840   -0.0209    4.7637 H   0  0  0  0  0  0  0  0  0  0  0  0
   -0.7655   -2.8340    3.9706 H   0  0  0  0  0  0  0  0  0  0  0  0
    0.0369   -0.7696    6.9468 H   0  0  0  0  0  0  0  0  0  0  0  0
   -1.3505   -0.6995    8.9968 H   0  0  0  0  0  0  0  0  0  0  0  0
   -3.5846   -1.7838    9.0284 H   0  0  0  0  0  0  0  0  0  0  0  0
   -4.4227   -2.9518    7.0066 H   0  0  0  0  0  0  0  0  0  0  0  0
   -3.0427   -3.0236    4.9513 H   0  0  0  0  0  0  0  0  0  0  0  0
    5.5668   -0.0047   -0.0412 H   0  0  0  0  0  0  0  0  0  0  0  0
    4.2999    0.0119   -2.1801 H   0  0  0  0  0  0  0  0  0  0  0  0
    1.8145    0.0176   -2.1594 H   0  0  0  0  0  0  0  0  0  0  0  0
  2  1  1  0  0  0  0
  2  3  2  0  0  0  0
  3  4  1  0  0  0  0
  4  5  2  0  0  0  0
  4 19  1  0  0  0  0
  5  6  1  0  0  0  0
  6  7  2  0  0  0  0
  6 21  1  0  0  0  0
  7  8  1  0  0  0  0
  8 13  2  0  0  0  0
  8  9  1  0  0  0  0
  9 10  2  0  0  0  0
 10 11  1  0  0  0  0
 10 24  1  0  0  0  0
 11 25  1  0  0  0  0
 12 26  1  0  0  0  0
 12 11  2  0  0  0  0
 13 12  1  0  0  0  0
 14  3  1  0  0  0  0
 14 15  1  0  0  0  0
 16 14  2  0  0  0  0
 17 18  2  0  0  0  0
 17 16  1  0  0  0  0
 18  2  1  0  0  0  0
 20  5  1  0  0  0  0
 22  7  1  0  0  0  0
 23  9  1  0  0  0  0
 27 13  1  0  0  0  0
 28 16  1  0  0  0  0
 29 17  1  0  0  0  0
 30 18  1  0  0  0  0
M  END
$$$$
