rmsd101.gzmat
 OpenBabel08211713383D

 30 31  0  0  0  0  0  0  0  0999 V2000
    0.0000    0.0000    0.0000 Cl  0  0  0  0  0  0  0  0  0  0  0  0
    1.7063    0.0000    0.0000 C   0  0  0  0  0  0  0  0  0  0  0  0
    2.3826    0.0000    1.2201 C   0  0  0  0  0  0  0  0  0  0  0  0
    1.6952    0.0092    2.5074 C   0  0  0  0  0  0  0  0  0  0  0  0
    0.8642   -0.9700    2.8953 C   0  0  0  0  0  0  0  0  0  0  0  0
    0.2135   -0.9507    4.1960 C   0  0  0  0  0  0  0  0  0  0  0  0
   -0.7383   -1.8329    4.5401 C   0  0  0  0  0  0  0  0  0  0  0  0
   -1.3794   -1.8189    5.8542 C   0  0  0  0  0  0  0  0  0  0  0  0
   -0.6174   -1.6558    7.0156 C   0  0  0  0  0  0  0  0  0  0  0  0
   -1.2389   -1.6334    8.2614 C   0  0  0  0  0  0  0  0  0  0  0  0
   -2.6226   -1.7716    8.3545 C   0  0  0  0  0  0  0  0  0  0  0  0
   -3.3844   -1.9410    7.1990 C   0  0  0  0  0  0  0  0  0  0  0  0
   -2.7661   -1.9713    5.9520 C   0  0  0  0  0  0  0  0  0  0  0  0
    3.7775    0.0057    1.1553 C   0  0  0  0  0  0  0  0  0  0  0  0
    4.6619   -0.0071    2.6149 Cl  0  0  0  0  0  0  0  0  0  0  0  0
    4.4763    0.0105   -0.0444 C   0  0  0  0  0  0  0  0  0  0  0  0
    3.7593    0.0118   -1.2409 C   0  0  0  0  0  0  0  0  0  0  0  0
    2.3654    0.0081   -1.2235 C   0  0  0  0  0  0  0  0  0  0  0  0
    1.9192    0.8699    3.1444 H   0  0  0  0  0  0  0  0  0  0  0  0
    0.6494   -1.8275    2.2524 H   0  0  0  0  0  0  0  0  0  0  0  0
    0.5376   -0.1691    4.8878 H   0  0  0  0  0  0  0  0  0  0  0  0
   -1.0926   -2.6030    3.8520 H   0  0  0  0  0  0  0  0  0  0  0  0
    0.4643   -1.5537    6.9431 H   0  0  0  0  0  0  0  0  0  0  0  0
   -0.6430   -1.5078    9.1633 H   0  0  0  0  0  0  0  0  0  0  0  0
   -3.1081   -1.7491    9.3280 H   0  0  0  0  0  0  0  0  0  0  0  0
   -4.4649   -2.0502    7.2726 H   0  0  0  0  0  0  0  0  0  0  0  0
   -3.3620   -2.1039    5.0513 H   0  0  0  0  0  0  0  0  0  0  0  0
    5.5672    0.0132   -0.0579 H   0  0  0  0  0  0  0  0  0  0  0  0
    4.2909    0.0149   -2.1929 H   0  0  0  0  0  0  0  0  0  0  0  0
    1.8061    0.0120   -2.1603 H   0  0  0  0  0  0  0  0  0  0  0  0
  2  1  1  0  0  0  0
  2  3  2  0  0  0  0
  3  4  1  0  0  0  0
  4  5  2  0  0  0  0
  4 19  1  0  0  0  0
  5  6  1  0  0  0  0
  6  7  2  0  0  0  0
  6 21  1  0  0  0  0
  7  8  1  0  0  0  0
  8 13  2  0  0  0  0
  8  9  1  0  0  0  0
  9 10  2  0  0  0  0
 10 11  1  0  0  0  0
 10 24  1  0  0  0  0
 11 25  1  0  0  0  0
 12 26  1  0  0  0  0
 12 11  2  0  0  0  0
 13 12  1  0  0  0  0
 14  3  1  0  0  0  0
 14 15  1  0  0  0  0
 16 14  2  0  0  0  0
 17 18  2  0  0  0  0
 17 16  1  0  0  0  0
 18  2  1  0  0  0  0
 20  5  1  0  0  0  0
 22  7  1  0  0  0  0
 23  9  1  0  0  0  0
 27 13  1  0  0  0  0
 28 16  1  0  0  0  0
 29 17  1  0  0  0  0
 30 18  1  0  0  0  0
M  END
$$$$
