rmsd160.gzmat
 OpenBabel08211713383D

 30 31  0  0  0  0  0  0  0  0999 V2000
    0.0000    0.0000    0.0000 Cl  0  0  0  0  0  0  0  0  0  0  0  0
    1.7061    0.0000    0.0000 C   0  0  0  0  0  0  0  0  0  0  0  0
    2.3737    0.0000    1.2255 C   0  0  0  0  0  0  0  0  0  0  0  0
    1.6398    0.0261    2.4871 C   0  0  0  0  0  0  0  0  0  0  0  0
    1.7184   -0.9628    3.3895 C   0  0  0  0  0  0  0  0  0  0  0  0
    1.0069   -0.9018    4.6569 C   0  0  0  0  0  0  0  0  0  0  0  0
    1.3195   -1.7041    5.6870 C   0  0  0  0  0  0  0  0  0  0  0  0
    0.6509   -1.6253    6.9837 C   0  0  0  0  0  0  0  0  0  0  0  0
   -0.7343   -1.4570    7.0729 C   0  0  0  0  0  0  0  0  0  0  0  0
   -1.3486   -1.3724    8.3199 C   0  0  0  0  0  0  0  0  0  0  0  0
   -0.5843   -1.4522    9.4826 C   0  0  0  0  0  0  0  0  0  0  0  0
    0.7970   -1.6238    9.3974 C   0  0  0  0  0  0  0  0  0  0  0  0
    1.4141   -1.7155    8.1534 C   0  0  0  0  0  0  0  0  0  0  0  0
    3.7681   -0.0048    1.1726 C   0  0  0  0  0  0  0  0  0  0  0  0
    4.6483    0.0022    2.6341 Cl  0  0  0  0  0  0  0  0  0  0  0  0
    4.4737   -0.0061   -0.0243 C   0  0  0  0  0  0  0  0  0  0  0  0
    3.7654   -0.0080   -1.2256 C   0  0  0  0  0  0  0  0  0  0  0  0
    2.3706   -0.0060   -1.2194 C   0  0  0  0  0  0  0  0  0  0  0  0
    1.0214    0.9136    2.6467 H   0  0  0  0  0  0  0  0  0  0  0  0
    2.3312   -1.8510    3.2144 H   0  0  0  0  0  0  0  0  0  0  0  0
    0.2210   -0.1481    4.7383 H   0  0  0  0  0  0  0  0  0  0  0  0
    2.1155   -2.4489    5.6154 H   0  0  0  0  0  0  0  0  0  0  0  0
   -1.3324   -1.3975    6.1649 H   0  0  0  0  0  0  0  0  0  0  0  0
   -2.4273   -1.2425    8.3857 H   0  0  0  0  0  0  0  0  0  0  0  0
   -1.0640   -1.3814   10.4563 H   0  0  0  0  0  0  0  0  0  0  0  0
    1.3949   -1.6857   10.3046 H   0  0  0  0  0  0  0  0  0  0  0  0
    2.4926   -1.8459    8.0879 H   0  0  0  0  0  0  0  0  0  0  0  0
    5.5648   -0.0047   -0.0309 H   0  0  0  0  0  0  0  0  0  0  0  0
    4.3039   -0.0104   -2.1736 H   0  0  0  0  0  0  0  0  0  0  0  0
    1.8169   -0.0073   -2.1594 H   0  0  0  0  0  0  0  0  0  0  0  0
  2  1  1  0  0  0  0
  2  3  2  0  0  0  0
  3  4  1  0  0  0  0
  4 19  1  0  0  0  0
  4  5  2  0  0  0  0
  5  6  1  0  0  0  0
  6 21  1  0  0  0  0
  6  7  2  0  0  0  0
  7  8  1  0  0  0  0
  8  9  2  0  0  0  0
  8 13  1  0  0  0  0
  9 10  1  0  0  0  0
 10 24  1  0  0  0  0
 10 11  2  0  0  0  0
 11 25  1  0  0  0  0
 12 11  1  0  0  0  0
 12 26  1  0  0  0  0
 13 12  2  0  0  0  0
 14  3  1  0  0  0  0
 14 15  1  0  0  0  0
 16 14  2  0  0  0  0
 17 18  2  0  0  0  0
 17 16  1  0  0  0  0
 18  2  1  0  0  0  0
 20  5  1  0  0  0  0
 22  7  1  0  0  0  0
 23  9  1  0  0  0  0
 27 13  1  0  0  0  0
 28 16  1  0  0  0  0
 29 17  1  0  0  0  0
 30 18  1  0  0  0  0
M  END
$$$$
