30

Cl         0.07060        0.45110       -0.10230
C          1.80690        0.22340       -0.04770
C          2.51100        0.18070        1.18280
C          1.92310        0.34260        2.51310
C          0.85650        1.09250        2.88280
C          0.39890        1.18160        4.24800
C         -0.65250        1.94500        4.63250
C         -1.19000        2.10200        5.98230
C         -0.64910        1.44760        7.10960
C         -1.19940        1.63100        8.37510
C         -2.30480        2.47220        8.55320
C         -2.85370        3.12860        7.44880
C         -2.30220        2.94480        6.18100
C          3.90280       -0.08020        1.06610
Cl         4.90030       -0.15600        2.50520
C          4.54580       -0.26490       -0.15610
C          3.80670       -0.20020       -1.33610
C          2.43560        0.04020       -1.28070
H          2.46570       -0.17600        3.30770
H          0.30890        1.67990        2.14370
H          0.94830        0.59060        4.98860
H         -1.17200        2.51730        3.85540
H          0.21280        0.78800        6.99340
H         -0.76380        1.11390        9.23360
H         -2.73360        2.61350        9.54790
H         -3.71610        3.78750        7.57550
H         -2.73560        3.46080        5.32020
H          5.61960       -0.45270       -0.17040
H          4.29900       -0.34250       -2.30020
H          1.83450        0.07980       -2.18930
