30
rmsd135.gzmat
Cl         0.00000        0.00000        0.00000
C          1.70580        0.00000        0.00000
C          2.37600        0.00000        1.22320
C          1.66760        0.01960        2.49990
C          0.92360       -1.01080        2.92820
C          0.23970       -0.98020        4.21140
C         -0.43660       -2.03910        4.68620
C         -1.12060       -2.03220        5.97740
C         -2.35650       -2.67650        6.10660
C         -3.02120       -2.67340        7.32940
C         -2.45540       -2.03630        8.43330
C         -1.21960       -1.40410        8.31120
C         -0.55360       -1.39990        7.08810
C          3.77040       -0.00410        1.16990
Cl         4.64150       -0.02400        2.63640
C          4.47670       -0.00340       -0.02580
C          3.76650        0.00360       -1.22620
C          2.37210        0.00490       -1.21910
H          1.79540        0.93330        3.08540
H          0.80780       -1.91850        2.33010
H          0.30070       -0.04500        4.77320
H         -0.51600       -2.96940        4.11910
H         -2.80090       -3.17450        5.24720
H         -3.98420       -3.17070        7.42610
H         -2.97810       -2.03450        9.38760
H         -0.77220       -0.91270        9.17290
H          0.41470       -0.91030        6.99840
H          5.56770       -0.00820       -0.03280
H          4.30490        0.00790       -2.17440
H          1.81950        0.01000       -2.15950
