
     RDKit          3D

 30 31  0  0  0  0  0  0  0  0999 V2000
    0.0673   -0.4348   -0.1210 Cl  0  0  0  0  0  0  0  0  0  0  0  0
    1.8055   -0.2272   -0.0502 C   0  0  0  0  0  0  0  0  0  0  0  0
    2.4941   -0.1560    1.1878 C   0  0  0  0  0  0  0  0  0  0  0  0
    1.8868   -0.2697    2.5144 C   0  0  0  0  0  0  0  0  0  0  0  0
    0.8059   -0.9946    2.8923 C   0  0  0  0  0  0  0  0  0  0  0  0
    0.3291   -1.0358    4.2532 C   0  0  0  0  0  0  0  0  0  0  0  0
   -0.7373   -1.7736    4.6465 C   0  0  0  0  0  0  0  0  0  0  0  0
   -1.2948   -1.8817    5.9930 C   0  0  0  0  0  0  0  0  0  0  0  0
   -2.4209   -2.7034    6.2021 C   0  0  0  0  0  0  0  0  0  0  0  0
   -2.9918   -2.8406    7.4672 C   0  0  0  0  0  0  0  0  0  0  0  0
   -2.4490   -2.1574    8.5583 C   0  0  0  0  0  0  0  0  0  0  0  0
   -1.3301   -1.3366    8.3697 C   0  0  0  0  0  0  0  0  0  0  0  0
   -0.7604   -1.1998    7.1069 C   0  0  0  0  0  0  0  0  0  0  0  0
    3.8906    0.0838    1.0819 C   0  0  0  0  0  0  0  0  0  0  0  0
    4.8702    0.1909    2.5313 Cl  0  0  0  0  0  0  0  0  0  0  0  0
    4.5517    0.2231   -0.1366 C   0  0  0  0  0  0  0  0  0  0  0  0
    3.8273    0.1319   -1.3239 C   0  0  0  0  0  0  0  0  0  0  0  0
    2.4525   -0.0895   -1.2796 C   0  0  0  0  0  0  0  0  0  0  0  0
    2.4256    0.2662    3.3000 H   0  0  0  0  0  0  0  0  0  0  0  0
    0.2606   -1.5975    2.1641 H   0  0  0  0  0  0  0  0  0  0  0  0
    0.8763   -0.4293    4.9828 H   0  0  0  0  0  0  0  0  0  0  0  0
   -1.2539   -2.3629    3.8802 H   0  0  0  0  0  0  0  0  0  0  0  0
   -2.8496   -3.2401    5.3517 H   0  0  0  0  0  0  0  0  0  0  0  0
   -3.8646   -3.4839    7.6022 H   0  0  0  0  0  0  0  0  0  0  0  0
   -2.8931   -2.2621    9.5509 H   0  0  0  0  0  0  0  0  0  0  0  0
   -0.8992   -0.7989    9.2178 H   0  0  0  0  0  0  0  0  0  0  0  0
    0.1118   -0.5554    6.9824 H   0  0  0  0  0  0  0  0  0  0  0  0
    5.6280    0.3968   -0.1422 H   0  0  0  0  0  0  0  0  0  0  0  0
    4.3339    0.2385   -2.2852 H   0  0  0  0  0  0  0  0  0  0  0  0
    1.8628   -0.1492   -2.1946 H   0  0  0  0  0  0  0  0  0  0  0  0
  1  2  1  0
  2  3  2  0
  2 18  1  0
  3  4  1  0
  3 14  1  0
  4  5  2  0
  4 19  1  0
  5  6  1  0
  5 20  1  0
  6  7  2  0
  6 21  1  0
  7  8  1  0
  7 22  1  0
  8  9  2  0
  8 13  1  0
  9 10  1  0
  9 23  1  0
 10 11  2  0
 10 24  1  0
 11 12  1  0
 11 25  1  0
 12 13  2  0
 12 26  1  0
 13 27  1  0
 14 15  1  0
 14 16  2  0
 16 17  1  0
 16 28  1  0
 17 18  2  0
 17 29  1  0
 18 30  1  0
M  END

