30
rmsd150.gzmat
Cl         0.00000        0.00000        0.00000
C          1.70600        0.00000        0.00000
C          2.37840        0.00000        1.22260
C          1.67000        0.02460        2.49880
C          0.88790       -0.98410        2.91070
C          0.16240       -0.92930        4.17010
C         -0.63770       -1.93010        4.57320
C         -1.41650       -1.88940        5.80760
C         -0.94380       -1.24180        6.95360
C         -1.72220       -1.20620        8.10820
C         -2.97480       -1.81630        8.12840
C         -3.44630       -2.47160        6.99140
C         -2.67040       -2.51250        5.83730
C          3.77240       -0.00130        1.16540
Cl         4.64740       -0.01210        2.62960
C          4.47600       -0.00070       -0.03190
C          3.76350        0.00660       -1.23100
C          2.36960        0.00810       -1.22060
H          1.82210        0.92750        3.09540
H          0.75720       -1.88700        2.30860
H          0.28400       -0.02090        4.76370
H         -0.76550       -2.83400        3.97060
H          0.03690       -0.76960        6.94680
H         -1.35050       -0.69950        8.99680
H         -3.58460       -1.78380        9.02840
H         -4.42270       -2.95180        7.00660
H         -3.04270       -3.02360        4.95130
H          5.56680       -0.00470       -0.04120
H          4.29990        0.01190       -2.18010
H          1.81450        0.01760       -2.15940
