30

Cl         0.06730       -0.43480       -0.12100
C          1.80550       -0.22720       -0.05020
C          2.49410       -0.15600        1.18780
C          1.88680       -0.26970        2.51440
C          0.80590       -0.99460        2.89230
C          0.32910       -1.03580        4.25320
C         -0.73730       -1.77360        4.64650
C         -1.29480       -1.88170        5.99300
C         -2.42090       -2.70340        6.20210
C         -2.99180       -2.84060        7.46720
C         -2.44900       -2.15740        8.55830
C         -1.33010       -1.33660        8.36970
C         -0.76040       -1.19980        7.10690
C          3.89060        0.08380        1.08190
Cl         4.87020        0.19090        2.53130
C          4.55170        0.22310       -0.13660
C          3.82730        0.13190       -1.32390
C          2.45250       -0.08950       -1.27960
H          2.42560        0.26620        3.30000
H          0.26060       -1.59750        2.16410
H          0.87630       -0.42930        4.98280
H         -1.25390       -2.36290        3.88020
H         -2.84960       -3.24010        5.35170
H         -3.86460       -3.48390        7.60220
H         -2.89310       -2.26210        9.55090
H         -0.89920       -0.79890        9.21780
H          0.11180       -0.55540        6.98240
H          5.62800        0.39680       -0.14220
H          4.33390        0.23850       -2.28520
H          1.86280       -0.14920       -2.19460
