rmsd24.gzmat
 OpenBabel08211713383D

 30 31  0  0  0  0  0  0  0  0999 V2000
    0.0000    0.0000    0.0000 Cl  0  0  0  0  0  0  0  0  0  0  0  0
    1.7056    0.0000    0.0000 C   0  0  0  0  0  0  0  0  0  0  0  0
    2.3709    0.0000    1.2273 C   0  0  0  0  0  0  0  0  0  0  0  0
    1.6269    0.0282    2.4831 C   0  0  0  0  0  0  0  0  0  0  0  0
    1.6803   -0.9701    3.3776 C   0  0  0  0  0  0  0  0  0  0  0  0
    0.9182   -0.9355    4.6162 C   0  0  0  0  0  0  0  0  0  0  0  0
    1.0571   -1.8812    5.5595 C   0  0  0  0  0  0  0  0  0  0  0  0
    0.2973   -1.8901    6.8068 C   0  0  0  0  0  0  0  0  0  0  0  0
   -0.1504   -3.1130    7.3214 C   0  0  0  0  0  0  0  0  0  0  0  0
   -0.8793   -3.1480    8.5060 C   0  0  0  0  0  0  0  0  0  0  0  0
   -1.1577   -1.9660    9.1917 C   0  0  0  0  0  0  0  0  0  0  0  0
   -0.7096   -0.7474    8.6857 C   0  0  0  0  0  0  0  0  0  0  0  0
    0.0147   -0.7069    7.4963 C   0  0  0  0  0  0  0  0  0  0  0  0
    3.7649   -0.0166    1.1777 C   0  0  0  0  0  0  0  0  0  0  0  0
    4.6402   -0.0243    2.6422 Cl  0  0  0  0  0  0  0  0  0  0  0  0
    4.4734   -0.0228   -0.0178 C   0  0  0  0  0  0  0  0  0  0  0  0
    3.7677   -0.0202   -1.2206 C   0  0  0  0  0  0  0  0  0  0  0  0
    2.3728   -0.0123   -1.2175 C   0  0  0  0  0  0  0  0  0  0  0  0
    1.0109    0.9182    2.6380 H   0  0  0  0  0  0  0  0  0  0  0  0
    2.2983   -1.8559    3.2085 H   0  0  0  0  0  0  0  0  0  0  0  0
    0.2190   -0.1054    4.7362 H   0  0  0  0  0  0  0  0  0  0  0  0
    1.7503   -2.7165    5.4313 H   0  0  0  0  0  0  0  0  0  0  0  0
    0.0667   -4.0370    6.7885 H   0  0  0  0  0  0  0  0  0  0  0  0
   -1.2317   -4.0998    8.8981 H   0  0  0  0  0  0  0  0  0  0  0  0
   -1.7227   -1.9962   10.1206 H   0  0  0  0  0  0  0  0  0  0  0  0
   -0.9261    0.1757    9.2203 H   0  0  0  0  0  0  0  0  0  0  0  0
    0.3683    0.2470    7.1082 H   0  0  0  0  0  0  0  0  0  0  0  0
    5.5643   -0.0301   -0.0226 H   0  0  0  0  0  0  0  0  0  0  0  0
    4.3078   -0.0257   -2.1679 H   0  0  0  0  0  0  0  0  0  0  0  0
    1.8219   -0.0173   -2.1590 H   0  0  0  0  0  0  0  0  0  0  0  0
  2  1  1  0  0  0  0
  2  3  2  0  0  0  0
  3  4  1  0  0  0  0
  4 19  1  0  0  0  0
  4  5  2  0  0  0  0
  5  6  1  0  0  0  0
  6 21  1  0  0  0  0
  6  7  2  0  0  0  0
  7  8  1  0  0  0  0
  8  9  2  0  0  0  0
  8 13  1  0  0  0  0
  9 10  1  0  0  0  0
 10 24  1  0  0  0  0
 10 11  2  0  0  0  0
 11 25  1  0  0  0  0
 12 11  1  0  0  0  0
 12 26  1  0  0  0  0
 13 12  2  0  0  0  0
 14  3  1  0  0  0  0
 14 15  1  0  0  0  0
 16 14  2  0  0  0  0
 17 18  2  0  0  0  0
 17 16  1  0  0  0  0
 18  2  1  0  0  0  0
 20  5  1  0  0  0  0
 22  7  1  0  0  0  0
 23  9  1  0  0  0  0
 27 13  1  0  0  0  0
 28 16  1  0  0  0  0
 29 17  1  0  0  0  0
 30 18  1  0  0  0  0
M  END
$$$$
