rmsd136.gzmat
 OpenBabel08211713383D

 30 31  0  0  0  0  0  0  0  0999 V2000
    0.0000    0.0000    0.0000 Cl  0  0  0  0  0  0  0  0  0  0  0  0
    1.7059    0.0000    0.0000 C   0  0  0  0  0  0  0  0  0  0  0  0
    2.3707    0.0000    1.2265 C   0  0  0  0  0  0  0  0  0  0  0  0
    1.6354    0.0170    2.4880 C   0  0  0  0  0  0  0  0  0  0  0  0
    1.6681   -1.0121    3.3480 C   0  0  0  0  0  0  0  0  0  0  0  0
    0.9462   -0.9845    4.6099 C   0  0  0  0  0  0  0  0  0  0  0  0
    1.0479   -1.9726    5.5141 C   0  0  0  0  0  0  0  0  0  0  0  0
    0.3580   -1.9469    6.8014 C   0  0  0  0  0  0  0  0  0  0  0  0
   -0.9275   -1.4097    6.9248 C   0  0  0  0  0  0  0  0  0  0  0  0
   -1.5552   -1.3767    8.1675 C   0  0  0  0  0  0  0  0  0  0  0  0
   -0.9051   -1.8784    9.2933 C   0  0  0  0  0  0  0  0  0  0  0  0
    0.3710   -2.4272    9.1727 C   0  0  0  0  0  0  0  0  0  0  0  0
    1.0001   -2.4663    7.9318 C   0  0  0  0  0  0  0  0  0  0  0  0
    3.7650   -0.0135    1.1791 C   0  0  0  0  0  0  0  0  0  0  0  0
    4.6368   -0.0265    2.6454 Cl  0  0  0  0  0  0  0  0  0  0  0  0
    4.4744   -0.0197   -0.0153 C   0  0  0  0  0  0  0  0  0  0  0  0
    3.7695   -0.0211   -1.2188 C   0  0  0  0  0  0  0  0  0  0  0  0
    2.3745   -0.0153   -1.2171 C   0  0  0  0  0  0  0  0  0  0  0  0
    1.0559    0.9238    2.6772 H   0  0  0  0  0  0  0  0  0  0  0  0
    2.2478   -1.9138    3.1334 H   0  0  0  0  0  0  0  0  0  0  0  0
    0.3264   -0.1042    4.7951 H   0  0  0  0  0  0  0  0  0  0  0  0
    1.6774   -2.8481    5.3374 H   0  0  0  0  0  0  0  0  0  0  0  0
   -1.4412   -1.0226    6.0463 H   0  0  0  0  0  0  0  0  0  0  0  0
   -2.5556   -0.9582    8.2594 H   0  0  0  0  0  0  0  0  0  0  0  0
   -1.3931   -1.8436   10.2648 H   0  0  0  0  0  0  0  0  0  0  0  0
    0.8759   -2.8268   10.0503 H   0  0  0  0  0  0  0  0  0  0  0  0
    1.9970   -2.8936    7.8411 H   0  0  0  0  0  0  0  0  0  0  0  0
    5.5653   -0.0268   -0.0181 H   0  0  0  0  0  0  0  0  0  0  0  0
    4.3110   -0.0289   -2.1650 H   0  0  0  0  0  0  0  0  0  0  0  0
    1.8244   -0.0261   -2.1590 H   0  0  0  0  0  0  0  0  0  0  0  0
  2  1  1  0  0  0  0
  2  3  2  0  0  0  0
  3  4  1  0  0  0  0
  4 19  1  0  0  0  0
  4  5  2  0  0  0  0
  5  6  1  0  0  0  0
  6 21  1  0  0  0  0
  6  7  2  0  0  0  0
  7  8  1  0  0  0  0
  8  9  2  0  0  0  0
  8 13  1  0  0  0  0
  9 10  1  0  0  0  0
 10 24  1  0  0  0  0
 10 11  2  0  0  0  0
 11 25  1  0  0  0  0
 12 11  1  0  0  0  0
 12 26  1  0  0  0  0
 13 12  2  0  0  0  0
 14  3  1  0  0  0  0
 14 15  1  0  0  0  0
 16 14  2  0  0  0  0
 17 18  2  0  0  0  0
 17 16  1  0  0  0  0
 18  2  1  0  0  0  0
 20  5  1  0  0  0  0
 22  7  1  0  0  0  0
 23  9  1  0  0  0  0
 27 13  1  0  0  0  0
 28 16  1  0  0  0  0
 29 17  1  0  0  0  0
 30 18  1  0  0  0  0
M  END
$$$$
