
     RDKit          3D

 41 43  0  0  0  0  0  0  0  0999 V2000
   -0.1088   -0.1287    0.2326 C   0  0  0  0  0  0  0  0  0  0  0  0
    1.5505   -0.1287    0.3733 S   0  0  0  0  0  0  0  0  0  0  0  0
   -0.8723   -0.1775   -0.8945 N   0  0  0  0  0  0  0  0  0  0  0  0
   -0.5025   -0.2020   -1.8364 H   0  0  0  0  0  0  0  0  0  0  0  0
   -2.2155   -0.1380   -0.6625 N   0  0  0  0  0  0  0  0  0  0  0  0
   -2.3189   -0.0753    0.6367 C   0  0  0  0  0  0  0  0  0  0  0  0
   -3.6152   -0.0734    1.3766 C   0  0  0  0  0  0  0  0  0  0  0  0
   -4.1194   -1.4854    1.7364 C   0  0  0  0  0  0  0  0  0  0  0  0
   -3.1616   -2.2339    2.5436 N   0  0  0  0  0  0  0  0  0  0  0  0
   -3.6821   -2.8710    3.7512 C   0  0  0  0  0  0  0  0  0  0  0  0
   -4.3522   -4.2132    3.4562 C   0  0  0  0  0  0  0  0  0  0  0  0
   -3.4626   -5.0721    2.7708 O   0  0  0  0  0  0  0  0  0  0  0  0
   -3.0106   -4.5059    1.5550 C   0  0  0  0  0  0  0  0  0  0  0  0
   -2.3130   -3.1670    1.7968 C   0  0  0  0  0  0  0  0  0  0  0  0
   -1.0701   -0.0774    1.2315 N   0  0  0  0  0  0  0  0  0  0  0  0
   -0.7641   -0.0125    2.6576 C   0  0  0  0  0  0  0  0  0  0  0  0
   -0.9131    1.3799    3.2262 C   0  0  0  0  0  0  0  0  0  0  0  0
   -0.1589    2.4433    2.7056 C   0  0  0  0  0  0  0  0  0  0  0  0
   -0.3039    3.7292    3.2277 C   0  0  0  0  0  0  0  0  0  0  0  0
   -1.1980    3.9688    4.2774 C   0  0  0  0  0  0  0  0  0  0  0  0
   -1.9458    2.9142    4.8048 C   0  0  0  0  0  0  0  0  0  0  0  0
   -1.8039    1.6263    4.2783 C   0  0  0  0  0  0  0  0  0  0  0  0
   -4.3597    0.4187    0.7330 H   0  0  0  0  0  0  0  0  0  0  0  0
   -3.5121    0.5259    2.2922 H   0  0  0  0  0  0  0  0  0  0  0  0
   -4.3783   -2.0149    0.8003 H   0  0  0  0  0  0  0  0  0  0  0  0
   -5.0623   -1.3732    2.2945 H   0  0  0  0  0  0  0  0  0  0  0  0
   -4.3794   -2.1863    4.2594 H   0  0  0  0  0  0  0  0  0  0  0  0
   -2.8362   -3.0496    4.4389 H   0  0  0  0  0  0  0  0  0  0  0  0
   -4.6417   -4.7251    4.3872 H   0  0  0  0  0  0  0  0  0  0  0  0
   -5.2725   -4.0534    2.8541 H   0  0  0  0  0  0  0  0  0  0  0  0
   -2.3198   -5.2314    1.0991 H   0  0  0  0  0  0  0  0  0  0  0  0
   -3.8655   -4.3684    0.8593 H   0  0  0  0  0  0  0  0  0  0  0  0
   -1.3919   -3.3442    2.3792 H   0  0  0  0  0  0  0  0  0  0  0  0
   -2.0112   -2.7148    0.8410 H   0  0  0  0  0  0  0  0  0  0  0  0
    0.2785   -0.3565    2.7409 H   0  0  0  0  0  0  0  0  0  0  0  0
   -1.4267   -0.7239    3.1672 H   0  0  0  0  0  0  0  0  0  0  0  0
    0.5505    2.2482    1.8971 H   0  0  0  0  0  0  0  0  0  0  0  0
    0.2892    4.5503    2.8175 H   0  0  0  0  0  0  0  0  0  0  0  0
   -1.3083    4.9768    4.6846 H   0  0  0  0  0  0  0  0  0  0  0  0
   -2.6438    3.0929    5.6264 H   0  0  0  0  0  0  0  0  0  0  0  0
   -2.3897    0.8001    4.6914 H   0  0  0  0  0  0  0  0  0  0  0  0
  1  2  2  0
  1  3  1  0
  1 15  1  0
  3  4  1  0
  3  5  1  0
  5  6  2  0
  6  7  1  0
  6 15  1  0
  7  8  1  0
  7 23  1  0
  7 24  1  0
  8  9  1  0
  8 25  1  0
  8 26  1  0
  9 10  1  0
  9 14  1  0
 10 11  1  0
 10 27  1  0
 10 28  1  0
 11 12  1  0
 11 29  1  0
 11 30  1  0
 12 13  1  0
 13 14  1  0
 13 31  1  0
 13 32  1  0
 14 33  1  0
 14 34  1  0
 15 16  1  0
 16 17  1  0
 16 35  1  0
 16 36  1  0
 17 18  2  0
 17 22  1  0
 18 19  1  0
 18 37  1  0
 19 20  2  0
 19 38  1  0
 20 21  1  0
 20 39  1  0
 21 22  2  0
 21 40  1  0
 22 41  1  0
M  END

