
     RDKit          3D

 41 43  0  0  0  0  0  0  0  0999 V2000
   -0.0092    0.0020    0.2591 C   0  0  0  0  0  0  0  0  0  0  0  0
    1.6424    0.0987    0.4534 S   0  0  0  0  0  0  0  0  0  0  0  0
   -0.7320   -0.0843   -0.8913 N   0  0  0  0  0  0  0  0  0  0  0  0
   -0.3309   -0.0918   -1.8206 H   0  0  0  0  0  0  0  0  0  0  0  0
   -2.0810   -0.1140   -0.7027 N   0  0  0  0  0  0  0  0  0  0  0  0
   -2.2307   -0.0588    0.5925 C   0  0  0  0  0  0  0  0  0  0  0  0
   -3.5635   -0.1014    1.2658 C   0  0  0  0  0  0  0  0  0  0  0  0
   -4.0020   -1.5267    1.6510 C   0  0  0  0  0  0  0  0  0  0  0  0
   -3.2142   -2.0716    2.7498 N   0  0  0  0  0  0  0  0  0  0  0  0
   -3.7645   -1.8084    4.0792 C   0  0  0  0  0  0  0  0  0  0  0  0
   -4.8458   -2.8202    4.4645 C   0  0  0  0  0  0  0  0  0  0  0  0
   -4.3582   -4.1430    4.3586 O   0  0  0  0  0  0  0  0  0  0  0  0
   -3.9055   -4.4383    3.0502 C   0  0  0  0  0  0  0  0  0  0  0  0
   -2.8004   -3.4683    2.6326 C   0  0  0  0  0  0  0  0  0  0  0  0
   -1.0035   -0.0007    1.2273 N   0  0  0  0  0  0  0  0  0  0  0  0
   -0.7435    0.0922    2.6594 C   0  0  0  0  0  0  0  0  0  0  0  0
   -0.9987    1.4762    3.2119 C   0  0  0  0  0  0  0  0  0  0  0  0
   -1.8926    1.6676    4.2726 C   0  0  0  0  0  0  0  0  0  0  0  0
   -2.1301    2.9479    4.7831 C   0  0  0  0  0  0  0  0  0  0  0  0
   -1.4753    4.0508    4.2313 C   0  0  0  0  0  0  0  0  0  0  0  0
   -0.5769    3.8665    3.1741 C   0  0  0  0  0  0  0  0  0  0  0  0
   -0.3368    2.5885    2.6681 C   0  0  0  0  0  0  0  0  0  0  0  0
   -4.2914    0.3154    0.5543 H   0  0  0  0  0  0  0  0  0  0  0  0
   -3.5594    0.5492    2.1533 H   0  0  0  0  0  0  0  0  0  0  0  0
   -3.8821   -2.1713    0.7671 H   0  0  0  0  0  0  0  0  0  0  0  0
   -5.0873   -1.5088    1.8734 H   0  0  0  0  0  0  0  0  0  0  0  0
   -4.1623   -0.7819    4.1193 H   0  0  0  0  0  0  0  0  0  0  0  0
   -2.9454   -1.8720    4.8179 H   0  0  0  0  0  0  0  0  0  0  0  0
   -5.1650   -2.6758    5.5081 H   0  0  0  0  0  0  0  0  0  0  0  0
   -5.7384   -2.6900    3.8167 H   0  0  0  0  0  0  0  0  0  0  0  0
   -3.5381   -5.4760    3.0639 H   0  0  0  0  0  0  0  0  0  0  0  0
   -4.7511   -4.3846    2.3316 H   0  0  0  0  0  0  0  0  0  0  0  0
   -1.9305   -3.6248    3.2951 H   0  0  0  0  0  0  0  0  0  0  0  0
   -2.4680   -3.6676    1.6021 H   0  0  0  0  0  0  0  0  0  0  0  0
    0.3171   -0.1809    2.7747 H   0  0  0  0  0  0  0  0  0  0  0  0
   -1.3696   -0.6606    3.1536 H   0  0  0  0  0  0  0  0  0  0  0  0
   -2.4037    0.8047    4.7068 H   0  0  0  0  0  0  0  0  0  0  0  0
   -2.8298    3.0825    5.6116 H   0  0  0  0  0  0  0  0  0  0  0  0
   -1.6607    5.0528    4.6256 H   0  0  0  0  0  0  0  0  0  0  0  0
   -0.0549    4.7254    2.7452 H   0  0  0  0  0  0  0  0  0  0  0  0
    0.3790    2.4389    1.8556 H   0  0  0  0  0  0  0  0  0  0  0  0
  1  2  2  0
  1  3  1  0
  1 15  1  0
  3  4  1  0
  3  5  1  0
  5  6  2  0
  6  7  1  0
  6 15  1  0
  7  8  1  0
  7 23  1  0
  7 24  1  0
  8  9  1  0
  8 25  1  0
  8 26  1  0
  9 10  1  0
  9 14  1  0
 10 11  1  0
 10 27  1  0
 10 28  1  0
 11 12  1  0
 11 29  1  0
 11 30  1  0
 12 13  1  0
 13 14  1  0
 13 31  1  0
 13 32  1  0
 14 33  1  0
 14 34  1  0
 15 16  1  0
 16 17  1  0
 16 35  1  0
 16 36  1  0
 17 18  2  0
 17 22  1  0
 18 19  1  0
 18 37  1  0
 19 20  2  0
 19 38  1  0
 20 21  1  0
 20 39  1  0
 21 22  2  0
 21 40  1  0
 22 41  1  0
M  END

