41
rmsd162.gzmat
C          0.00000        0.00000        0.00000
S          1.66120        0.00000        0.00000
N         -0.82180        0.00000       -1.11720
H         -0.57420        0.01930       -2.09200
N         -2.15180       -0.00470       -0.77690
C         -2.20720       -0.01330        0.56200
C         -3.45280       -0.02220        1.35980
C         -3.86760       -1.47030        1.71540
N         -3.19490       -1.84950        2.97880
C         -4.05510       -1.63990        4.16290
C         -5.13120       -2.72960        4.32230
O         -4.53860       -4.01490        4.32180
C         -3.79780       -4.28120        3.14390
C         -2.68310       -3.23560        2.97110
N         -0.89260       -0.01990        1.07610
C         -0.53210        0.01520        2.49080
C         -0.89620        1.33630        3.11380
C         -1.77070        1.36030        4.20110
C         -2.11790        2.57530        4.78630
C         -1.59330        3.76540        4.28510
C         -0.71320        3.73930        3.20430
C         -0.35840        2.52500        2.62100
H         -4.27010        0.47140        0.78590
H         -3.32980        0.58370        2.28780
H         -3.57720       -2.15400        0.88750
H         -4.97450       -1.52900        1.78050
H         -4.51840       -0.63350        4.11410
H         -3.38640       -1.64460        5.05520
H         -5.61940       -2.69070        5.31230
H         -5.90140       -2.67910        3.53510
H         -3.39740       -5.29250        3.33720
H         -4.47910       -4.31540        2.27780
H         -1.95920       -3.31700        3.81620
H         -2.10480       -3.41730        2.04200
H          0.56820       -0.17510        2.60740
H         -1.05430       -0.83730        3.00590
H         -2.17950        0.42950        4.59390
H         -2.79630        2.59440        5.63640
H         -1.86730        4.71440        4.74060
H         -0.29850        4.66900        2.81690
H          0.34000        2.50530        1.78280
