rmsd171.gzmat
 OpenBabel08211713403D

 41 43  0  0  0  0  0  0  0  0999 V2000
    0.0000    0.0000    0.0000 C   0  0  0  0  0  0  0  0  0  0  0  0
    1.6615    0.0000    0.0000 S   0  0  0  0  0  0  0  0  0  0  0  0
   -0.8220    0.0000   -1.1169 N   0  0  0  0  0  0  0  0  0  0  0  0
   -0.5750   -0.0194   -2.0921 H   0  0  0  0  0  0  0  0  0  0  0  0
   -2.1521    0.0076   -0.7764 N   0  0  0  0  0  0  0  0  0  0  0  0
   -2.2075    0.0190    0.5626 C   0  0  0  0  0  0  0  0  0  0  0  0
   -3.4536    0.0358    1.3595 C   0  0  0  0  0  0  0  0  0  0  0  0
   -3.9043    1.4891    1.6419 C   0  0  0  0  0  0  0  0  0  0  0  0
   -3.0919    2.0129    2.7632 N   0  0  0  0  0  0  0  0  0  0  0  0
   -2.5034    3.3386    2.4822 C   0  0  0  0  0  0  0  0  0  0  0  0
   -3.5362    4.4741    2.5773 C   0  0  0  0  0  0  0  0  0  0  0  0
   -4.1733    4.4532    3.8427 O   0  0  0  0  0  0  0  0  0  0  0  0
   -4.8308    3.2288    4.1115 C   0  0  0  0  0  0  0  0  0  0  0  0
   -3.8361    2.0554    4.0392 C   0  0  0  0  0  0  0  0  0  0  0  0
   -0.8922    0.0201    1.0761 N   0  0  0  0  0  0  0  0  0  0  0  0
   -0.5308    0.0047    2.4910 C   0  0  0  0  0  0  0  0  0  0  0  0
   -0.9176   -1.2994    3.1360 C   0  0  0  0  0  0  0  0  0  0  0  0
   -0.3977   -2.5036    2.6608 C   0  0  0  0  0  0  0  0  0  0  0  0
   -0.7728   -3.7042    3.2591 C   0  0  0  0  0  0  0  0  0  0  0  0
   -1.6598   -3.7020    4.3347 C   0  0  0  0  0  0  0  0  0  0  0  0
   -2.1667   -2.4967    4.8178 C   0  0  0  0  0  0  0  0  0  0  0  0
   -1.7958   -1.2946    4.2203 C   0  0  0  0  0  0  0  0  0  0  0  0
   -3.3209   -0.5164    2.3182 H   0  0  0  0  0  0  0  0  0  0  0  0
   -4.2588   -0.5030    0.8095 H   0  0  0  0  0  0  0  0  0  0  0  0
   -4.9929    1.4964    1.8598 H   0  0  0  0  0  0  0  0  0  0  0  0
   -3.7758    2.1010    0.7222 H   0  0  0  0  0  0  0  0  0  0  0  0
   -2.0100    3.3268    1.4883 H   0  0  0  0  0  0  0  0  0  0  0  0
   -1.6943    3.5029    3.2322 H   0  0  0  0  0  0  0  0  0  0  0  0
   -3.0633    5.4725    2.5634 H   0  0  0  0  0  0  0  0  0  0  0  0
   -4.2966    4.4178    1.7808 H   0  0  0  0  0  0  0  0  0  0  0  0
   -5.2180    3.3838    5.1345 H   0  0  0  0  0  0  0  0  0  0  0  0
   -5.6773    3.1051    3.4159 H   0  0  0  0  0  0  0  0  0  0  0  0
   -3.0789    2.1583    4.8515 H   0  0  0  0  0  0  0  0  0  0  0  0
   -4.3544    1.0892    4.2027 H   0  0  0  0  0  0  0  0  0  0  0  0
   -1.0370    0.8760    2.9903 H   0  0  0  0  0  0  0  0  0  0  0  0
    0.5727    0.1785    2.6031 H   0  0  0  0  0  0  0  0  0  0  0  0
    0.3028   -2.5051    1.8238 H   0  0  0  0  0  0  0  0  0  0  0  0
   -0.3695   -4.6448    2.8874 H   0  0  0  0  0  0  0  0  0  0  0  0
   -1.9541   -4.6406    4.7997 H   0  0  0  0  0  0  0  0  0  0  0  0
   -2.8514   -2.4940    5.6630 H   0  0  0  0  0  0  0  0  0  0  0  0
   -2.1921   -0.3535    4.6002 H   0  0  0  0  0  0  0  0  0  0  0  0
  1 15  1  0  0  0  0
  2  1  2  0  0  0  0
  3  5  1  0  0  0  0
  3  1  1  0  0  0  0
  4  3  1  0  0  0  0
  5  6  2  0  0  0  0
  6 15  1  0  0  0  0
  6  7  1  0  0  0  0
  7  8  1  0  0  0  0
  7 23  1  0  0  0  0
  8 25  1  0  0  0  0
  8  9  1  0  0  0  0
  9 14  1  0  0  0  0
 10 11  1  0  0  0  0
 10  9  1  0  0  0  0
 10 28  1  0  0  0  0
 11 12  1  0  0  0  0
 12 13  1  0  0  0  0
 13 31  1  0  0  0  0
 14 13  1  0  0  0  0
 14 34  1  0  0  0  0
 14 33  1  0  0  0  0
 15 16  1  0  0  0  0
 16 36  1  0  0  0  0
 16 35  1  0  0  0  0
 16 17  1  0  0  0  0
 17 22  1  0  0  0  0
 18 17  2  0  0  0  0
 18 19  1  0  0  0  0
 19 20  2  0  0  0  0
 20 39  1  0  0  0  0
 20 21  1  0  0  0  0
 21 40  1  0  0  0  0
 22 41  1  0  0  0  0
 22 21  2  0  0  0  0
 24  7  1  0  0  0  0
 26  8  1  0  0  0  0
 27 10  1  0  0  0  0
 29 11  1  0  0  0  0
 30 11  1  0  0  0  0
 32 13  1  0  0  0  0
 37 18  1  0  0  0  0
 38 19  1  0  0  0  0
M  END
$$$$
