41
rmsd171.gzmat
C          0.00000        0.00000        0.00000
S          1.66150        0.00000        0.00000
N         -0.82200        0.00000       -1.11690
H         -0.57500       -0.01940       -2.09210
N         -2.15210        0.00760       -0.77640
C         -2.20750        0.01900        0.56260
C         -3.45360        0.03580        1.35950
C         -3.90430        1.48910        1.64190
N         -3.09190        2.01290        2.76320
C         -2.50340        3.33860        2.48220
C         -3.53620        4.47410        2.57730
O         -4.17330        4.45320        3.84270
C         -4.83080        3.22880        4.11150
C         -3.83610        2.05540        4.03920
N         -0.89220        0.02010        1.07610
C         -0.53080        0.00470        2.49100
C         -0.91760       -1.29940        3.13600
C         -0.39770       -2.50360        2.66080
C         -0.77280       -3.70420        3.25910
C         -1.65980       -3.70200        4.33470
C         -2.16670       -2.49670        4.81780
C         -1.79580       -1.29460        4.22030
H         -3.32090       -0.51640        2.31820
H         -4.25880       -0.50300        0.80950
H         -4.99290        1.49640        1.85980
H         -3.77580        2.10100        0.72220
H         -2.01000        3.32680        1.48830
H         -1.69430        3.50290        3.23220
H         -3.06330        5.47250        2.56340
H         -4.29660        4.41780        1.78080
H         -5.21800        3.38380        5.13450
H         -5.67730        3.10510        3.41590
H         -3.07890        2.15830        4.85150
H         -4.35440        1.08920        4.20270
H         -1.03700        0.87600        2.99030
H          0.57270        0.17850        2.60310
H          0.30280       -2.50510        1.82380
H         -0.36950       -4.64480        2.88740
H         -1.95410       -4.64060        4.79970
H         -2.85140       -2.49400        5.66300
H         -2.19210       -0.35350        4.60020
