41
rmsd231.gzmat
C          0.00000        0.00000        0.00000
S          1.66150        0.00000        0.00000
N         -0.82260        0.00000       -1.11650
H         -0.57630        0.02510       -2.09150
N         -2.15300       -0.00820       -0.77570
C         -2.20740       -0.02280        0.56290
C         -3.44790       -0.04840        1.36730
C         -3.93760       -1.50260        1.57230
N         -3.02010       -2.16150        2.52910
C         -3.68850       -2.58800        3.77510
C         -4.54190       -3.85470        3.58590
O         -3.76000       -4.89800        3.03550
C         -3.17000       -4.55810        1.79400
C         -2.29210       -3.30340        1.93670
N         -0.89160       -0.02070        1.07640
C         -0.53040       -0.03010        2.49140
C         -0.86220        1.28130        3.15190
C         -0.29550        2.46850        2.68790
C         -0.60730        3.67540        3.30940
C         -1.47630        3.69630        4.39940
C         -2.03280        2.50760        4.86980
C         -1.72750        1.29950        4.24700
H         -4.24270        0.54240        0.85720
H         -3.29110        0.44160        2.35550
H         -3.97200       -2.02330        0.59080
H         -4.98460       -1.48010        1.94060
H         -4.29700       -1.75410        4.17890
H         -2.88340       -2.78810        4.52090
H         -4.86970       -4.28480        4.54880
H         -5.42220       -3.67610        2.94680
H         -2.57440       -5.45980        1.56140
H         -3.95800       -4.43340        1.03330
H         -1.42810       -3.52250        2.60680
H         -1.86230       -3.00490        0.95750
H          0.56610       -0.24710        2.60010
H         -1.06900       -0.88570        2.98370
H          0.39410        2.45260        1.84240
H         -0.16620        4.60240        2.94610
H         -1.71640        4.63970        4.88500
H         -2.70420        2.52290        5.72530
H         -2.16210        0.37220        4.61850
