41
rmsd249.gzmat
C          0.00000        0.00000        0.00000
S          1.66100        0.00000        0.00000
N         -0.82210        0.00000       -1.11670
H         -0.57540       -0.02830       -2.09150
N         -2.15240        0.01580       -0.77640
C         -2.20770        0.03330        0.56200
C         -3.44890        0.06100        1.36500
C         -3.93030        1.51420        1.59160
N         -3.03140        2.14610        2.58420
C         -2.22730        3.24710        2.01250
C         -3.04340        4.53360        1.80130
O         -3.68180        4.92020        3.00520
C         -4.53450        3.91950        3.52940
C         -3.74460        2.62410        3.78630
N         -0.89220        0.03060        1.07580
C         -0.53390        0.00370        2.49160
C         -0.89120       -1.31930        3.11450
C         -0.33180       -2.50020        2.62670
C         -0.68260       -3.72070        3.19870
C         -1.58370       -3.76110        4.26170
C         -2.12880       -2.57870        4.75910
C         -1.78250       -1.35630        4.18790
H         -3.29910       -0.44390        2.34710
H         -4.24780       -0.51690        0.84650
H         -4.98410        1.48980        1.94130
H         -3.94470        2.05620        0.62140
H         -1.75820        2.91340        1.06330
H         -1.39270        3.44540        2.72540
H         -2.39850        5.40440        1.58300
H         -3.79630        4.42800        1.00290
H         -4.89710        4.38080        4.46500
H         -5.38490        3.76400        2.84560
H         -2.97260        2.80680        4.57000
H         -4.40460        1.82270        4.17350
H         -1.06210        0.85460        3.00260
H          0.56510        0.20180        2.60830
H          0.38100       -2.46850        1.80060
H         -0.24950       -4.64340        2.81530
H         -1.85770       -4.71580        4.70570
H         -2.82490       -2.61030        5.59410
H         -2.20560       -0.43310        4.58180
