rmsd249.gzmat
 OpenBabel08211713403D

 41 43  0  0  0  0  0  0  0  0999 V2000
    0.0000    0.0000    0.0000 C   0  0  0  0  0  0  0  0  0  0  0  0
    1.6610    0.0000    0.0000 S   0  0  0  0  0  0  0  0  0  0  0  0
   -0.8221    0.0000   -1.1167 N   0  0  0  0  0  0  0  0  0  0  0  0
   -0.5754   -0.0283   -2.0915 H   0  0  0  0  0  0  0  0  0  0  0  0
   -2.1524    0.0158   -0.7764 N   0  0  0  0  0  0  0  0  0  0  0  0
   -2.2077    0.0333    0.5620 C   0  0  0  0  0  0  0  0  0  0  0  0
   -3.4489    0.0610    1.3650 C   0  0  0  0  0  0  0  0  0  0  0  0
   -3.9303    1.5142    1.5916 C   0  0  0  0  0  0  0  0  0  0  0  0
   -3.0314    2.1461    2.5842 N   0  0  0  0  0  0  0  0  0  0  0  0
   -2.2273    3.2471    2.0125 C   0  0  0  0  0  0  0  0  0  0  0  0
   -3.0434    4.5336    1.8013 C   0  0  0  0  0  0  0  0  0  0  0  0
   -3.6818    4.9202    3.0052 O   0  0  0  0  0  0  0  0  0  0  0  0
   -4.5345    3.9195    3.5294 C   0  0  0  0  0  0  0  0  0  0  0  0
   -3.7446    2.6241    3.7863 C   0  0  0  0  0  0  0  0  0  0  0  0
   -0.8922    0.0306    1.0758 N   0  0  0  0  0  0  0  0  0  0  0  0
   -0.5339    0.0037    2.4916 C   0  0  0  0  0  0  0  0  0  0  0  0
   -0.8912   -1.3193    3.1145 C   0  0  0  0  0  0  0  0  0  0  0  0
   -0.3318   -2.5002    2.6267 C   0  0  0  0  0  0  0  0  0  0  0  0
   -0.6826   -3.7207    3.1987 C   0  0  0  0  0  0  0  0  0  0  0  0
   -1.5837   -3.7611    4.2617 C   0  0  0  0  0  0  0  0  0  0  0  0
   -2.1288   -2.5787    4.7591 C   0  0  0  0  0  0  0  0  0  0  0  0
   -1.7825   -1.3563    4.1879 C   0  0  0  0  0  0  0  0  0  0  0  0
   -3.2991   -0.4439    2.3471 H   0  0  0  0  0  0  0  0  0  0  0  0
   -4.2478   -0.5169    0.8465 H   0  0  0  0  0  0  0  0  0  0  0  0
   -4.9841    1.4898    1.9413 H   0  0  0  0  0  0  0  0  0  0  0  0
   -3.9447    2.0562    0.6214 H   0  0  0  0  0  0  0  0  0  0  0  0
   -1.7582    2.9134    1.0633 H   0  0  0  0  0  0  0  0  0  0  0  0
   -1.3927    3.4454    2.7254 H   0  0  0  0  0  0  0  0  0  0  0  0
   -2.3985    5.4044    1.5830 H   0  0  0  0  0  0  0  0  0  0  0  0
   -3.7963    4.4280    1.0029 H   0  0  0  0  0  0  0  0  0  0  0  0
   -4.8971    4.3808    4.4650 H   0  0  0  0  0  0  0  0  0  0  0  0
   -5.3849    3.7640    2.8456 H   0  0  0  0  0  0  0  0  0  0  0  0
   -2.9726    2.8068    4.5700 H   0  0  0  0  0  0  0  0  0  0  0  0
   -4.4046    1.8227    4.1735 H   0  0  0  0  0  0  0  0  0  0  0  0
   -1.0621    0.8546    3.0026 H   0  0  0  0  0  0  0  0  0  0  0  0
    0.5651    0.2018    2.6083 H   0  0  0  0  0  0  0  0  0  0  0  0
    0.3810   -2.4685    1.8006 H   0  0  0  0  0  0  0  0  0  0  0  0
   -0.2495   -4.6434    2.8153 H   0  0  0  0  0  0  0  0  0  0  0  0
   -1.8577   -4.7158    4.7057 H   0  0  0  0  0  0  0  0  0  0  0  0
   -2.8249   -2.6103    5.5941 H   0  0  0  0  0  0  0  0  0  0  0  0
   -2.2056   -0.4331    4.5818 H   0  0  0  0  0  0  0  0  0  0  0  0
  1 15  1  0  0  0  0
  2  1  2  0  0  0  0
  3  5  1  0  0  0  0
  3  1  1  0  0  0  0
  4  3  1  0  0  0  0
  5  6  2  0  0  0  0
  6 15  1  0  0  0  0
  6  7  1  0  0  0  0
  7  8  1  0  0  0  0
  7 23  1  0  0  0  0
  8 25  1  0  0  0  0
  8  9  1  0  0  0  0
  9 14  1  0  0  0  0
 10  9  1  0  0  0  0
 10 28  1  0  0  0  0
 11 10  1  0  0  0  0
 11 12  1  0  0  0  0
 12 13  1  0  0  0  0
 13 14  1  0  0  0  0
 13 31  1  0  0  0  0
 14 34  1  0  0  0  0
 14 33  1  0  0  0  0
 15 16  1  0  0  0  0
 16 36  1  0  0  0  0
 16 35  1  0  0  0  0
 16 17  1  0  0  0  0
 17 22  1  0  0  0  0
 18 17  2  0  0  0  0
 18 19  1  0  0  0  0
 19 20  2  0  0  0  0
 20 39  1  0  0  0  0
 20 21  1  0  0  0  0
 21 40  1  0  0  0  0
 22 41  1  0  0  0  0
 22 21  2  0  0  0  0
 24  7  1  0  0  0  0
 26  8  1  0  0  0  0
 27 10  1  0  0  0  0
 29 11  1  0  0  0  0
 30 11  1  0  0  0  0
 32 13  1  0  0  0  0
 37 18  1  0  0  0  0
 38 19  1  0  0  0  0
M  END
$$$$
