41

C         -0.00920        0.00200        0.25910
S          1.64240        0.09870        0.45340
N         -0.73200       -0.08430       -0.89130
H         -0.33090       -0.09180       -1.82060
N         -2.08100       -0.11400       -0.70270
C         -2.23070       -0.05880        0.59250
C         -3.56350       -0.10140        1.26580
C         -4.00200       -1.52670        1.65100
N         -3.21420       -2.07160        2.74980
C         -3.76450       -1.80840        4.07920
C         -4.84580       -2.82020        4.46450
O         -4.35820       -4.14300        4.35860
C         -3.90550       -4.43830        3.05020
C         -2.80040       -3.46830        2.63260
N         -1.00350       -0.00070        1.22730
C         -0.74350        0.09220        2.65940
C         -0.99870        1.47620        3.21190
C         -1.89260        1.66760        4.27260
C         -2.13010        2.94790        4.78310
C         -1.47530        4.05080        4.23130
C         -0.57690        3.86650        3.17410
C         -0.33680        2.58850        2.66810
H         -4.29140        0.31540        0.55430
H         -3.55940        0.54920        2.15330
H         -3.88210       -2.17130        0.76710
H         -5.08730       -1.50880        1.87340
H         -4.16230       -0.78190        4.11930
H         -2.94540       -1.87200        4.81790
H         -5.16500       -2.67580        5.50810
H         -5.73840       -2.69000        3.81670
H         -3.53810       -5.47600        3.06390
H         -4.75110       -4.38460        2.33160
H         -1.93050       -3.62480        3.29510
H         -2.46800       -3.66760        1.60210
H          0.31710       -0.18090        2.77470
H         -1.36960       -0.66060        3.15360
H         -2.40370        0.80470        4.70680
H         -2.82980        3.08250        5.61160
H         -1.66070        5.05280        4.62560
H         -0.05490        4.72540        2.74520
H          0.37900        2.43890        1.85560
