rmsd232.gzmat
 OpenBabel08211713403D

 41 43  0  0  0  0  0  0  0  0999 V2000
    0.0000    0.0000    0.0000 C   0  0  0  0  0  0  0  0  0  0  0  0
    1.6611    0.0000    0.0000 S   0  0  0  0  0  0  0  0  0  0  0  0
   -0.8216    0.0000   -1.1172 N   0  0  0  0  0  0  0  0  0  0  0  0
   -0.5738   -0.0225   -2.0918 H   0  0  0  0  0  0  0  0  0  0  0  0
   -2.1516    0.0193   -0.7773 N   0  0  0  0  0  0  0  0  0  0  0  0
   -2.2076    0.0350    0.5614 C   0  0  0  0  0  0  0  0  0  0  0  0
   -3.4531    0.0751    1.3585 C   0  0  0  0  0  0  0  0  0  0  0  0
   -3.8308    1.5356    1.7054 C   0  0  0  0  0  0  0  0  0  0  0  0
   -3.1309    1.9105    2.9550 N   0  0  0  0  0  0  0  0  0  0  0  0
   -2.5659    3.2749    2.9170 C   0  0  0  0  0  0  0  0  0  0  0  0
   -3.6366    4.3667    3.0803 C   0  0  0  0  0  0  0  0  0  0  0  0
   -4.3864    4.1494    4.2622 O   0  0  0  0  0  0  0  0  0  0  0  0
   -5.0225    2.8852    4.2931 C   0  0  0  0  0  0  0  0  0  0  0  0
   -3.9849    1.7570    4.1516 C   0  0  0  0  0  0  0  0  0  0  0  0
   -0.8926    0.0284    1.0759 N   0  0  0  0  0  0  0  0  0  0  0  0
   -0.5338   -0.0265    2.4900 C   0  0  0  0  0  0  0  0  0  0  0  0
   -0.9188   -1.3476    3.1003 C   0  0  0  0  0  0  0  0  0  0  0  0
   -0.4290   -2.5418    2.5711 C   0  0  0  0  0  0  0  0  0  0  0  0
   -0.7979   -3.7564    3.1446 C   0  0  0  0  0  0  0  0  0  0  0  0
   -1.6457   -3.7778    4.2510 C   0  0  0  0  0  0  0  0  0  0  0  0
   -2.1235   -2.5830    4.7870 C   0  0  0  0  0  0  0  0  0  0  0  0
   -1.7615   -1.3671    4.2121 C   0  0  0  0  0  0  0  0  0  0  0  0
   -3.3459   -0.5274    2.2904 H   0  0  0  0  0  0  0  0  0  0  0  0
   -4.2825   -0.4001    0.7867 H   0  0  0  0  0  0  0  0  0  0  0  0
   -4.9350    1.6203    1.7858 H   0  0  0  0  0  0  0  0  0  0  0  0
   -3.5381    2.2046    0.8665 H   0  0  0  0  0  0  0  0  0  0  0  0
   -1.9888    3.4169    1.9800 H   0  0  0  0  0  0  0  0  0  0  0  0
   -1.8297    3.3451    3.7525 H   0  0  0  0  0  0  0  0  0  0  0  0
   -3.1924    5.3623    3.2607 H   0  0  0  0  0  0  0  0  0  0  0  0
   -4.3172    4.4206    2.2150 H   0  0  0  0  0  0  0  0  0  0  0  0
   -5.5052    2.8847    5.2864 H   0  0  0  0  0  0  0  0  0  0  0  0
   -5.7994    2.8441    3.5117 H   0  0  0  0  0  0  0  0  0  0  0  0
   -3.3069    1.7629    5.0367 H   0  0  0  0  0  0  0  0  0  0  0  0
   -4.4804    0.7654    4.1317 H   0  0  0  0  0  0  0  0  0  0  0  0
   -1.0416    0.8295    3.0135 H   0  0  0  0  0  0  0  0  0  0  0  0
    0.5694    0.1439    2.6097 H   0  0  0  0  0  0  0  0  0  0  0  0
    0.2441   -2.5266    1.7126 H   0  0  0  0  0  0  0  0  0  0  0  0
   -0.4187   -4.6893    2.7297 H   0  0  0  0  0  0  0  0  0  0  0  0
   -1.9305   -4.7275    4.6985 H   0  0  0  0  0  0  0  0  0  0  0  0
   -2.7787   -2.5997    5.6548 H   0  0  0  0  0  0  0  0  0  0  0  0
   -2.1365   -0.4341    4.6312 H   0  0  0  0  0  0  0  0  0  0  0  0
  1 15  1  0  0  0  0
  2  1  2  0  0  0  0
  3  5  1  0  0  0  0
  3  1  1  0  0  0  0
  4  3  1  0  0  0  0
  5  6  2  0  0  0  0
  6 15  1  0  0  0  0
  6  7  1  0  0  0  0
  7  8  1  0  0  0  0
  7 23  1  0  0  0  0
  8 25  1  0  0  0  0
  8  9  1  0  0  0  0
  9 14  1  0  0  0  0
 10  9  1  0  0  0  0
 10 11  1  0  0  0  0
 10 28  1  0  0  0  0
 11 29  1  0  0  0  0
 11 12  1  0  0  0  0
 12 13  1  0  0  0  0
 13 31  1  0  0  0  0
 14 13  1  0  0  0  0
 14 33  1  0  0  0  0
 15 16  1  0  0  0  0
 16 36  1  0  0  0  0
 16 35  1  0  0  0  0
 16 17  1  0  0  0  0
 17 22  1  0  0  0  0
 18 17  2  0  0  0  0
 18 19  1  0  0  0  0
 19 20  2  0  0  0  0
 20 39  1  0  0  0  0
 20 21  1  0  0  0  0
 21 40  1  0  0  0  0
 22 41  1  0  0  0  0
 22 21  2  0  0  0  0
 24  7  1  0  0  0  0
 26  8  1  0  0  0  0
 27 10  1  0  0  0  0
 30 11  1  0  0  0  0
 32 13  1  0  0  0  0
 34 14  1  0  0  0  0
 37 18  1  0  0  0  0
 38 19  1  0  0  0  0
M  END
$$$$
