41

C         -0.00990       -0.14450        0.13590
S          1.64030       -0.29530        0.30590
N         -0.75320       -0.11020       -1.00410
H         -0.37230       -0.18480       -1.93880
N         -2.09570       -0.01220       -0.79280
C         -2.21950        0.03040        0.50560
C         -3.53500        0.17410        1.19880
C         -3.91000        1.63940        1.48880
N         -3.07920        2.22860        2.53150
C         -2.62100        3.59870        2.31070
C         -3.68270        4.63350        2.68310
O         -4.11580        4.44380        4.01740
C         -4.64560        3.14930        4.22330
C         -3.60840        2.07600        3.88660
N         -0.98220       -0.03270        1.11980
C         -0.69510       -0.03450        2.54970
C         -0.99470       -1.36370        3.20500
C         -0.39610       -2.53970        2.72590
C         -0.67700       -3.76720        3.32710
C         -1.55350       -3.83670        4.41590
C         -2.14510       -2.66980        4.90350
C         -1.86700       -1.44020        4.29780
H         -3.53700       -0.41180        2.13030
H         -4.29350       -0.26280        0.53260
H         -4.99060        1.68070        1.73080
H         -3.78320        2.21450        0.55920
H         -2.30530        3.71580        1.26250
H         -1.73170        3.76880        2.94330
H         -3.27970        5.65590        2.61830
H         -4.54560        4.56180        1.98690
H         -4.94610        3.08730        5.28050
H         -5.55660        3.00730        3.60400
H         -2.77140        2.16020        4.60280
H         -4.04010        1.06940        4.00490
H         -1.27840        0.77770        3.00040
H          0.37820        0.20060        2.62500
H          0.30340       -2.47960        1.88810
H         -0.20410       -4.67650        2.94790
H         -1.77100       -4.79940        4.88470
H         -2.82730       -2.71470        5.75600
H         -2.32880       -0.52710        4.68160
