
     RDKit          3D

 21 20  0  0  0  0  0  0  0  0999 V2000
   -0.1315   -0.0948    0.0366 N   0  0  0  0  0  0  0  0  0  0  0  0
    1.2091    0.0880   -0.1294 C   0  0  0  0  0  0  0  0  0  0  0  0
    1.9857    0.3680    0.7585 O   0  0  0  0  0  0  0  0  0  0  0  0
   -0.7805    0.0381    1.3243 C   0  0  1  0  0  0  0  0  0  0  0  0
    0.0273   -0.0346    2.0746 H   0  0  0  0  0  0  0  0  0  0  0  0
   -1.5066    1.3771    1.5341 C   0  0  0  0  0  0  0  0  0  0  0  0
   -2.3310    1.8153    0.3223 C   0  0  0  0  0  0  0  0  0  0  0  0
   -3.3979    0.5233   -0.4141 S   0  0  0  0  0  0  0  0  0  0  0  0
   -4.6931    0.3595    0.8521 C   0  0  0  0  0  0  0  0  0  0  0  0
   -1.6914   -1.1563    1.5885 C   0  0  0  0  0  0  0  0  0  0  0  0
   -2.4985   -1.1953    2.4847 O   0  0  0  0  0  0  0  0  0  0  0  0
   -0.7071   -0.3122   -0.7707 H   0  0  0  0  0  0  0  0  0  0  0  0
    1.5245   -0.0540   -1.1916 H   0  0  0  0  0  0  0  0  0  0  0  0
   -0.7676    2.1639    1.7556 H   0  0  0  0  0  0  0  0  0  0  0  0
   -2.1429    1.2665    2.4255 H   0  0  0  0  0  0  0  0  0  0  0  0
   -1.6664    2.1108   -0.5035 H   0  0  0  0  0  0  0  0  0  0  0  0
   -2.9504    2.6922    0.5669 H   0  0  0  0  0  0  0  0  0  0  0  0
   -5.4571   -0.3092    0.4315 H   0  0  0  0  0  0  0  0  0  0  0  0
   -5.1507    1.3394    1.0536 H   0  0  0  0  0  0  0  0  0  0  0  0
   -4.2968   -0.0819    1.7776 H   0  0  0  0  0  0  0  0  0  0  0  0
   -1.5042   -2.0385    0.9240 H   0  0  0  0  0  0  0  0  0  0  0  0
  1  2  1  0
  1  4  1  0
  1 12  1  0
  2  3  2  0
  2 13  1  0
  4  5  1  1
  4  6  1  0
  4 10  1  0
  6  7  1  0
  6 14  1  0
  6 15  1  0
  7  8  1  0
  7 16  1  0
  7 17  1  0
  8  9  1  0
  9 18  1  0
  9 19  1  0
  9 20  1  0
 10 11  2  0
 10 21  1  0
M  END

