21
rmsd57.gzmat
N          0.00000        0.00000        0.00000
C          1.38120        0.00000        0.00000
O          2.00360        0.00000        1.04200
C         -0.73950        0.02850        1.26420
H         -0.08600       -0.38840        2.08050
C         -1.15290        1.47670        1.61150
C         -1.45830        1.66910        3.08820
S         -2.94800        0.77740        3.67010
C         -4.30160        1.55090        2.73460
C         -1.99720       -0.83170        1.08340
O         -2.64320       -0.75180        0.06910
H         -0.55430        0.03430       -0.84340
H          1.85790       -0.01050       -0.99000
H         -1.99880        1.79730        0.97140
H         -0.31350        2.15390        1.33000
H         -1.55980        2.74600        3.32190
H         -0.61830        1.30510        3.71610
H         -5.25200        1.20700        3.16390
H         -4.28830        1.26100        1.67740
H         -4.28210        2.64300        2.79630
H         -2.27000       -1.51720        1.89100
