21

N         -0.01630       -0.05940        0.01390
C          1.33830       -0.06790        0.05640
O          2.01860        0.07720        1.05420
C         -0.87170       -0.05930        1.18250
H         -0.36470       -0.57500        2.02200
C         -1.25340        1.34550        1.69700
C         -0.15930        2.01020        2.53650
S          0.07230        1.12150        4.12780
C          1.89050        1.00990        4.20280
C         -2.12710       -0.84000        0.85340
O         -2.37640       -1.28120       -0.24140
H         -0.47800       -0.32630       -0.85330
H          1.78620       -0.21660       -0.95570
H         -2.17190        1.27060        2.30550
H         -1.50060        1.97940        0.82890
H         -0.43440        3.05600        2.74170
H          0.80020        2.00040        2.00330
H          2.12800        0.37340        5.06730
H          2.34340        2.00060        4.35820
H          2.27330        0.55050        3.28240
H         -2.83710       -0.96090        1.70870
