rmsd118.gzmat
 OpenBabel08211713433D

 21 20  0  0  1  0  0  0  0  0999 V2000
    0.0000    0.0000    0.0000 N   0  0  0  0  0  0  0  0  0  0  0  0
    1.3773    0.0000    0.0000 C   0  0  0  0  0  0  0  0  0  0  0  0
    2.0064    0.0000    1.0399 O   0  0  0  0  0  0  0  0  0  0  0  0
   -0.7536   -0.0523    1.2526 C   0  0  1  0  0  0  0  0  0  0  0  0
   -0.1012   -0.4970    2.0581 H   0  0  0  0  0  0  0  0  0  0  0  0
   -1.2431    1.3509    1.6789 C   0  0  0  0  0  0  0  0  0  0  0  0
   -0.1702    2.1343    2.4259 C   0  0  0  0  0  0  0  0  0  0  0  0
    0.0186    1.5552    4.1603 S   0  0  0  0  0  0  0  0  0  0  0  0
    1.6927    0.8438    4.1854 C   0  0  0  0  0  0  0  0  0  0  0  0
   -1.9906   -0.9332    1.0617 C   0  0  0  0  0  0  0  0  0  0  0  0
   -2.4073   -1.1958   -0.0377 O   0  0  0  0  0  0  0  0  0  0  0  0
   -0.5483   -0.0389   -0.8496 H   0  0  0  0  0  0  0  0  0  0  0  0
    1.8577    0.0107   -0.9894 H   0  0  0  0  0  0  0  0  0  0  0  0
   -2.1644    1.2687    2.2918 H   0  0  0  0  0  0  0  0  0  0  0  0
   -1.5503    1.9207    0.7754 H   0  0  0  0  0  0  0  0  0  0  0  0
   -0.4355    3.2079    2.4673 H   0  0  0  0  0  0  0  0  0  0  0  0
    0.8008    2.0748    1.8959 H   0  0  0  0  0  0  0  0  0  0  0  0
    1.8041    0.2429    5.0949 H   0  0  0  0  0  0  0  0  0  0  0  0
    2.4636    1.6212    4.1885 H   0  0  0  0  0  0  0  0  0  0  0  0
    1.8857    0.1905    3.3211 H   0  0  0  0  0  0  0  0  0  0  0  0
   -2.4825   -1.2959    1.9710 H   0  0  0  0  0  0  0  0  0  0  0  0
  1  2  1  0  0  0  0
  1  4  1  0  0  0  0
  2  3  2  0  0  0  0
  4  6  1  0  0  0  0
  4  5  1  1  0  0  0
  6 14  1  0  0  0  0
  6  7  1  0  0  0  0
  7 16  1  0  0  0  0
  7  8  1  0  0  0  0
  8  9  1  0  0  0  0
  9 19  1  0  0  0  0
  9 18  1  0  0  0  0
 10  4  1  0  0  0  0
 10 21  1  0  0  0  0
 11 10  2  0  0  0  0
 12  1  1  0  0  0  0
 13  2  1  0  0  0  0
 15  6  1  0  0  0  0
 17  7  1  0  0  0  0
 20  9  1  0  0  0  0
M  END
$$$$
