21
rmsd146.gzmat
N          0.00000        0.00000        0.00000
C          1.38150        0.00000        0.00000
O          2.00470        0.00000        1.04090
C         -0.74720        0.01360        1.25990
H         -0.04810       -0.22180        2.10950
C         -1.38780        1.40130        1.47620
C         -1.94130        1.58770        2.87940
S         -3.35490        0.48980        3.27150
C         -4.60330        0.94340        2.02910
C         -1.84150       -1.05980        1.14300
O         -2.56540       -1.07670        0.17930
H         -0.55170        0.00780       -0.84530
H          1.85780       -0.00620       -0.99020
H         -2.16450        1.58120        0.70480
H         -0.61100        2.17700        1.28940
H         -2.23790        2.64200        3.03900
H         -1.16730        1.37310        3.64510
H         -5.58040        0.57750        2.36920
H         -4.39200        0.47900        1.05600
H         -4.68150        2.02500        1.88840
H         -1.90760       -1.81260        1.93360
