rmsd146.gzmat
 OpenBabel08211713433D

 21 20  0  0  1  0  0  0  0  0999 V2000
    0.0000    0.0000    0.0000 N   0  0  0  0  0  0  0  0  0  0  0  0
    1.3815    0.0000    0.0000 C   0  0  0  0  0  0  0  0  0  0  0  0
    2.0047    0.0000    1.0409 O   0  0  0  0  0  0  0  0  0  0  0  0
   -0.7472    0.0136    1.2599 C   0  0  1  0  0  0  0  0  0  0  0  0
   -0.0481   -0.2218    2.1095 H   0  0  0  0  0  0  0  0  0  0  0  0
   -1.3878    1.4013    1.4762 C   0  0  0  0  0  0  0  0  0  0  0  0
   -1.9413    1.5877    2.8794 C   0  0  0  0  0  0  0  0  0  0  0  0
   -3.3549    0.4898    3.2715 S   0  0  0  0  0  0  0  0  0  0  0  0
   -4.6033    0.9434    2.0291 C   0  0  0  0  0  0  0  0  0  0  0  0
   -1.8415   -1.0598    1.1430 C   0  0  0  0  0  0  0  0  0  0  0  0
   -2.5654   -1.0767    0.1793 O   0  0  0  0  0  0  0  0  0  0  0  0
   -0.5517    0.0078   -0.8453 H   0  0  0  0  0  0  0  0  0  0  0  0
    1.8578   -0.0062   -0.9902 H   0  0  0  0  0  0  0  0  0  0  0  0
   -2.1645    1.5812    0.7048 H   0  0  0  0  0  0  0  0  0  0  0  0
   -0.6110    2.1770    1.2894 H   0  0  0  0  0  0  0  0  0  0  0  0
   -2.2379    2.6420    3.0390 H   0  0  0  0  0  0  0  0  0  0  0  0
   -1.1673    1.3731    3.6451 H   0  0  0  0  0  0  0  0  0  0  0  0
   -5.5804    0.5775    2.3692 H   0  0  0  0  0  0  0  0  0  0  0  0
   -4.3920    0.4790    1.0560 H   0  0  0  0  0  0  0  0  0  0  0  0
   -4.6815    2.0250    1.8884 H   0  0  0  0  0  0  0  0  0  0  0  0
   -1.9076   -1.8126    1.9336 H   0  0  0  0  0  0  0  0  0  0  0  0
  1  4  1  0  0  0  0
  2  1  1  0  0  0  0
  2  3  2  0  0  0  0
  4  6  1  0  0  0  0
  4  5  1  1  0  0  0
  6  7  1  0  0  0  0
  7 16  1  0  0  0  0
  7  8  1  0  0  0  0
  7 17  1  0  0  0  0
  9 18  1  0  0  0  0
  9  8  1  0  0  0  0
 10  4  1  0  0  0  0
 10 21  1  0  0  0  0
 11 10  2  0  0  0  0
 12  1  1  0  0  0  0
 13  2  1  0  0  0  0
 14  6  1  0  0  0  0
 15  6  1  0  0  0  0
 19  9  1  0  0  0  0
 20  9  1  0  0  0  0
M  END
$$$$
