
     RDKit          3D

 36 38  0  0  0  0  0  0  0  0999 V2000
   -0.0025   -0.0500    0.0010 O   0  0  0  0  0  0  0  0  0  0  0  0
    1.2000    0.0307    0.0358 C   0  0  0  0  0  0  0  0  0  0  0  0
    1.9566    0.2760    1.1650 N   0  0  0  0  0  0  0  0  0  0  0  0
    3.6508    0.1831    0.9415 S   0  0  0  0  0  0  0  0  0  0  0  0
    4.0998   -1.1243    1.3905 O   0  0  0  0  0  0  0  0  0  0  0  0
    4.3045    1.3874    1.4262 O   0  0  0  0  0  0  0  0  0  0  0  0
    3.4988    0.2275   -0.7525 N   0  0  0  0  0  0  0  0  0  0  0  0
    2.1456   -0.1775   -1.1465 C   0  0  0  0  0  0  0  0  0  0  0  0
    4.1407    1.3196   -1.4146 C   0  0  0  0  0  0  0  0  0  0  0  0
    5.3936    1.1326   -1.9869 C   0  0  0  0  0  0  0  0  0  0  0  0
    6.0693    2.1805   -2.6373 C   0  0  0  0  0  0  0  0  0  0  0  0
    5.4277    3.4275   -2.6902 C   0  0  0  0  0  0  0  0  0  0  0  0
    4.1702    3.6367   -2.1186 C   0  0  0  0  0  0  0  0  0  0  0  0
    3.5168    2.5858   -1.4667 C   0  0  0  0  0  0  0  0  0  0  0  0
    2.3074    2.6716   -0.8693 O   0  0  0  0  0  0  0  0  0  0  0  0
    1.6518    3.9206   -0.7937 C   0  0  0  0  0  0  0  0  0  0  0  0
    7.4082    1.9705   -3.2396 C   0  0  0  0  0  0  0  0  0  0  0  0
    7.7767    2.6208   -4.4312 C   0  0  0  0  0  0  0  0  0  0  0  0
    9.0380    2.4248   -4.9952 C   0  0  0  0  0  0  0  0  0  0  0  0
    9.9589    1.5712   -4.3814 C   0  0  0  0  0  0  0  0  0  0  0  0
    9.6062    0.9167   -3.1978 C   0  0  0  0  0  0  0  0  0  0  0  0
    8.3457    1.1150   -2.6329 C   0  0  0  0  0  0  0  0  0  0  0  0
    1.5522    0.2654    2.0978 H   0  0  0  0  0  0  0  0  0  0  0  0
    1.7977    0.4222   -1.9954 H   0  0  0  0  0  0  0  0  0  0  0  0
    2.1121   -1.2433   -1.4297 H   0  0  0  0  0  0  0  0  0  0  0  0
    5.8310    0.1354   -1.9285 H   0  0  0  0  0  0  0  0  0  0  0  0
    5.9323    4.2701   -3.1668 H   0  0  0  0  0  0  0  0  0  0  0  0
    3.7184    4.6270   -2.1665 H   0  0  0  0  0  0  0  0  0  0  0  0
    0.7166    3.7449   -0.2474 H   0  0  0  0  0  0  0  0  0  0  0  0
    1.4158    4.3159   -1.7969 H   0  0  0  0  0  0  0  0  0  0  0  0
    2.2623    4.6592   -0.2469 H   0  0  0  0  0  0  0  0  0  0  0  0
    7.0564    3.2687   -4.9355 H   0  0  0  0  0  0  0  0  0  0  0  0
    9.2997    2.9347   -5.9256 H   0  0  0  0  0  0  0  0  0  0  0  0
   10.9460    1.4166   -4.8232 H   0  0  0  0  0  0  0  0  0  0  0  0
   10.3210    0.2536   -2.7045 H   0  0  0  0  0  0  0  0  0  0  0  0
    8.0928    0.6192   -1.6933 H   0  0  0  0  0  0  0  0  0  0  0  0
  1  2  2  0
  2  3  1  0
  2  8  1  0
  4  3  1  0
  3 23  1  0
  4  5  2  0
  4  6  2  0
  4  7  1  0
  7  8  1  0
  7  9  1  0
  8 24  1  0
  8 25  1  0
  9 10  2  0
  9 14  1  0
 10 11  1  0
 10 26  1  0
 11 12  2  0
 11 17  1  0
 12 13  1  0
 12 27  1  0
 13 14  2  0
 13 28  1  0
 14 15  1  0
 15 16  1  0
 16 29  1  0
 16 30  1  0
 16 31  1  0
 17 18  2  0
 17 22  1  0
 18 19  1  0
 18 32  1  0
 19 20  2  0
 19 33  1  0
 20 21  1  0
 20 34  1  0
 21 22  2  0
 21 35  1  0
 22 36  1  0
M  END

