36
rmsd10.gzmat
O          0.00000        0.00000        0.00000
C          1.20430        0.00000        0.00000
N          1.97110        0.00000        1.16080
S          3.70060        0.02620        0.87980
O          4.23120       -1.26710        1.18190
O          4.25970        1.19870        1.47830
N          3.50110        0.20040       -0.86290
C          2.09190       -0.02780       -1.24470
C          4.12250        1.33720       -1.45850
C          5.37620        1.14250       -2.03810
C          6.05300        2.21270       -2.62990
C          5.47150        3.48120       -2.65530
C          4.21550        3.69500       -2.09240
C          3.54500        2.62900       -1.49870
O          2.30510        2.68650       -0.94850
C          1.74840        3.97490       -0.72040
C          7.37910        1.99010       -3.21550
C          7.62730        2.32810       -4.54820
C          8.88630        2.10050       -5.09860
C          9.90000        1.54150       -4.32240
C          9.65360        1.20660       -2.99170
C          8.39610        1.42960       -2.43710
H          1.52820        0.02450        2.06890
H          1.71720        0.69970       -2.00010
H          2.02650       -1.03480       -1.73120
H          5.82610        0.14570       -2.03030
H          6.00800        4.31340       -3.11350
H          3.77710        4.68800       -2.11780
H          0.83870        3.73070       -0.15190
H          1.49180        4.45520       -1.66860
H          2.42090        4.59490       -0.11870
H          6.83670        2.76220       -5.15740
H          9.07770        2.35940       -6.13800
H         10.88280        1.36790       -4.75570
H         10.44450        0.76970       -2.38460
H          8.20330        1.17390       -1.39580
