rmsd10.gzmat
 OpenBabel08211713433D

 36 38  0  0  0  0  0  0  0  0999 V2000
    0.0000    0.0000    0.0000 O   0  0  0  0  0  0  0  0  0  0  0  0
    1.2043    0.0000    0.0000 C   0  0  0  0  0  0  0  0  0  0  0  0
    1.9711    0.0000    1.1608 N   0  0  0  0  0  0  0  0  0  0  0  0
    3.7006    0.0262    0.8798 S   0  0  0  0  0  0  0  0  0  0  0  0
    4.2312   -1.2671    1.1819 O   0  0  0  0  0  0  0  0  0  0  0  0
    4.2597    1.1987    1.4783 O   0  0  0  0  0  0  0  0  0  0  0  0
    3.5011    0.2004   -0.8629 N   0  0  0  0  0  0  0  0  0  0  0  0
    2.0919   -0.0278   -1.2447 C   0  0  0  0  0  0  0  0  0  0  0  0
    4.1225    1.3372   -1.4585 C   0  0  0  0  0  0  0  0  0  0  0  0
    5.3762    1.1425   -2.0381 C   0  0  0  0  0  0  0  0  0  0  0  0
    6.0530    2.2127   -2.6299 C   0  0  0  0  0  0  0  0  0  0  0  0
    5.4715    3.4812   -2.6553 C   0  0  0  0  0  0  0  0  0  0  0  0
    4.2155    3.6950   -2.0924 C   0  0  0  0  0  0  0  0  0  0  0  0
    3.5450    2.6290   -1.4987 C   0  0  0  0  0  0  0  0  0  0  0  0
    2.3051    2.6865   -0.9485 O   0  0  0  0  0  0  0  0  0  0  0  0
    1.7484    3.9749   -0.7204 C   0  0  0  0  0  0  0  0  0  0  0  0
    7.3791    1.9901   -3.2155 C   0  0  0  0  0  0  0  0  0  0  0  0
    7.6273    2.3281   -4.5482 C   0  0  0  0  0  0  0  0  0  0  0  0
    8.8863    2.1005   -5.0986 C   0  0  0  0  0  0  0  0  0  0  0  0
    9.9000    1.5415   -4.3224 C   0  0  0  0  0  0  0  0  0  0  0  0
    9.6536    1.2066   -2.9917 C   0  0  0  0  0  0  0  0  0  0  0  0
    8.3961    1.4296   -2.4371 C   0  0  0  0  0  0  0  0  0  0  0  0
    1.5282    0.0245    2.0689 H   0  0  0  0  0  0  0  0  0  0  0  0
    1.7172    0.6997   -2.0001 H   0  0  0  0  0  0  0  0  0  0  0  0
    2.0265   -1.0348   -1.7312 H   0  0  0  0  0  0  0  0  0  0  0  0
    5.8261    0.1457   -2.0303 H   0  0  0  0  0  0  0  0  0  0  0  0
    6.0080    4.3134   -3.1135 H   0  0  0  0  0  0  0  0  0  0  0  0
    3.7771    4.6880   -2.1178 H   0  0  0  0  0  0  0  0  0  0  0  0
    0.8387    3.7307   -0.1519 H   0  0  0  0  0  0  0  0  0  0  0  0
    1.4918    4.4552   -1.6686 H   0  0  0  0  0  0  0  0  0  0  0  0
    2.4209    4.5949   -0.1187 H   0  0  0  0  0  0  0  0  0  0  0  0
    6.8367    2.7622   -5.1574 H   0  0  0  0  0  0  0  0  0  0  0  0
    9.0777    2.3594   -6.1380 H   0  0  0  0  0  0  0  0  0  0  0  0
   10.8828    1.3679   -4.7557 H   0  0  0  0  0  0  0  0  0  0  0  0
   10.4445    0.7697   -2.3846 H   0  0  0  0  0  0  0  0  0  0  0  0
    8.2033    1.1739   -1.3958 H   0  0  0  0  0  0  0  0  0  0  0  0
  2  1  2  0  0  0  0
  2  3  1  0  0  0  0
  3 23  1  0  0  0  0
  4  3  1  0  0  0  0
  4  5  2  0  0  0  0
  4  6  2  0  0  0  0
  7  4  1  0  0  0  0
  8  7  1  0  0  0  0
  8  2  1  0  0  0  0
  9  7  1  0  0  0  0
 10 26  1  0  0  0  0
 10  9  2  0  0  0  0
 11 10  1  0  0  0  0
 12 11  2  0  0  0  0
 12 13  1  0  0  0  0
 13 14  2  0  0  0  0
 14  9  1  0  0  0  0
 14 15  1  0  0  0  0
 15 16  1  0  0  0  0
 16 29  1  0  0  0  0
 16 31  1  0  0  0  0
 17 11  1  0  0  0  0
 17 22  2  0  0  0  0
 18 17  1  0  0  0  0
 19 18  2  0  0  0  0
 19 20  1  0  0  0  0
 20 21  2  0  0  0  0
 21 22  1  0  0  0  0
 21 35  1  0  0  0  0
 22 36  1  0  0  0  0
 24  8  1  0  0  0  0
 25  8  1  0  0  0  0
 27 12  1  0  0  0  0
 28 13  1  0  0  0  0
 30 16  1  0  0  0  0
 32 18  1  0  0  0  0
 33 19  1  0  0  0  0
 34 20  1  0  0  0  0
M  END
$$$$
