rmsd7.gzmat
 OpenBabel08211713433D

 36 38  0  0  0  0  0  0  0  0999 V2000
    0.0000    0.0000    0.0000 O   0  0  0  0  0  0  0  0  0  0  0  0
    1.2034    0.0000    0.0000 C   0  0  0  0  0  0  0  0  0  0  0  0
    1.9707    0.0000    1.1605 N   0  0  0  0  0  0  0  0  0  0  0  0
    3.6987   -0.0194    0.8872 S   0  0  0  0  0  0  0  0  0  0  0  0
    4.2499   -1.2158    1.4461 O   0  0  0  0  0  0  0  0  0  0  0  0
    4.2350    1.2652    1.2156 O   0  0  0  0  0  0  0  0  0  0  0  0
    3.4910   -0.2104   -0.8465 N   0  0  0  0  0  0  0  0  0  0  0  0
    2.0823    0.0047   -1.2493 C   0  0  0  0  0  0  0  0  0  0  0  0
    4.4402    0.4257   -1.7022 C   0  0  0  0  0  0  0  0  0  0  0  0
    4.5809    1.8235   -1.7039 C   0  0  0  0  0  0  0  0  0  0  0  0
    5.4920    2.4513   -2.5426 C   0  0  0  0  0  0  0  0  0  0  0  0
    6.2823    1.6820   -3.4107 C   0  0  0  0  0  0  0  0  0  0  0  0
    6.1646    0.3060   -3.4205 C   0  0  0  0  0  0  0  0  0  0  0  0
    5.2433   -0.3383   -2.5651 C   0  0  0  0  0  0  0  0  0  0  0  0
    5.2661   -1.6733   -2.7615 O   0  0  0  0  0  0  0  0  0  0  0  0
    4.6410   -2.5499   -1.8327 C   0  0  0  0  0  0  0  0  0  0  0  0
    5.6291    3.9103   -2.5053 C   0  0  0  0  0  0  0  0  0  0  0  0
    5.8672    4.5506   -1.2853 C   0  0  0  0  0  0  0  0  0  0  0  0
    5.9890    5.9365   -1.2405 C   0  0  0  0  0  0  0  0  0  0  0  0
    5.8694    6.6869   -2.4095 C   0  0  0  0  0  0  0  0  0  0  0  0
    5.6309    6.0494   -3.6256 C   0  0  0  0  0  0  0  0  0  0  0  0
    5.5121    4.6624   -3.6766 C   0  0  0  0  0  0  0  0  0  0  0  0
    1.5262   -0.0240    2.0688 H   0  0  0  0  0  0  0  0  0  0  0  0
    1.9229    0.9462   -1.8249 H   0  0  0  0  0  0  0  0  0  0  0  0
    1.7789   -0.8277   -1.9306 H   0  0  0  0  0  0  0  0  0  0  0  0
    3.9745    2.4328   -1.0260 H   0  0  0  0  0  0  0  0  0  0  0  0
    6.9984    2.1778   -4.0683 H   0  0  0  0  0  0  0  0  0  0  0  0
    6.7784   -0.3059   -4.0806 H   0  0  0  0  0  0  0  0  0  0  0  0
    4.9762   -3.5307   -2.1953 H   0  0  0  0  0  0  0  0  0  0  0  0
    3.5526   -2.4647   -1.8936 H   0  0  0  0  0  0  0  0  0  0  0  0
    4.9995   -2.3758   -0.8118 H   0  0  0  0  0  0  0  0  0  0  0  0
    5.9590    3.9611   -0.3721 H   0  0  0  0  0  0  0  0  0  0  0  0
    6.1766    6.4336   -0.2905 H   0  0  0  0  0  0  0  0  0  0  0  0
    5.9616    7.7700   -2.3718 H   0  0  0  0  0  0  0  0  0  0  0  0
    5.5348    6.6354   -4.5371 H   0  0  0  0  0  0  0  0  0  0  0  0
    5.3189    4.1653   -4.6248 H   0  0  0  0  0  0  0  0  0  0  0  0
  1  2  2  0  0  0  0
  2  3  1  0  0  0  0
  3 23  1  0  0  0  0
  4  3  1  0  0  0  0
  4  6  2  0  0  0  0
  4  5  2  0  0  0  0
  7  4  1  0  0  0  0
  8  7  1  0  0  0  0
  8  2  1  0  0  0  0
  9  7  1  0  0  0  0
 10  9  1  0  0  0  0
 10 26  1  0  0  0  0
 11 17  1  0  0  0  0
 11 10  2  0  0  0  0
 12 11  1  0  0  0  0
 13 12  2  0  0  0  0
 13 14  1  0  0  0  0
 14  9  2  0  0  0  0
 15 14  1  0  0  0  0
 15 16  1  0  0  0  0
 16 31  1  0  0  0  0
 17 18  2  0  0  0  0
 18 19  1  0  0  0  0
 18 32  1  0  0  0  0
 19 33  1  0  0  0  0
 20 34  1  0  0  0  0
 20 19  2  0  0  0  0
 21 20  1  0  0  0  0
 22 21  2  0  0  0  0
 22 17  1  0  0  0  0
 24  8  1  0  0  0  0
 25  8  1  0  0  0  0
 27 12  1  0  0  0  0
 28 13  1  0  0  0  0
 29 16  1  0  0  0  0
 30 16  1  0  0  0  0
 35 21  1  0  0  0  0
 36 22  1  0  0  0  0
M  END
$$$$
