36
rmsd20.gzmat
O          0.00000        0.00000        0.00000
C          1.20460        0.00000        0.00000
N          1.97100        0.00000        1.16010
S          3.70120        0.01780        0.88210
O          4.22780       -1.26960        1.21450
O          4.25970        1.20360        1.45520
N          3.50610        0.15690       -0.86400
C          2.08970       -0.02370       -1.24640
C          4.17220        1.25510       -1.48360
C          5.40590        0.99760       -2.08210
C          6.12490        2.03340       -2.68520
C          5.60510        3.32910       -2.70260
C          4.36830        3.60430       -2.12540
C          3.65540        2.57220       -1.52100
O          2.42350        2.69020       -0.96170
C          1.95620        4.00480       -0.68680
C          7.43310        1.75750       -3.28820
C          7.56520        0.76100       -4.25900
C          8.81250        0.49900       -4.82040
C          9.92910        1.23030       -4.41820
C          9.79820        2.22510       -3.45050
C          8.55340        2.49130       -2.88640
H          1.52760        0.02170        2.06800
H          1.73070        0.73190       -1.98220
H          1.99650       -1.01650       -1.75550
H          5.81270       -0.01750       -2.06720
H          6.17130        4.13230       -3.17660
H          3.97670        4.61670       -2.14790
H          1.02570        3.80520       -0.13510
H          1.74610        4.54020       -1.61680
H          2.66570        4.54850       -0.05430
H          6.69190        0.19500       -4.57810
H          8.91510       -0.27900       -5.57470
H         10.90250        1.02400       -4.85820
H         10.66990        2.79380       -3.13210
H          8.45150        3.26390       -2.12610
