36

O         -0.00250       -0.05000        0.00100
C          1.20000        0.03070        0.03580
N          1.95660        0.27600        1.16500
S          3.65080        0.18310        0.94150
O          4.09980       -1.12430        1.39050
O          4.30450        1.38740        1.42620
N          3.49880        0.22750       -0.75250
C          2.14560       -0.17750       -1.14650
C          4.14070        1.31960       -1.41460
C          5.39360        1.13260       -1.98690
C          6.06930        2.18050       -2.63730
C          5.42770        3.42750       -2.69020
C          4.17020        3.63670       -2.11860
C          3.51680        2.58580       -1.46670
O          2.30740        2.67160       -0.86930
C          1.65180        3.92060       -0.79370
C          7.40820        1.97050       -3.23960
C          7.77670        2.62080       -4.43120
C          9.03800        2.42480       -4.99520
C          9.95890        1.57120       -4.38140
C          9.60620        0.91670       -3.19780
C          8.34570        1.11500       -2.63290
H          1.55220        0.26540        2.09780
H          1.79770        0.42220       -1.99540
H          2.11210       -1.24330       -1.42970
H          5.83100        0.13540       -1.92850
H          5.93230        4.27010       -3.16680
H          3.71840        4.62700       -2.16650
H          0.71660        3.74490       -0.24740
H          1.41580        4.31590       -1.79690
H          2.26230        4.65920       -0.24690
H          7.05640        3.26870       -4.93550
H          9.29970        2.93470       -5.92560
H         10.94600        1.41660       -4.82320
H         10.32100        0.25360       -2.70450
H          8.09280        0.61920       -1.69330
