36
rmsd21.gzmat
O          0.00000        0.00000        0.00000
C          1.20450        0.00000        0.00000
N          1.96940        0.00000        1.16130
S          3.69890        0.01890        0.88960
O          4.24340       -1.23410        1.31060
O          4.23900        1.24710        1.38880
N          3.51070        0.04960       -0.86040
C          2.08520       -0.01770       -1.24790
C          4.28250        1.02940       -1.55220
C          5.43070        0.58830       -2.21150
C          6.25210        1.50280       -2.87560
C          5.93220        2.86250       -2.87590
C          4.78070        3.31820       -2.24020
C          3.95230        2.40240       -1.59600
O          2.75000        2.70810       -1.03770
C          2.64550        3.98760       -0.42180
C          7.44720        1.02280       -3.57820
C          7.32370        0.03360       -4.55820
C          8.45510       -0.43230       -5.22260
C          9.71120        0.08650       -4.91180
C          9.83490        1.07510       -3.93680
C          8.70600        1.54560       -3.27040
H          1.52410        0.00960        2.06880
H          1.77330        0.79920       -1.93960
H          1.92820       -0.97480       -1.80710
H          5.68900       -0.47430       -2.19540
H          6.58550        3.57080       -3.38700
H          4.53260        4.37540       -2.25400
H          1.65980        3.92970        0.06100
H          2.66350        4.78280       -1.17080
H          3.43310        4.11700        0.33010
H          6.34170       -0.36710       -4.80270
H          8.35810       -1.20300       -5.98500
H         10.59480       -0.28020       -5.42990
H         10.81620        1.47890       -3.69440
H          8.80320        2.31350       -2.50510
