rmsd11.gzmat
 OpenBabel08211713433D

 36 38  0  0  0  0  0  0  0  0999 V2000
    0.0000    0.0000    0.0000 O   0  0  0  0  0  0  0  0  0  0  0  0
    1.2045    0.0000    0.0000 C   0  0  0  0  0  0  0  0  0  0  0  0
    1.9719    0.0000    1.1594 N   0  0  0  0  0  0  0  0  0  0  0  0
    3.7020    0.0203    0.8808 S   0  0  0  0  0  0  0  0  0  0  0  0
    4.2345   -1.2592    1.2328 O   0  0  0  0  0  0  0  0  0  0  0  0
    4.2559    1.2165    1.4365 O   0  0  0  0  0  0  0  0  0  0  0  0
    3.5065    0.1340   -0.8663 N   0  0  0  0  0  0  0  0  0  0  0  0
    2.0868   -0.0217   -1.2479 C   0  0  0  0  0  0  0  0  0  0  0  0
    4.1968    1.2032   -1.5095 C   0  0  0  0  0  0  0  0  0  0  0  0
    5.4097    0.8980   -2.1275 C   0  0  0  0  0  0  0  0  0  0  0  0
    6.1462    1.8991   -2.7677 C   0  0  0  0  0  0  0  0  0  0  0  0
    5.6695    3.2117   -2.7876 C   0  0  0  0  0  0  0  0  0  0  0  0
    4.4560    3.5357   -2.1861 C   0  0  0  0  0  0  0  0  0  0  0  0
    3.7198    2.5349   -1.5577 C   0  0  0  0  0  0  0  0  0  0  0  0
    2.4966    2.6958   -0.9903 O   0  0  0  0  0  0  0  0  0  0  0  0
    2.0865    4.0239   -0.6881 C   0  0  0  0  0  0  0  0  0  0  0  0
    7.4137    1.5648   -3.4262 C   0  0  0  0  0  0  0  0  0  0  0  0
    7.4664    0.5062   -4.3384 C   0  0  0  0  0  0  0  0  0  0  0  0
    8.6656    0.1924   -4.9726 C   0  0  0  0  0  0  0  0  0  0  0  0
    9.8155    0.9313   -4.6987 C   0  0  0  0  0  0  0  0  0  0  0  0
    9.7651    1.9870   -3.7900 C   0  0  0  0  0  0  0  0  0  0  0  0
    8.5681    2.3035   -3.1521 C   0  0  0  0  0  0  0  0  0  0  0  0
    1.5292    0.0188    2.0681 H   0  0  0  0  0  0  0  0  0  0  0  0
    1.7355    0.7485   -1.9724 H   0  0  0  0  0  0  0  0  0  0  0  0
    1.9787   -1.0068   -1.7692 H   0  0  0  0  0  0  0  0  0  0  0  0
    5.7849   -0.1291   -2.1027 H   0  0  0  0  0  0  0  0  0  0  0  0
    6.2495    3.9899   -3.2857 H   0  0  0  0  0  0  0  0  0  0  0  0
    4.0977    4.5602   -2.2116 H   0  0  0  0  0  0  0  0  0  0  0  0
    1.1591    3.8533   -0.1216 H   0  0  0  0  0  0  0  0  0  0  0  0
    1.8801    4.5806   -1.6063 H   0  0  0  0  0  0  0  0  0  0  0  0
    2.8286    4.5310   -0.0627 H   0  0  0  0  0  0  0  0  0  0  0  0
    6.5666   -0.0663   -4.5566 H   0  0  0  0  0  0  0  0  0  0  0  0
    8.7057   -0.6292   -5.6857 H   0  0  0  0  0  0  0  0  0  0  0  0
   10.7518    0.6831   -5.1936 H   0  0  0  0  0  0  0  0  0  0  0  0
   10.6633    2.5649   -3.5792 H   0  0  0  0  0  0  0  0  0  0  0  0
    8.5325    3.1215   -2.4347 H   0  0  0  0  0  0  0  0  0  0  0  0
  2  1  2  0  0  0  0
  2  3  1  0  0  0  0
  3 23  1  0  0  0  0
  4  3  1  0  0  0  0
  4  5  2  0  0  0  0
  4  6  2  0  0  0  0
  7  4  1  0  0  0  0
  8  7  1  0  0  0  0
  8  2  1  0  0  0  0
  9  7  1  0  0  0  0
 10 26  1  0  0  0  0
 10  9  2  0  0  0  0
 11 10  1  0  0  0  0
 12 11  2  0  0  0  0
 12 13  1  0  0  0  0
 13 14  2  0  0  0  0
 14  9  1  0  0  0  0
 14 15  1  0  0  0  0
 15 16  1  0  0  0  0
 16 29  1  0  0  0  0
 16 31  1  0  0  0  0
 17 22  1  0  0  0  0
 17 11  1  0  0  0  0
 18 17  2  0  0  0  0
 19 20  2  0  0  0  0
 19 18  1  0  0  0  0
 20 21  1  0  0  0  0
 21 35  1  0  0  0  0
 21 22  2  0  0  0  0
 22 36  1  0  0  0  0
 24  8  1  0  0  0  0
 25  8  1  0  0  0  0
 27 12  1  0  0  0  0
 28 13  1  0  0  0  0
 30 16  1  0  0  0  0
 32 18  1  0  0  0  0
 33 19  1  0  0  0  0
 34 20  1  0  0  0  0
M  END
$$$$
