36
rmsd11.gzmat
O          0.00000        0.00000        0.00000
C          1.20450        0.00000        0.00000
N          1.97190        0.00000        1.15940
S          3.70200        0.02030        0.88080
O          4.23450       -1.25920        1.23280
O          4.25590        1.21650        1.43650
N          3.50650        0.13400       -0.86630
C          2.08680       -0.02170       -1.24790
C          4.19680        1.20320       -1.50950
C          5.40970        0.89800       -2.12750
C          6.14620        1.89910       -2.76770
C          5.66950        3.21170       -2.78760
C          4.45600        3.53570       -2.18610
C          3.71980        2.53490       -1.55770
O          2.49660        2.69580       -0.99030
C          2.08650        4.02390       -0.68810
C          7.41370        1.56480       -3.42620
C          7.46640        0.50620       -4.33840
C          8.66560        0.19240       -4.97260
C          9.81550        0.93130       -4.69870
C          9.76510        1.98700       -3.79000
C          8.56810        2.30350       -3.15210
H          1.52920        0.01880        2.06810
H          1.73550        0.74850       -1.97240
H          1.97870       -1.00680       -1.76920
H          5.78490       -0.12910       -2.10270
H          6.24950        3.98990       -3.28570
H          4.09770        4.56020       -2.21160
H          1.15910        3.85330       -0.12160
H          1.88010        4.58060       -1.60630
H          2.82860        4.53100       -0.06270
H          6.56660       -0.06630       -4.55660
H          8.70570       -0.62920       -5.68570
H         10.75180        0.68310       -5.19360
H         10.66330        2.56490       -3.57920
H          8.53250        3.12150       -2.43470
