36

O         -0.06770        0.16920       -0.08450
C          1.13720        0.12310       -0.08150
N          1.94160        0.20150        1.03810
S          3.61030       -0.05510        0.75720
O          3.92430       -1.43140        1.10310
O          4.40130        1.03520        1.30340
N          3.42570        0.12600       -0.92470
C          2.02610       -0.08790       -1.30640
C          4.17670        1.17970       -1.53250
C          5.37840        0.88840       -2.16770
C          6.16540        1.89750       -2.75100
C          5.68920        3.21520       -2.66980
C          4.48610        3.52900       -2.03280
C          3.71990        2.51390       -1.45130
O          2.54640        2.69580       -0.80610
C          2.07860        4.00650       -0.56350
C          7.44690        1.57620       -3.42480
C          7.60410        0.37910       -4.14650
C          8.80990        0.07580       -4.78000
C          9.88630        0.96430       -4.70820
C          9.74520        2.15780       -3.99470
C          8.54010        2.45910       -3.35910
H          1.55960        0.15520        1.97920
H          1.73010        0.61980       -2.08970
H          1.86170       -1.11390       -1.67700
H          5.70680       -0.15150       -2.17310
H          6.26070        4.02120       -3.13390
H          4.15450        4.56630       -1.99510
H          1.14960        3.90080        0.01070
H          1.86260        4.54090       -1.50480
H          2.80910        4.58740        0.02460
H          6.76320       -0.31240       -4.23190
H          8.90640       -0.85740       -5.34030
H         10.83040        0.72720       -5.20410
H         10.58350        2.85500       -3.92270
H          8.45320        3.38060       -2.77960
