36
rmsd7.gzmat
O          0.00000        0.00000        0.00000
C          1.20340        0.00000        0.00000
N          1.97070        0.00000        1.16050
S          3.69870       -0.01940        0.88720
O          4.24990       -1.21580        1.44610
O          4.23500        1.26520        1.21560
N          3.49100       -0.21040       -0.84650
C          2.08230        0.00470       -1.24930
C          4.44020        0.42570       -1.70220
C          4.58090        1.82350       -1.70390
C          5.49200        2.45130       -2.54260
C          6.28230        1.68200       -3.41070
C          6.16460        0.30600       -3.42050
C          5.24330       -0.33830       -2.56510
O          5.26610       -1.67330       -2.76150
C          4.64100       -2.54990       -1.83270
C          5.62910        3.91030       -2.50530
C          5.86720        4.55060       -1.28530
C          5.98900        5.93650       -1.24050
C          5.86940        6.68690       -2.40950
C          5.63090        6.04940       -3.62560
C          5.51210        4.66240       -3.67660
H          1.52620       -0.02400        2.06880
H          1.92290        0.94620       -1.82490
H          1.77890       -0.82770       -1.93060
H          3.97450        2.43280       -1.02600
H          6.99840        2.17780       -4.06830
H          6.77840       -0.30590       -4.08060
H          4.97620       -3.53070       -2.19530
H          3.55260       -2.46470       -1.89360
H          4.99950       -2.37580       -0.81180
H          5.95900        3.96110       -0.37210
H          6.17660        6.43360       -0.29050
H          5.96160        7.77000       -2.37180
H          5.53480        6.63540       -4.53710
H          5.31890        4.16530       -4.62480
