rmsd20.gzmat
 OpenBabel08211713433D

 36 38  0  0  0  0  0  0  0  0999 V2000
    0.0000    0.0000    0.0000 O   0  0  0  0  0  0  0  0  0  0  0  0
    1.2046    0.0000    0.0000 C   0  0  0  0  0  0  0  0  0  0  0  0
    1.9710    0.0000    1.1601 N   0  0  0  0  0  0  0  0  0  0  0  0
    3.7012    0.0178    0.8821 S   0  0  0  0  0  0  0  0  0  0  0  0
    4.2278   -1.2696    1.2145 O   0  0  0  0  0  0  0  0  0  0  0  0
    4.2597    1.2036    1.4552 O   0  0  0  0  0  0  0  0  0  0  0  0
    3.5061    0.1569   -0.8640 N   0  0  0  0  0  0  0  0  0  0  0  0
    2.0897   -0.0237   -1.2464 C   0  0  0  0  0  0  0  0  0  0  0  0
    4.1722    1.2551   -1.4836 C   0  0  0  0  0  0  0  0  0  0  0  0
    5.4059    0.9976   -2.0821 C   0  0  0  0  0  0  0  0  0  0  0  0
    6.1249    2.0334   -2.6852 C   0  0  0  0  0  0  0  0  0  0  0  0
    5.6051    3.3291   -2.7026 C   0  0  0  0  0  0  0  0  0  0  0  0
    4.3683    3.6043   -2.1254 C   0  0  0  0  0  0  0  0  0  0  0  0
    3.6554    2.5722   -1.5210 C   0  0  0  0  0  0  0  0  0  0  0  0
    2.4235    2.6902   -0.9617 O   0  0  0  0  0  0  0  0  0  0  0  0
    1.9562    4.0048   -0.6868 C   0  0  0  0  0  0  0  0  0  0  0  0
    7.4331    1.7575   -3.2882 C   0  0  0  0  0  0  0  0  0  0  0  0
    7.5652    0.7610   -4.2590 C   0  0  0  0  0  0  0  0  0  0  0  0
    8.8125    0.4990   -4.8204 C   0  0  0  0  0  0  0  0  0  0  0  0
    9.9291    1.2303   -4.4182 C   0  0  0  0  0  0  0  0  0  0  0  0
    9.7982    2.2251   -3.4505 C   0  0  0  0  0  0  0  0  0  0  0  0
    8.5534    2.4913   -2.8864 C   0  0  0  0  0  0  0  0  0  0  0  0
    1.5276    0.0217    2.0680 H   0  0  0  0  0  0  0  0  0  0  0  0
    1.7307    0.7319   -1.9822 H   0  0  0  0  0  0  0  0  0  0  0  0
    1.9965   -1.0165   -1.7555 H   0  0  0  0  0  0  0  0  0  0  0  0
    5.8127   -0.0175   -2.0672 H   0  0  0  0  0  0  0  0  0  0  0  0
    6.1713    4.1323   -3.1766 H   0  0  0  0  0  0  0  0  0  0  0  0
    3.9767    4.6167   -2.1479 H   0  0  0  0  0  0  0  0  0  0  0  0
    1.0257    3.8052   -0.1351 H   0  0  0  0  0  0  0  0  0  0  0  0
    1.7461    4.5402   -1.6168 H   0  0  0  0  0  0  0  0  0  0  0  0
    2.6657    4.5485   -0.0543 H   0  0  0  0  0  0  0  0  0  0  0  0
    6.6919    0.1950   -4.5781 H   0  0  0  0  0  0  0  0  0  0  0  0
    8.9151   -0.2790   -5.5747 H   0  0  0  0  0  0  0  0  0  0  0  0
   10.9025    1.0240   -4.8582 H   0  0  0  0  0  0  0  0  0  0  0  0
   10.6699    2.7938   -3.1321 H   0  0  0  0  0  0  0  0  0  0  0  0
    8.4515    3.2639   -2.1261 H   0  0  0  0  0  0  0  0  0  0  0  0
  2  1  2  0  0  0  0
  2  3  1  0  0  0  0
  3 23  1  0  0  0  0
  4  3  1  0  0  0  0
  4  5  2  0  0  0  0
  4  6  2  0  0  0  0
  7  4  1  0  0  0  0
  8  7  1  0  0  0  0
  8  2  1  0  0  0  0
  9  7  1  0  0  0  0
 10 26  1  0  0  0  0
 10  9  2  0  0  0  0
 11 10  1  0  0  0  0
 12 11  2  0  0  0  0
 12 13  1  0  0  0  0
 13 14  2  0  0  0  0
 14  9  1  0  0  0  0
 14 15  1  0  0  0  0
 15 16  1  0  0  0  0
 16 29  1  0  0  0  0
 16 31  1  0  0  0  0
 17 22  1  0  0  0  0
 17 11  1  0  0  0  0
 18 17  2  0  0  0  0
 19 20  2  0  0  0  0
 19 18  1  0  0  0  0
 20 21  1  0  0  0  0
 21 35  1  0  0  0  0
 21 22  2  0  0  0  0
 22 36  1  0  0  0  0
 24  8  1  0  0  0  0
 25  8  1  0  0  0  0
 27 12  1  0  0  0  0
 28 13  1  0  0  0  0
 30 16  1  0  0  0  0
 32 18  1  0  0  0  0
 33 19  1  0  0  0  0
 34 20  1  0  0  0  0
M  END
$$$$
