rmsd21.gzmat
 OpenBabel08211713433D

 36 38  0  0  0  0  0  0  0  0999 V2000
    0.0000    0.0000    0.0000 O   0  0  0  0  0  0  0  0  0  0  0  0
    1.2045    0.0000    0.0000 C   0  0  0  0  0  0  0  0  0  0  0  0
    1.9694    0.0000    1.1613 N   0  0  0  0  0  0  0  0  0  0  0  0
    3.6989    0.0189    0.8896 S   0  0  0  0  0  0  0  0  0  0  0  0
    4.2434   -1.2341    1.3106 O   0  0  0  0  0  0  0  0  0  0  0  0
    4.2390    1.2471    1.3888 O   0  0  0  0  0  0  0  0  0  0  0  0
    3.5107    0.0496   -0.8604 N   0  0  0  0  0  0  0  0  0  0  0  0
    2.0852   -0.0177   -1.2479 C   0  0  0  0  0  0  0  0  0  0  0  0
    4.2825    1.0294   -1.5522 C   0  0  0  0  0  0  0  0  0  0  0  0
    5.4307    0.5883   -2.2115 C   0  0  0  0  0  0  0  0  0  0  0  0
    6.2521    1.5028   -2.8756 C   0  0  0  0  0  0  0  0  0  0  0  0
    5.9322    2.8625   -2.8759 C   0  0  0  0  0  0  0  0  0  0  0  0
    4.7807    3.3182   -2.2402 C   0  0  0  0  0  0  0  0  0  0  0  0
    3.9523    2.4024   -1.5960 C   0  0  0  0  0  0  0  0  0  0  0  0
    2.7500    2.7081   -1.0377 O   0  0  0  0  0  0  0  0  0  0  0  0
    2.6455    3.9876   -0.4218 C   0  0  0  0  0  0  0  0  0  0  0  0
    7.4472    1.0228   -3.5782 C   0  0  0  0  0  0  0  0  0  0  0  0
    7.3237    0.0336   -4.5582 C   0  0  0  0  0  0  0  0  0  0  0  0
    8.4551   -0.4323   -5.2226 C   0  0  0  0  0  0  0  0  0  0  0  0
    9.7112    0.0865   -4.9118 C   0  0  0  0  0  0  0  0  0  0  0  0
    9.8349    1.0751   -3.9368 C   0  0  0  0  0  0  0  0  0  0  0  0
    8.7060    1.5456   -3.2704 C   0  0  0  0  0  0  0  0  0  0  0  0
    1.5241    0.0096    2.0688 H   0  0  0  0  0  0  0  0  0  0  0  0
    1.7733    0.7992   -1.9396 H   0  0  0  0  0  0  0  0  0  0  0  0
    1.9282   -0.9748   -1.8071 H   0  0  0  0  0  0  0  0  0  0  0  0
    5.6890   -0.4743   -2.1954 H   0  0  0  0  0  0  0  0  0  0  0  0
    6.5855    3.5708   -3.3870 H   0  0  0  0  0  0  0  0  0  0  0  0
    4.5326    4.3754   -2.2540 H   0  0  0  0  0  0  0  0  0  0  0  0
    1.6598    3.9297    0.0610 H   0  0  0  0  0  0  0  0  0  0  0  0
    2.6635    4.7828   -1.1708 H   0  0  0  0  0  0  0  0  0  0  0  0
    3.4331    4.1170    0.3301 H   0  0  0  0  0  0  0  0  0  0  0  0
    6.3417   -0.3671   -4.8027 H   0  0  0  0  0  0  0  0  0  0  0  0
    8.3581   -1.2030   -5.9850 H   0  0  0  0  0  0  0  0  0  0  0  0
   10.5948   -0.2802   -5.4299 H   0  0  0  0  0  0  0  0  0  0  0  0
   10.8162    1.4789   -3.6944 H   0  0  0  0  0  0  0  0  0  0  0  0
    8.8032    2.3135   -2.5051 H   0  0  0  0  0  0  0  0  0  0  0  0
  2  1  2  0  0  0  0
  2  3  1  0  0  0  0
  3 23  1  0  0  0  0
  4  3  1  0  0  0  0
  4  5  2  0  0  0  0
  4  6  2  0  0  0  0
  7  4  1  0  0  0  0
  8  7  1  0  0  0  0
  8  2  1  0  0  0  0
  9  7  1  0  0  0  0
 10 26  1  0  0  0  0
 10  9  2  0  0  0  0
 11 10  1  0  0  0  0
 12 11  2  0  0  0  0
 12 13  1  0  0  0  0
 13 14  2  0  0  0  0
 14  9  1  0  0  0  0
 14 15  1  0  0  0  0
 15 16  1  0  0  0  0
 16 29  1  0  0  0  0
 16 31  1  0  0  0  0
 17 22  1  0  0  0  0
 17 11  1  0  0  0  0
 18 17  2  0  0  0  0
 19 20  2  0  0  0  0
 19 18  1  0  0  0  0
 20 21  1  0  0  0  0
 21 35  1  0  0  0  0
 21 22  2  0  0  0  0
 22 36  1  0  0  0  0
 24  8  1  0  0  0  0
 25  8  1  0  0  0  0
 27 12  1  0  0  0  0
 28 13  1  0  0  0  0
 30 16  1  0  0  0  0
 32 18  1  0  0  0  0
 33 19  1  0  0  0  0
 34 20  1  0  0  0  0
M  END
$$$$
