rmsd132.gzmat
 OpenBabel08211713383D

 48 50  0  0  1  0  0  0  0  0999 V2000
    0.0000    0.0000    0.0000 Br  0  0  0  0  0  0  0  0  0  0  0  0
    1.8971    0.0000    0.0000 C   0  0  0  0  0  0  0  0  0  0  0  0
    2.5721    0.0000    1.2157 C   0  0  0  0  0  0  0  0  0  0  0  0
    3.9612    0.0072    1.2169 C   0  0  0  0  0  0  0  0  0  0  0  0
    4.6635    0.0141   -0.0049 C   0  0  0  0  0  0  0  0  0  0  0  0
    3.9655    0.0022   -1.2203 C   0  0  0  0  0  0  0  0  0  0  0  0
    2.5737   -0.0030   -1.2135 C   0  0  0  0  0  0  0  0  0  0  0  0
    6.0701    0.0190    0.0856 N   0  0  0  0  0  0  0  0  0  0  0  0
    6.9115    0.1984   -0.9917 C   0  0  0  0  0  0  0  0  0  0  0  0
    6.5704    0.3310   -2.1515 O   0  0  0  0  0  0  0  0  0  0  0  0
    8.3202    0.2247   -0.7585 N   0  0  0  0  0  0  0  0  0  0  0  0
    9.0252    0.3416    0.4310 C   0  0  0  0  0  0  0  0  0  0  0  0
   10.4292    0.5503    0.4331 C   0  0  2  0  0  0  0  0  0  0  0  0
   11.0394    0.6873    1.6863 C   0  0  0  0  0  0  0  0  0  0  0  0
   10.3503    0.5975    2.8398 N   0  0  0  0  0  0  0  0  0  0  0  0
    9.0162    0.3737    2.7689 C   0  0  0  0  0  0  0  0  0  0  0  0
    8.2418    0.2502    4.0354 C   0  0  0  0  0  0  0  0  0  0  0  0
    8.3370    0.2521    1.6016 N   0  0  0  0  0  0  0  0  0  0  0  0
   11.2598    0.6736   -0.8063 C   0  0  0  0  0  0  0  0  0  0  0  0
   11.2868    2.0586   -1.3104 N   0  0  0  0  0  0  0  0  0  0  0  0
   10.1097    2.5366   -1.9615 C   0  0  0  0  0  0  0  0  0  0  0  0
    9.7978    2.1203   -3.1915 C   0  0  0  0  0  0  0  0  0  0  0  0
    8.5912    2.3695   -4.0418 C   0  0  0  0  0  0  0  0  0  0  0  0
    9.0039    1.4878   -5.2375 C   0  0  0  0  0  0  0  0  0  0  0  0
   10.5996    1.0601   -4.3721 S   0  0  0  0  0  0  0  0  0  0  0  0
    9.2598    3.5095   -1.2095 C   0  0  0  0  0  0  0  0  0  0  0  0
   12.1772    2.9556   -0.7194 C   0  0  0  0  0  0  0  0  0  0  0  0
   12.9922    2.5544    0.0834 O   0  0  0  0  0  0  0  0  0  0  0  0
    2.0321   -0.0050    2.1635 H   0  0  0  0  0  0  0  0  0  0  0  0
    4.5002    0.0073    2.1623 H   0  0  0  0  0  0  0  0  0  0  0  0
    4.4973   -0.0057   -2.1763 H   0  0  0  0  0  0  0  0  0  0  0  0
    2.0348   -0.0120   -2.1629 H   0  0  0  0  0  0  0  0  0  0  0  0
    6.4935   -0.0394    1.0268 H   0  0  0  0  0  0  0  0  0  0  0  0
    8.8691    0.3381   -1.6260 H   0  0  0  0  0  0  0  0  0  0  0  0
   12.1220    0.8914    1.7807 H   0  0  0  0  0  0  0  0  0  0  0  0
    7.1685    0.4446    3.8916 H   0  0  0  0  0  0  0  0  0  0  0  0
    8.6194    0.9466    4.8038 H   0  0  0  0  0  0  0  0  0  0  0  0
    8.3449   -0.7663    4.4530 H   0  0  0  0  0  0  0  0  0  0  0  0
   10.9142   -0.0149   -1.6110 H   0  0  0  0  0  0  0  0  0  0  0  0
   12.3212    0.3654   -0.5984 H   0  0  0  0  0  0  0  0  0  0  0  0
    8.4408    3.4300   -4.3054 H   0  0  0  0  0  0  0  0  0  0  0  0
    7.6453    2.0336   -3.5646 H   0  0  0  0  0  0  0  0  0  0  0  0
    8.3530    0.6244   -5.4133 H   0  0  0  0  0  0  0  0  0  0  0  0
    9.1427    2.0209   -6.1816 H   0  0  0  0  0  0  0  0  0  0  0  0
    9.4137    3.4559   -0.1226 H   0  0  0  0  0  0  0  0  0  0  0  0
    8.1863    3.3320   -1.3842 H   0  0  0  0  0  0  0  0  0  0  0  0
    9.4648    4.5446   -1.5226 H   0  0  0  0  0  0  0  0  0  0  0  0
   12.1273    3.9934   -1.0720 H   0  0  0  0  0  0  0  0  0  0  0  0
  1  2  1  0  0  0  0
  2  3  2  0  0  0  0
  3  4  1  0  0  0  0
  3 29  1  0  0  0  0
  4 30  1  0  0  0  0
  5  8  1  0  0  0  0
  5  4  2  0  0  0  0
  6  7  2  0  0  0  0
  6  5  1  0  0  0  0
  7  2  1  0  0  0  0
  8 33  1  0  0  0  0
  9 11  1  0  0  0  0
  9  8  1  0  0  0  0
 10  9  2  0  0  0  0
 11 12  1  0  0  0  0
 12 13  1  0  0  0  0
 12 18  2  0  0  0  0
 13 19  1  6  0  0  0
 13 14  1  0  0  0  0
 14 35  1  0  0  0  0
 14 15  2  0  0  0  0
 16 15  2  0  0  0  0
 16 17  1  0  0  0  0
 17 38  1  0  0  0  0
 17 37  1  0  0  0  0
 18 16  2  0  0  0  0
 19 40  1  0  0  0  0
 20 19  1  0  0  0  0
 20 27  1  0  0  0  0
 21 20  1  0  0  0  0
 21 26  1  0  0  0  0
 22 21  2  0  0  0  0
 23 42  1  0  0  0  0
 23 22  1  0  0  0  0
 24 25  1  0  0  0  0
 24 23  1  0  0  0  0
 25 22  1  0  0  0  0
 26 45  1  0  0  0  0
 27 28  2  0  0  0  0
 31  6  1  0  0  0  0
 32  7  1  0  0  0  0
 34 11  1  0  0  0  0
 36 17  1  0  0  0  0
 39 19  1  0  0  0  0
 41 23  1  0  0  0  0
 43 24  1  0  0  0  0
 44 24  1  0  0  0  0
 46 26  1  0  0  0  0
 47 26  1  0  0  0  0
 48 27  1  0  0  0  0
M  RAD  1  13   2
M  END
$$$$
