48
rmsd69.gzmat
Br         0.00000        0.00000        0.00000
C          1.89710        0.00000        0.00000
C          2.57420        0.00000        1.21300
C          3.96590       -0.00760        1.21930
C          4.66340       -0.01620        0.00380
C          3.96040       -0.00720       -1.21790
C          2.57150       -0.00120       -1.21600
N          6.06900       -0.05460       -0.08890
C          6.92010        0.01390        0.99340
O          6.59220        0.13580        2.15790
N          8.32570       -0.08850        0.75920
C          9.04170       -0.02310       -0.42700
C         10.46150       -0.02910       -0.42690
C         11.08710        0.08530       -1.67400
N         10.39400        0.16770       -2.82630
C          9.04210        0.14080       -2.75980
C          8.25640        0.23290       -4.02220
N          8.35000        0.05130       -1.59680
C         11.29720       -0.11710        0.81170
N         11.56210        1.21250        1.39080
C         10.47340        1.85780        2.05300
C         10.08680        1.45770        3.26680
C          8.92970        1.86910        4.12290
C          9.18720        0.89390        5.28860
S         10.69800        0.24210        4.41140
C          9.80630        2.97920        1.32440
C         12.60160        1.96870        0.84900
O         13.34190        1.47290        0.02700
H          2.03510        0.00360        2.16230
H          4.49760       -0.01030        2.17510
H          4.49970       -0.00610       -2.16320
H          2.03000        0.00140       -2.16300
H          6.48830       -0.09650       -1.03280
H          8.88130       -0.06610        1.62950
H         12.18810        0.12510       -1.76510
H          7.35530       -0.39870       -3.99440
H          8.86010       -0.07010       -4.89530
H          7.92750        1.27090       -4.20110
H         12.28940       -0.59340        0.58080
H         10.83480       -0.77720        1.58130
H          7.94660        1.70500        3.63280
H          8.94940        2.93050        4.42260
H          9.40390        1.36700        6.24940
H          8.40520        0.14160        5.43570
H         10.31360        3.93770        1.51240
H          8.75820        3.10760        1.63650
H          9.79480        2.82130        0.23570
H         12.73030        2.97880        1.25720
