48
rmsd29.gzmat
Br         0.00000        0.00000        0.00000
C          1.89710        0.00000        0.00000
C          2.57150        0.00000        1.21610
C          3.96040        0.00080        1.21830
C          4.66360        0.00490       -0.00360
C          3.96570        0.00640       -1.21910
C          2.57410        0.00400       -1.21290
N          6.06890        0.02290        0.08970
C          6.91950       -0.10240       -0.98790
O          6.58660       -0.21630       -2.15260
N          8.32730       -0.07290       -0.74780
C          9.01680       -0.29920        0.44020
C         10.41090       -0.56330        0.43890
C         11.00510       -0.78420        1.68820
N         10.30890       -0.72800        2.83970
C          8.98330       -0.46300        2.77040
C          8.18990       -0.41500        4.03070
N          8.32160       -0.24200        1.60670
C         11.23960       -0.69020       -0.80120
N         11.19490       -2.05870       -1.35000
C         10.01390       -2.40640       -2.07620
C          9.00490       -3.08070       -1.51980
C          7.67700       -3.50740       -2.06260
C          7.11980       -4.13010       -0.76790
S          8.71400       -3.72270        0.11550
C          9.99090       -1.95080       -3.49820
C         11.97180       -3.04240       -0.73270
O         12.77440       -2.72470        0.11800
H          2.03010        0.00080        2.16310
H          4.49960        0.00170        2.16400
H          4.49810        0.01570       -2.17450
H          2.03490        0.00770       -2.16190
H          6.49000        0.06100        1.03500
H          8.87840       -0.18340       -1.61190
H         12.07770       -1.03440        1.78140
H          7.34790       -1.12570        3.99880
H          7.76830        0.58860        4.19950
H          8.81060       -0.66970        4.90740
H         12.31440       -0.44910       -0.57850
H         10.93070        0.03250       -1.59070
H          7.74940       -4.22190       -2.90100
H          7.06660       -2.65960       -2.43850
H          6.24560       -3.61970       -0.35010
H          6.91040       -5.20230       -0.81950
H          8.98030       -1.65750       -3.82290
H         10.32600       -2.75760       -4.16990
H         10.66100       -1.09790       -3.68120
H         11.85700       -4.06450       -1.11520
