rmsd92.gzmat
 OpenBabel08211713383D

 48 50  0  0  1  0  0  0  0  0999 V2000
    0.0000    0.0000    0.0000 Br  0  0  0  0  0  0  0  0  0  0  0  0
    1.8983    0.0000    0.0000 C   0  0  0  0  0  0  0  0  0  0  0  0
    2.5753    0.0000    1.2133 C   0  0  0  0  0  0  0  0  0  0  0  0
    3.9665    0.0011    1.2191 C   0  0  0  0  0  0  0  0  0  0  0  0
    4.6665    0.0013    0.0037 C   0  0  0  0  0  0  0  0  0  0  0  0
    3.9616   -0.0017   -1.2177 C   0  0  0  0  0  0  0  0  0  0  0  0
    2.5725   -0.0015   -1.2155 C   0  0  0  0  0  0  0  0  0  0  0  0
    6.0701    0.0154   -0.0893 N   0  0  0  0  0  0  0  0  0  0  0  0
    6.9218   -0.1124    0.9944 C   0  0  0  0  0  0  0  0  0  0  0  0
    6.5751   -0.2397    2.1484 O   0  0  0  0  0  0  0  0  0  0  0  0
    8.3349   -0.0882    0.7599 N   0  0  0  0  0  0  0  0  0  0  0  0
    9.0336    0.0805   -0.4170 C   0  0  0  0  0  0  0  0  0  0  0  0
   10.4584    0.1127   -0.4383 C   0  0  2  0  0  0  0  0  0  0  0  0
   11.0611    0.3143   -1.6828 C   0  0  0  0  0  0  0  0  0  0  0  0
   10.3601    0.4548   -2.8244 N   0  0  0  0  0  0  0  0  0  0  0  0
    9.0079    0.4022   -2.7393 C   0  0  0  0  0  0  0  0  0  0  0  0
    8.2054    0.5267   -3.9894 C   0  0  0  0  0  0  0  0  0  0  0  0
    8.3346    0.2366   -1.5782 N   0  0  0  0  0  0  0  0  0  0  0  0
   11.3148   -0.1099    0.7659 C   0  0  0  0  0  0  0  0  0  0  0  0
   11.5067   -1.5467    1.0404 N   0  0  0  0  0  0  0  0  0  0  0  0
   12.1638   -2.2956    0.0138 C   0  0  0  0  0  0  0  0  0  0  0  0
   11.4719   -2.9825   -0.8973 C   0  0  0  0  0  0  0  0  0  0  0  0
   11.9032   -3.7965   -2.0764 C   0  0  0  0  0  0  0  0  0  0  0  0
   10.4968   -4.1686   -2.5877 C   0  0  0  0  0  0  0  0  0  0  0  0
    9.7303   -3.2303   -1.1697 S   0  0  0  0  0  0  0  0  0  0  0  0
   13.6542   -2.2222    0.0225 C   0  0  0  0  0  0  0  0  0  0  0  0
   10.7502   -2.1796    2.0160 C   0  0  0  0  0  0  0  0  0  0  0  0
    9.9793   -1.5289    2.6951 O   0  0  0  0  0  0  0  0  0  0  0  0
    2.0364   -0.0002    2.1627 H   0  0  0  0  0  0  0  0  0  0  0  0
    4.4976    0.0027    2.1758 H   0  0  0  0  0  0  0  0  0  0  0  0
    4.5004   -0.0072   -2.1627 H   0  0  0  0  0  0  0  0  0  0  0  0
    2.0318   -0.0040   -2.1623 H   0  0  0  0  0  0  0  0  0  0  0  0
    6.4875    0.1077   -1.0286 H   0  0  0  0  0  0  0  0  0  0  0  0
    8.8893   -0.3656    1.6022 H   0  0  0  0  0  0  0  0  0  0  0  0
   12.1535    0.3643   -1.7915 H   0  0  0  0  0  0  0  0  0  0  0  0
    7.4156    1.2882   -3.8880 H   0  0  0  0  0  0  0  0  0  0  0  0
    7.7114   -0.4285   -4.2337 H   0  0  0  0  0  0  0  0  0  0  0  0
    8.8368    0.8051   -4.8499 H   0  0  0  0  0  0  0  0  0  0  0  0
   10.8880    0.3798    1.6793 H   0  0  0  0  0  0  0  0  0  0  0  0
   12.3241    0.3514    0.6277 H   0  0  0  0  0  0  0  0  0  0  0  0
   12.5187   -4.6738   -1.8074 H   0  0  0  0  0  0  0  0  0  0  0  0
   12.4956   -3.2197   -2.8108 H   0  0  0  0  0  0  0  0  0  0  0  0
   10.2421   -3.7590   -3.5702 H   0  0  0  0  0  0  0  0  0  0  0  0
   10.2676   -5.2384   -2.5801 H   0  0  0  0  0  0  0  0  0  0  0  0
   14.0260   -1.5161   -0.7351 H   0  0  0  0  0  0  0  0  0  0  0  0
   14.1083   -3.2003   -0.1932 H   0  0  0  0  0  0  0  0  0  0  0  0
   14.0487   -1.8909    0.9956 H   0  0  0  0  0  0  0  0  0  0  0  0
   10.9467   -3.2473    2.1777 H   0  0  0  0  0  0  0  0  0  0  0  0
  1  2  1  0  0  0  0
  2  3  2  0  0  0  0
  3  4  1  0  0  0  0
  3 29  1  0  0  0  0
  4 30  1  0  0  0  0
  5  4  2  0  0  0  0
  6  7  2  0  0  0  0
  6  5  1  0  0  0  0
  7  2  1  0  0  0  0
  8  5  1  0  0  0  0
  8  9  1  0  0  0  0
  9 10  2  0  0  0  0
 11  9  1  0  0  0  0
 11 34  1  0  0  0  0
 12 11  1  0  0  0  0
 13 12  1  0  0  0  0
 13 19  1  6  0  0  0
 14 13  1  0  0  0  0
 15 16  2  0  0  0  0
 15 14  2  0  0  0  0
 16 18  2  0  0  0  0
 17 36  1  0  0  0  0
 17 16  1  0  0  0  0
 18 12  2  0  0  0  0
 19 20  1  0  0  0  0
 19 39  1  0  0  0  0
 20 27  1  0  0  0  0
 21 26  1  0  0  0  0
 21 20  1  0  0  0  0
 22 21  2  0  0  0  0
 23 41  1  0  0  0  0
 23 22  1  0  0  0  0
 24 44  1  0  0  0  0
 24 23  1  0  0  0  0
 24 25  1  0  0  0  0
 25 22  1  0  0  0  0
 26 47  1  0  0  0  0
 27 48  1  0  0  0  0
 27 28  2  0  0  0  0
 31  6  1  0  0  0  0
 32  7  1  0  0  0  0
 33  8  1  0  0  0  0
 35 14  1  0  0  0  0
 37 17  1  0  0  0  0
 38 17  1  0  0  0  0
 40 19  1  0  0  0  0
 42 23  1  0  0  0  0
 43 24  1  0  0  0  0
 45 26  1  0  0  0  0
 46 26  1  0  0  0  0
M  RAD  1  13   2
M  END
$$$$
