
     RDKit          3D

 48 50  0  0  0  0  0  0  0  0999 V2000
    0.0817   -0.0686   -0.0518 Br  0  0  0  0  0  0  0  0  0  0  0  0
    1.9855    0.0165   -0.1032 C   0  0  0  0  0  0  0  0  0  0  0  0
    2.7203   -0.1894    1.0671 C   0  0  0  0  0  0  0  0  0  0  0  0
    4.1104   -0.1267    1.0211 C   0  0  0  0  0  0  0  0  0  0  0  0
    4.7842    0.1411   -0.1849 C   0  0  0  0  0  0  0  0  0  0  0  0
    4.0318    0.3486   -1.3542 C   0  0  0  0  0  0  0  0  0  0  0  0
    2.6383    0.2847   -1.3073 C   0  0  0  0  0  0  0  0  0  0  0  0
    6.1834    0.1853   -0.1352 N   0  0  0  0  0  0  0  0  0  0  0  0
    7.0483    0.3600   -1.1688 C   0  0  0  0  0  0  0  0  0  0  0  0
    6.7518    0.5445   -2.3409 O   0  0  0  0  0  0  0  0  0  0  0  0
    8.4153    0.3135   -0.8224 N   0  0  0  0  0  0  0  0  0  0  0  0
    9.0505   -0.0555    0.3462 C   0  0  0  0  0  0  0  0  0  0  0  0
   10.4602   -0.2124    0.3889 C   0  0  0  0  0  0  0  0  0  0  0  0
   10.9753   -0.5977    1.6225 C   0  0  0  0  0  0  0  0  0  0  0  0
   10.2299   -0.8118    2.7147 N   0  0  0  0  0  0  0  0  0  0  0  0
    8.9178   -0.6351    2.5802 C   0  0  0  0  0  0  0  0  0  0  0  0
    8.0366   -0.8590    3.7752 C   0  0  0  0  0  0  0  0  0  0  0  0
    8.3110   -0.2640    1.4421 N   0  0  0  0  0  0  0  0  0  0  0  0
   11.3691   -0.0488   -0.8034 C   0  0  0  0  0  0  0  0  0  0  0  0
   11.6029   -1.3113   -1.5140 N   0  0  0  0  0  0  0  0  0  0  0  0
   10.5175   -1.9689   -2.1779 C   0  0  0  0  0  0  0  0  0  0  0  0
    9.8895   -1.3631   -3.1976 C   0  0  0  0  0  0  0  0  0  0  0  0
    8.6372   -1.6808   -3.9845 C   0  0  0  0  0  0  0  0  0  0  0  0
    8.6099   -0.3473   -4.7698 C   0  0  0  0  0  0  0  0  0  0  0  0
   10.1965    0.2121   -3.9713 S   0  0  0  0  0  0  0  0  0  0  0  0
   10.0467   -3.2754   -1.5997 C   0  0  0  0  0  0  0  0  0  0  0  0
   12.8091   -1.9403   -1.3332 C   0  0  0  0  0  0  0  0  0  0  0  0
   13.7131   -1.5276   -0.6364 O   0  0  0  0  0  0  0  0  0  0  0  0
    2.2099   -0.3979    2.0083 H   0  0  0  0  0  0  0  0  0  0  0  0
    4.6876   -0.2877    1.9354 H   0  0  0  0  0  0  0  0  0  0  0  0
    4.5454    0.5587   -2.2887 H   0  0  0  0  0  0  0  0  0  0  0  0
    2.0588    0.4470   -2.2174 H   0  0  0  0  0  0  0  0  0  0  0  0
    6.6463    0.0135    0.7698 H   0  0  0  0  0  0  0  0  0  0  0  0
    8.9943    0.4610   -1.6463 H   0  0  0  0  0  0  0  0  0  0  0  0
   12.0568   -0.7496    1.7208 H   0  0  0  0  0  0  0  0  0  0  0  0
    7.5028    0.0697    4.0337 H   0  0  0  0  0  0  0  0  0  0  0  0
    8.6399   -1.1830    4.6313 H   0  0  0  0  0  0  0  0  0  0  0  0
    7.2735   -1.6212    3.5506 H   0  0  0  0  0  0  0  0  0  0  0  0
   12.3559    0.2924   -0.4673 H   0  0  0  0  0  0  0  0  0  0  0  0
   10.9840    0.7061   -1.5054 H   0  0  0  0  0  0  0  0  0  0  0  0
    7.7460   -1.8145   -3.3523 H   0  0  0  0  0  0  0  0  0  0  0  0
    8.7456   -2.5672   -4.6300 H   0  0  0  0  0  0  0  0  0  0  0  0
    8.7079   -0.4303   -5.8599 H   0  0  0  0  0  0  0  0  0  0  0  0
    7.7787    0.3091   -4.4882 H   0  0  0  0  0  0  0  0  0  0  0  0
   10.8368   -4.0444   -1.6217 H   0  0  0  0  0  0  0  0  0  0  0  0
    9.1821   -3.6704   -2.1508 H   0  0  0  0  0  0  0  0  0  0  0  0
    9.7566   -3.1442   -0.5428 H   0  0  0  0  0  0  0  0  0  0  0  0
   12.8796   -2.8856   -1.9185 H   0  0  0  0  0  0  0  0  0  0  0  0
  1  2  1  0
  2  3  2  0
  2  7  1  0
  3  4  1  0
  3 29  1  0
  4  5  2  0
  4 30  1  0
  5  6  1  0
  5  8  1  0
  6  7  2  0
  6 31  1  0
  7 32  1  0
  8  9  1  0
  8 33  1  0
  9 10  2  0
  9 11  1  0
 11 12  1  0
 11 34  1  0
 12 13  1  0
 12 18  2  0
 13 14  2  0
 13 19  1  0
 14 15  1  0
 14 35  1  0
 15 16  2  0
 16 17  1  0
 16 18  1  0
 17 36  1  0
 17 37  1  0
 17 38  1  0
 19 20  1  0
 19 39  1  0
 19 40  1  0
 20 21  1  0
 20 27  1  0
 21 22  2  0
 21 26  1  0
 22 23  1  0
 22 25  1  0
 23 24  1  0
 23 41  1  0
 23 42  1  0
 24 25  1  0
 24 43  1  0
 24 44  1  0
 26 45  1  0
 26 46  1  0
 26 47  1  0
 27 28  2  0
 27 48  1  0
M  END

