48

Br         0.07410       -0.18950       -0.24670
C          1.97900       -0.13370       -0.14790
C          2.62030       -0.35600        1.07160
C          4.01300       -0.31750        1.15300
C          4.77800       -0.05340        0.00230
C          4.11400        0.16880       -1.21920
C          2.72450        0.13000       -1.29930
N          6.17460        0.00380       -0.01260
C          7.02490       -0.17840        1.03890
O          6.71250       -0.42370        2.18740
N          8.40590       -0.06170        0.72330
C          9.04250        0.18360       -0.46670
C         10.46450        0.23630       -0.54540
C         10.98380        0.44730       -1.81350
N         10.24600        0.60320       -2.92060
C          8.92690        0.56210       -2.74940
C          8.04290        0.73880       -3.95090
N          8.31250        0.37400       -1.57380
C         11.37570       -0.01850        0.62390
N         11.49180       -1.44880        0.93850
C         12.17220       -2.30000        0.01000
C         11.43680       -3.04970       -0.82570
C         11.77810       -4.03870       -1.91790
C         10.30970       -4.31810       -2.32250
S          9.67290       -3.16690       -1.00710
C         13.67310       -2.27630        0.02400
C         10.82350       -1.95710        2.01450
O         10.09230       -1.30540        2.74020
H          2.03250       -0.56120        1.96770
H          4.51950       -0.49010        2.09940
H          4.69990        0.37580       -2.11870
H          2.22300        0.30450       -2.25230
H          6.64750        0.19650       -0.90660
H          8.97420       -0.28650        1.54910
H         12.07290        0.48810       -1.94210
H          7.39200        1.61790       -3.81820
H          7.38500       -0.13660       -4.07160
H          8.65300        0.86880       -4.85260
H         11.02930        0.48420        1.53720
H         12.37850        0.36870        0.38820
H         12.30510       -4.93170       -1.54580
H         12.38310       -3.60000       -2.72730
H         10.03400       -3.97880       -3.32980
H          9.96810       -5.35060       -2.17200
H         14.06230       -1.25740       -0.14730
H         14.09450       -2.92850       -0.75360
H         14.06350       -2.60630        1.00210
H         11.01710       -3.04200        2.16290
