rmsd120.gzmat
 OpenBabel08211713383D

 48 50  0  0  1  0  0  0  0  0999 V2000
    0.0000    0.0000    0.0000 Br  0  0  0  0  0  0  0  0  0  0  0  0
    1.8970    0.0000    0.0000 C   0  0  0  0  0  0  0  0  0  0  0  0
    2.5734    0.0000    1.2133 C   0  0  0  0  0  0  0  0  0  0  0  0
    3.9653    0.0072    1.2201 C   0  0  0  0  0  0  0  0  0  0  0  0
    4.6639    0.0135    0.0051 C   0  0  0  0  0  0  0  0  0  0  0  0
    3.9611    0.0078   -1.2174 C   0  0  0  0  0  0  0  0  0  0  0  0
    2.5723    0.0032   -1.2159 C   0  0  0  0  0  0  0  0  0  0  0  0
    6.0693    0.0426   -0.0888 N   0  0  0  0  0  0  0  0  0  0  0  0
    6.9221    0.0040    0.9935 C   0  0  0  0  0  0  0  0  0  0  0  0
    6.5938   -0.0644    2.1631 O   0  0  0  0  0  0  0  0  0  0  0  0
    8.3273    0.0904    0.7513 N   0  0  0  0  0  0  0  0  0  0  0  0
    9.0341   -0.1790   -0.4169 C   0  0  0  0  0  0  0  0  0  0  0  0
   10.4450   -0.3301   -0.3977 C   0  0  2  0  0  0  0  0  0  0  0  0
   11.0579   -0.6155   -1.6247 C   0  0  0  0  0  0  0  0  0  0  0  0
   10.3616   -0.7221   -2.7726 N   0  0  0  0  0  0  0  0  0  0  0  0
    9.0193   -0.5557   -2.7218 C   0  0  0  0  0  0  0  0  0  0  0  0
    8.2300   -0.6922   -3.9783 C   0  0  0  0  0  0  0  0  0  0  0  0
    8.3392   -0.2771   -1.5811 N   0  0  0  0  0  0  0  0  0  0  0  0
   11.2794   -0.2735    0.8438 C   0  0  0  0  0  0  0  0  0  0  0  0
   11.3657   -1.5904    1.5036 N   0  0  0  0  0  0  0  0  0  0  0  0
   10.2046   -2.0062    2.2259 C   0  0  0  0  0  0  0  0  0  0  0  0
    9.2865   -2.8189    1.6975 C   0  0  0  0  0  0  0  0  0  0  0  0
    7.9945   -3.3391    2.2446 C   0  0  0  0  0  0  0  0  0  0  0  0
    7.5379   -4.1051    0.9879 C   0  0  0  0  0  0  0  0  0  0  0  0
    9.1064   -3.6009    0.1086 S   0  0  0  0  0  0  0  0  0  0  0  0
   10.0787   -1.4519    3.6068 C   0  0  0  0  0  0  0  0  0  0  0  0
   12.2570   -2.5317    0.9812 C   0  0  0  0  0  0  0  0  0  0  0  0
   13.0461   -2.1972    0.1246 O   0  0  0  0  0  0  0  0  0  0  0  0
    2.0341   -0.0028    2.1622 H   0  0  0  0  0  0  0  0  0  0  0  0
    4.4957    0.0143    2.1766 H   0  0  0  0  0  0  0  0  0  0  0  0
    4.5004    0.0112   -2.1629 H   0  0  0  0  0  0  0  0  0  0  0  0
    2.0313    0.0041   -2.1632 H   0  0  0  0  0  0  0  0  0  0  0  0
    6.4901    0.0355   -1.0346 H   0  0  0  0  0  0  0  0  0  0  0  0
    8.8811    0.0741    1.6208 H   0  0  0  0  0  0  0  0  0  0  0  0
   12.1478   -0.7841   -1.7003 H   0  0  0  0  0  0  0  0  0  0  0  0
    7.5018   -1.5166   -3.9004 H   0  0  0  0  0  0  0  0  0  0  0  0
    8.8826   -0.9054   -4.8430 H   0  0  0  0  0  0  0  0  0  0  0  0
    7.6665    0.2271   -4.2013 H   0  0  0  0  0  0  0  0  0  0  0  0
   10.9019    0.4775    1.5748 H   0  0  0  0  0  0  0  0  0  0  0  0
   12.3264    0.0516    0.5956 H   0  0  0  0  0  0  0  0  0  0  0  0
    7.2942   -2.5335    2.5490 H   0  0  0  0  0  0  0  0  0  0  0  0
    8.1179   -3.9829    3.1334 H   0  0  0  0  0  0  0  0  0  0  0  0
    7.4367   -5.1870    1.1135 H   0  0  0  0  0  0  0  0  0  0  0  0
    6.6293   -3.7173    0.5160 H   0  0  0  0  0  0  0  0  0  0  0  0
   10.8600   -0.7128    3.8392 H   0  0  0  0  0  0  0  0  0  0  0  0
   10.1676   -2.2507    4.3603 H   0  0  0  0  0  0  0  0  0  0  0  0
    9.1009   -0.9709    3.7703 H   0  0  0  0  0  0  0  0  0  0  0  0
   12.2395   -3.5274    1.4423 H   0  0  0  0  0  0  0  0  0  0  0  0
  1  2  1  0  0  0  0
  2  3  2  0  0  0  0
  3  4  1  0  0  0  0
  3 29  1  0  0  0  0
  4 30  1  0  0  0  0
  5  4  2  0  0  0  0
  6  7  2  0  0  0  0
  6  5  1  0  0  0  0
  7  2  1  0  0  0  0
  8  5  1  0  0  0  0
  8  9  1  0  0  0  0
  9 10  2  0  0  0  0
 11  9  1  0  0  0  0
 11 34  1  0  0  0  0
 12 13  1  0  0  0  0
 12 11  1  0  0  0  0
 13 19  1  1  0  0  0
 14 13  1  0  0  0  0
 15 16  2  0  0  0  0
 15 14  2  0  0  0  0
 16 18  2  0  0  0  0
 17 36  1  0  0  0  0
 17 16  1  0  0  0  0
 18 12  2  0  0  0  0
 19 20  1  0  0  0  0
 19 39  1  0  0  0  0
 20 21  1  0  0  0  0
 21 26  1  0  0  0  0
 22 21  2  0  0  0  0
 22 23  1  0  0  0  0
 23 41  1  0  0  0  0
 23 42  1  0  0  0  0
 24 43  1  0  0  0  0
 24 23  1  0  0  0  0
 25 24  1  0  0  0  0
 25 22  1  0  0  0  0
 26 47  1  0  0  0  0
 26 45  1  0  0  0  0
 26 46  1  0  0  0  0
 27 48  1  0  0  0  0
 27 20  1  0  0  0  0
 28 27  2  0  0  0  0
 31  6  1  0  0  0  0
 32  7  1  0  0  0  0
 33  8  1  0  0  0  0
 35 14  1  0  0  0  0
 37 17  1  0  0  0  0
 38 17  1  0  0  0  0
 40 19  1  0  0  0  0
 44 24  1  0  0  0  0
M  RAD  1  13   2
M  END
$$$$
