
     RDKit          3D

 48 50  0  0  0  0  0  0  0  0999 V2000
    0.0744    0.0873    1.0058 Br  0  0  0  0  0  0  0  0  0  0  0  0
    1.9619    0.0658    0.7385 C   0  0  0  0  0  0  0  0  0  0  0  0
    2.8037   -0.3570    1.7705 C   0  0  0  0  0  0  0  0  0  0  0  0
    4.1812   -0.3671    1.5692 C   0  0  0  0  0  0  0  0  0  0  0  0
    4.7373    0.0407    0.3425 C   0  0  0  0  0  0  0  0  0  0  0  0
    3.8774    0.4581   -0.6894 C   0  0  0  0  0  0  0  0  0  0  0  0
    2.4965    0.4702   -0.4856 C   0  0  0  0  0  0  0  0  0  0  0  0
    6.1313    0.0022    0.2293 N   0  0  0  0  0  0  0  0  0  0  0  0
    6.8917    0.4916   -0.7848 C   0  0  0  0  0  0  0  0  0  0  0  0
    6.4864    0.9638   -1.8374 O   0  0  0  0  0  0  0  0  0  0  0  0
    8.2846    0.4404   -0.5656 N   0  0  0  0  0  0  0  0  0  0  0  0
    8.9965    0.2901    0.6090 C   0  0  0  0  0  0  0  0  0  0  0  0
   10.3369    0.7415    0.7002 C   0  0  0  0  0  0  0  0  0  0  0  0
   10.9412    0.5502    1.9382 C   0  0  0  0  0  0  0  0  0  0  0  0
   10.3369   -0.0323    2.9823 N   0  0  0  0  0  0  0  0  0  0  0  0
    9.0803   -0.4274    2.7995 C   0  0  0  0  0  0  0  0  0  0  0  0
    8.3533   -1.0653    3.9480 C   0  0  0  0  0  0  0  0  0  0  0  0
    8.3968   -0.2911    1.6518 N   0  0  0  0  0  0  0  0  0  0  0  0
   11.0558    1.4571   -0.4190 C   0  0  0  0  0  0  0  0  0  0  0  0
   10.6321    2.8538   -0.5713 N   0  0  0  0  0  0  0  0  0  0  0  0
    9.6847    3.2262   -1.5774 C   0  0  0  0  0  0  0  0  0  0  0  0
    8.4454    3.5964   -1.2114 C   0  0  0  0  0  0  0  0  0  0  0  0
    7.2223    4.0349   -1.9834 C   0  0  0  0  0  0  0  0  0  0  0  0
    6.2814    4.0649   -0.7554 C   0  0  0  0  0  0  0  0  0  0  0  0
    7.6840    3.6333    0.3922 S   0  0  0  0  0  0  0  0  0  0  0  0
   10.1610    3.2224   -3.0035 C   0  0  0  0  0  0  0  0  0  0  0  0
   11.1361    3.7692    0.3174 C   0  0  0  0  0  0  0  0  0  0  0  0
   11.9165    3.4969    1.2058 O   0  0  0  0  0  0  0  0  0  0  0  0
    2.3856   -0.6746    2.7267 H   0  0  0  0  0  0  0  0  0  0  0  0
    4.8420   -0.6932    2.3764 H   0  0  0  0  0  0  0  0  0  0  0  0
    4.2996    0.7634   -1.6435 H   0  0  0  0  0  0  0  0  0  0  0  0
    1.8339    0.7939   -1.2897 H   0  0  0  0  0  0  0  0  0  0  0  0
    6.6804   -0.3221    1.0396 H   0  0  0  0  0  0  0  0  0  0  0  0
    8.7512    0.9449   -1.3114 H   0  0  0  0  0  0  0  0  0  0  0  0
   11.9635    0.9104    2.0923 H   0  0  0  0  0  0  0  0  0  0  0  0
    7.5050   -0.4322    4.2563 H   0  0  0  0  0  0  0  0  0  0  0  0
    9.0334   -1.1937    4.7982 H   0  0  0  0  0  0  0  0  0  0  0  0
    7.9402   -2.0409    3.6477 H   0  0  0  0  0  0  0  0  0  0  0  0
   10.9040    0.9474   -1.3826 H   0  0  0  0  0  0  0  0  0  0  0  0
   12.1339    1.4469   -0.2069 H   0  0  0  0  0  0  0  0  0  0  0  0
    6.9158    3.2993   -2.7406 H   0  0  0  0  0  0  0  0  0  0  0  0
    7.3443    5.0205   -2.4609 H   0  0  0  0  0  0  0  0  0  0  0  0
    5.8346    5.0386   -0.5162 H   0  0  0  0  0  0  0  0  0  0  0  0
    5.5146    3.2802   -0.7601 H   0  0  0  0  0  0  0  0  0  0  0  0
   10.5784    2.2418   -3.2920 H   0  0  0  0  0  0  0  0  0  0  0  0
   10.9657    3.9637   -3.1499 H   0  0  0  0  0  0  0  0  0  0  0  0
    9.3443    3.4532   -3.7012 H   0  0  0  0  0  0  0  0  0  0  0  0
   10.7503    4.7965    0.1246 H   0  0  0  0  0  0  0  0  0  0  0  0
  1  2  1  0
  2  3  2  0
  2  7  1  0
  3  4  1  0
  3 29  1  0
  4  5  2  0
  4 30  1  0
  5  6  1  0
  5  8  1  0
  6  7  2  0
  6 31  1  0
  7 32  1  0
  8  9  1  0
  8 33  1  0
  9 10  2  0
  9 11  1  0
 11 12  1  0
 11 34  1  0
 12 13  1  0
 12 18  2  0
 13 14  2  0
 13 19  1  0
 14 15  1  0
 14 35  1  0
 15 16  2  0
 16 17  1  0
 16 18  1  0
 17 36  1  0
 17 37  1  0
 17 38  1  0
 19 20  1  0
 19 39  1  0
 19 40  1  0
 20 21  1  0
 20 27  1  0
 21 22  2  0
 21 26  1  0
 22 23  1  0
 22 25  1  0
 23 24  1  0
 23 41  1  0
 23 42  1  0
 24 25  1  0
 24 43  1  0
 24 44  1  0
 26 45  1  0
 26 46  1  0
 26 47  1  0
 27 28  2  0
 27 48  1  0
M  END

