48

Br         0.08170       -0.06860       -0.05180
C          1.98550        0.01650       -0.10320
C          2.72030       -0.18940        1.06710
C          4.11040       -0.12670        1.02110
C          4.78420        0.14110       -0.18490
C          4.03180        0.34860       -1.35420
C          2.63830        0.28470       -1.30730
N          6.18340        0.18530       -0.13520
C          7.04830        0.36000       -1.16880
O          6.75180        0.54450       -2.34090
N          8.41530        0.31350       -0.82240
C          9.05050       -0.05550        0.34620
C         10.46020       -0.21240        0.38890
C         10.97530       -0.59770        1.62250
N         10.22990       -0.81180        2.71470
C          8.91780       -0.63510        2.58020
C          8.03660       -0.85900        3.77520
N          8.31100       -0.26400        1.44210
C         11.36910       -0.04880       -0.80340
N         11.60290       -1.31130       -1.51400
C         10.51750       -1.96890       -2.17790
C          9.88950       -1.36310       -3.19760
C          8.63720       -1.68080       -3.98450
C          8.60990       -0.34730       -4.76980
S         10.19650        0.21210       -3.97130
C         10.04670       -3.27540       -1.59970
C         12.80910       -1.94030       -1.33320
O         13.71310       -1.52760       -0.63640
H          2.20990       -0.39790        2.00830
H          4.68760       -0.28770        1.93540
H          4.54540        0.55870       -2.28870
H          2.05880        0.44700       -2.21740
H          6.64630        0.01350        0.76980
H          8.99430        0.46100       -1.64630
H         12.05680       -0.74960        1.72080
H          7.50280        0.06970        4.03370
H          8.63990       -1.18300        4.63130
H          7.27350       -1.62120        3.55060
H         12.35590        0.29240       -0.46730
H         10.98400        0.70610       -1.50540
H          7.74600       -1.81450       -3.35230
H          8.74560       -2.56720       -4.63000
H          8.70790       -0.43030       -5.85990
H          7.77870        0.30910       -4.48820
H         10.83680       -4.04440       -1.62170
H          9.18210       -3.67040       -2.15080
H          9.75660       -3.14420       -0.54280
H         12.87960       -2.88560       -1.91850
