48
rmsd105.gzmat
Br         0.00000        0.00000        0.00000
C          1.89700        0.00000        0.00000
C          2.57180        0.00000        1.21440
C          3.96340        0.00170        1.22270
C          4.66280       -0.00190        0.00790
C          3.96280       -0.00050       -1.21480
C          2.57340        0.00010       -1.21510
N          6.07040        0.01260       -0.07680
C          6.90290       -0.22050        0.99690
O          6.55070       -0.42530        2.14310
N          8.31400       -0.21570        0.78070
C          9.03520       -0.27420       -0.40370
C         10.43840       -0.49040       -0.39190
C         11.07040       -0.56890       -1.63830
N         10.40120       -0.41520       -2.79730
C          9.06790       -0.18770       -2.73890
C          8.31430       -0.01320       -4.01210
N          8.36670       -0.12150       -1.57890
C         11.24310       -0.67900        0.85630
N         11.25110       -2.08650        1.29520
C         10.05860       -2.58240        1.90660
C          9.75320       -2.24490        3.16180
C          8.54170       -2.51600        3.99850
C          8.98020       -1.72520        5.24750
S         10.58470       -1.28420        4.40650
C          9.19360       -3.47310        1.07470
C         12.13570       -2.96380        0.66810
O         12.95810       -2.53590       -0.11310
H          2.03120        0.00130        2.16300
H          4.49370        0.00870        2.17940
H          4.50400       -0.00350       -2.15900
H          2.03400       -0.00050       -2.16340
H          6.49900        0.12260       -1.01020
H          8.85220       -0.37230        1.64890
H         12.15310       -0.77490       -1.72440
H          7.59260        0.81610       -3.95000
H          7.74790       -0.92560       -4.26290
H          8.99590        0.18920       -4.85720
H         10.88400       -0.02660        1.68550
H         12.31030       -0.36940        0.68450
H          8.36200       -3.58690        4.19420
H          7.60450       -2.12440        3.54690
H          8.35440       -0.85740        5.48070
H          9.10580       -2.32160        6.15450
H          8.16630       -3.53470        1.46490
H          9.58280       -4.50150        1.04360
H          9.11750       -3.12060        0.03550
H         12.07520       -4.01550        0.97510
