46
rmsd174.gzmat
S          0.00000        0.00000        0.00000
C          1.70100        0.00000        0.00000
N          2.42610        0.00000        1.16350
C          1.79320       -0.12900        2.48370
C          1.25250       -1.54750        2.77750
C          2.08980       -2.61810        2.15400
C          3.35510       -2.91490        2.66760
C          4.13620       -3.90720        2.07930
C          3.62290       -4.57930        0.97960
Cl         4.58450       -5.78770        0.23000
C          2.36750       -4.31690        0.45030
C          1.59780       -3.32460        1.05140
N          2.39950        0.15730       -1.18060
C          3.85040        0.40930       -1.20600
C          4.70710       -0.78530       -0.87740
C          5.56620       -0.68750        0.22410
C          6.37400       -1.76400        0.56050
O          7.15060       -1.62780        1.66280
C          6.34630       -2.93330       -0.22610
O          7.20480       -3.91180        0.16920
C          5.50580       -3.02580       -1.32370
C          4.67640       -1.94370       -1.65490
C          3.80850       -2.05970       -2.87180
C          2.31520       -1.92440       -2.54910
C          1.87800       -0.45580       -2.41430
H          3.40220       -0.29030        1.14900
H          0.96640        0.61590        2.58420
H          2.56610        0.14640        3.23930
H          0.19900       -1.61970        2.42230
H          1.18950       -1.69190        3.87550
H          3.73500       -2.37230        3.53210
H          5.12380       -4.14130        2.47610
H          1.98620       -4.86980       -0.40730
H          0.60450       -3.09660        0.65720
H          4.11800        0.78250       -2.22800
H          4.06520        1.26820       -0.52320
H          5.62830        0.22350        0.81950
H          7.68280       -2.45080        1.83050
H          7.08520       -4.74060       -0.36050
H          5.48870       -3.93070       -1.92730
H          4.11170       -1.29380       -3.61770
H          3.97940       -3.03310       -3.37890
H          1.71300       -2.40720       -3.34300
H          2.07520       -2.47990       -1.61970
H          0.76280       -0.38140       -2.44360
H          2.23410        0.14860       -3.27890
