rmsd24.gzmat
 OpenBabel08211713403D

 46 48  0  0  0  0  0  0  0  0999 V2000
    0.0000    0.0000    0.0000 S   0  0  0  0  0  0  0  0  0  0  0  0
    1.7093    0.0000    0.0000 C   0  0  0  0  0  0  0  0  0  0  0  0
    2.4273    0.0000    1.1648 N   0  0  0  0  0  0  0  0  0  0  0  0
    1.7905   -0.1791    2.4803 C   0  0  0  0  0  0  0  0  0  0  0  0
    2.4537   -1.3299    3.2652 C   0  0  0  0  0  0  0  0  0  0  0  0
    2.6571   -2.5699    2.4502 C   0  0  0  0  0  0  0  0  0  0  0  0
    3.8663   -3.2618    2.5677 C   0  0  0  0  0  0  0  0  0  0  0  0
    4.1169   -4.3806    1.7776 C   0  0  0  0  0  0  0  0  0  0  0  0
    3.1470   -4.7677    0.8645 C   0  0  0  0  0  0  0  0  0  0  0  0
    3.5122   -6.0580   -0.2065 Cl  0  0  0  0  0  0  0  0  0  0  0  0
    1.9158   -4.1373    0.7597 C   0  0  0  0  0  0  0  0  0  0  0  0
    1.6700   -3.0375    1.5787 C   0  0  0  0  0  0  0  0  0  0  0  0
    2.4007    0.1592   -1.1821 N   0  0  0  0  0  0  0  0  0  0  0  0
    3.8702    0.2529   -1.2335 C   0  0  0  0  0  0  0  0  0  0  0  0
    4.5852   -1.0501   -0.9855 C   0  0  0  0  0  0  0  0  0  0  0  0
    5.4795   -1.1094    0.0897 C   0  0  0  0  0  0  0  0  0  0  0  0
    6.1463   -2.2961    0.3609 C   0  0  0  0  0  0  0  0  0  0  0  0
    6.9703   -2.3059    1.4379 O   0  0  0  0  0  0  0  0  0  0  0  0
    5.9272   -3.4250   -0.4536 C   0  0  0  0  0  0  0  0  0  0  0  0
    6.6205   -4.5424   -0.0990 O   0  0  0  0  0  0  0  0  0  0  0  0
    5.0613   -3.3600   -1.5325 C   0  0  0  0  0  0  0  0  0  0  0  0
    4.3885   -2.1613   -1.8077 C   0  0  0  0  0  0  0  0  0  0  0  0
    3.4986   -2.1143   -3.0127 C   0  0  0  0  0  0  0  0  0  0  0  0
    2.0386   -1.8223   -2.6481 C   0  0  0  0  0  0  0  0  0  0  0  0
    1.7936   -0.3197   -2.4380 C   0  0  0  0  0  0  0  0  0  0  0  0
    3.4226   -0.2070    1.1574 H   0  0  0  0  0  0  0  0  0  0  0  0
    0.6919   -0.3662    2.3914 H   0  0  0  0  0  0  0  0  0  0  0  0
    1.8931    0.7796    3.0419 H   0  0  0  0  0  0  0  0  0  0  0  0
    1.8199   -1.5696    4.1483 H   0  0  0  0  0  0  0  0  0  0  0  0
    3.4181   -0.9803    3.6903 H   0  0  0  0  0  0  0  0  0  0  0  0
    4.6290   -2.9195    3.2669 H   0  0  0  0  0  0  0  0  0  0  0  0
    5.0617   -4.9173    1.8654 H   0  0  0  0  0  0  0  0  0  0  0  0
    1.1576   -4.4809    0.0561 H   0  0  0  0  0  0  0  0  0  0  0  0
    0.7025   -2.5322    1.5204 H   0  0  0  0  0  0  0  0  0  0  0  0
    4.1581    0.6444   -2.2432 H   0  0  0  0  0  0  0  0  0  0  0  0
    4.1982    1.0472   -0.5192 H   0  0  0  0  0  0  0  0  0  0  0  0
    5.6762   -0.2404    0.7166 H   0  0  0  0  0  0  0  0  0  0  0  0
    7.3865   -3.2003    1.5602 H   0  0  0  0  0  0  0  0  0  0  0  0
    6.3298   -5.3323   -0.6219 H   0  0  0  0  0  0  0  0  0  0  0  0
    4.9000   -4.2335   -2.1612 H   0  0  0  0  0  0  0  0  0  0  0  0
    3.8786   -1.3509   -3.7251 H   0  0  0  0  0  0  0  0  0  0  0  0
    3.5474   -3.0728   -3.5720 H   0  0  0  0  0  0  0  0  0  0  0  0
    1.3659   -2.1917   -3.4458 H   0  0  0  0  0  0  0  0  0  0  0  0
    1.7508   -2.3897   -1.7391 H   0  0  0  0  0  0  0  0  0  0  0  0
    0.6969   -0.1011   -2.4478 H   0  0  0  0  0  0  0  0  0  0  0  0
    2.2160    0.2782   -3.2766 H   0  0  0  0  0  0  0  0  0  0  0  0
  1  2  2  0  0  0  0
  2  3  1  0  0  0  0
  3  4  1  0  0  0  0
  4 28  1  0  0  0  0
  4  5  1  0  0  0  0
  5 30  1  0  0  0  0
  5 29  1  0  0  0  0
  6  7  1  0  0  0  0
  6  5  1  0  0  0  0
  7 31  1  0  0  0  0
  8 32  1  0  0  0  0
  8  7  2  0  0  0  0
  9  8  1  0  0  0  0
 10  9  1  0  0  0  0
 11  9  2  0  0  0  0
 11 12  1  0  0  0  0
 12  6  2  0  0  0  0
 13  2  1  0  0  0  0
 14 13  1  0  0  0  0
 14 15  1  0  0  0  0
 14 36  1  0  0  0  0
 15 16  2  0  0  0  0
 16 17  1  0  0  0  0
 16 37  1  0  0  0  0
 17 18  1  0  0  0  0
 18 38  1  0  0  0  0
 19 20  1  0  0  0  0
 19 17  2  0  0  0  0
 21 19  1  0  0  0  0
 22 21  2  0  0  0  0
 22 15  1  0  0  0  0
 23 24  1  0  0  0  0
 23 22  1  0  0  0  0
 24 25  1  0  0  0  0
 24 44  1  0  0  0  0
 25 13  1  0  0  0  0
 26  3  1  0  0  0  0
 27  4  1  0  0  0  0
 33 11  1  0  0  0  0
 34 12  1  0  0  0  0
 35 14  1  0  0  0  0
 39 20  1  0  0  0  0
 40 21  1  0  0  0  0
 41 23  1  0  0  0  0
 42 23  1  0  0  0  0
 43 24  1  0  0  0  0
 45 25  1  0  0  0  0
 46 25  1  0  0  0  0
M  END
$$$$
