46
rmsd87.gzmat
S          0.00000        0.00000        0.00000
C          1.70090        0.00000        0.00000
N          2.42690        0.00000        1.16450
C          1.79080       -0.15220        2.48110
C          1.24930       -1.57600        2.75170
C          2.06010       -2.62960        2.06760
C          3.35220       -2.92340        2.51200
C          4.11820       -3.88350        1.85550
C          3.56120       -4.53150        0.76220
Cl         4.50460       -5.70240       -0.06580
C          2.27780       -4.27350        0.30290
C          1.52450       -3.31130        0.97050
N          2.39910        0.16110       -1.17910
C          3.84610        0.43270       -1.20330
C          4.72150       -0.75810       -0.91110
C          5.58270       -0.67970        0.19000
C          6.40740       -1.75390        0.49250
O          7.18770       -1.63790        1.59470
C          6.39190       -2.90260       -0.32380
O          7.25490       -3.88730        0.04710
C          5.55620       -2.97160       -1.42650
C          4.70900       -1.89380       -1.72220
C          3.83160       -1.99460       -2.93280
C          2.34250       -1.89980       -2.57900
C          1.87800       -0.44240       -2.41740
H          3.40330       -0.29080        1.14710
H          0.96400        0.59100        2.59210
H          2.56140        0.11250        3.24240
H          0.18440       -1.63110        2.43000
H          1.22260       -1.75370        3.84600
H          3.76420       -2.40050        3.37400
H          5.12900       -4.11020        2.19460
H          1.86200       -4.80420       -0.55310
H          0.51140       -3.08500        0.62880
H          4.10330        0.83810       -2.21570
H          4.05310        1.27580       -0.49800
H          5.63340        0.21410        0.81190
H          7.74000       -2.45410        1.72820
H          7.11430       -4.71410       -0.48050
H          5.55600       -3.85480       -2.06230
H          4.10790       -1.20210       -3.66080
H          4.01570       -2.94930       -3.46970
H          1.73520       -2.38740       -3.36560
H          2.13500       -2.47080       -1.65060
H          0.76140       -0.39060       -2.43480
H          2.21550        0.18150       -3.27570
