rmsd223.gzmat
 OpenBabel08211713403D

 46 48  0  0  0  0  0  0  0  0999 V2000
    0.0000    0.0000    0.0000 S   0  0  0  0  0  0  0  0  0  0  0  0
    1.7014    0.0000    0.0000 C   0  0  0  0  0  0  0  0  0  0  0  0
    2.4278    0.0000    1.1639 N   0  0  0  0  0  0  0  0  0  0  0  0
    1.7912   -0.1377    2.4815 C   0  0  0  0  0  0  0  0  0  0  0  0
    1.2460   -1.5573    2.7643 C   0  0  0  0  0  0  0  0  0  0  0  0
    2.0676   -2.6183    2.1046 C   0  0  0  0  0  0  0  0  0  0  0  0
    3.3440   -2.9221    2.5857 C   0  0  0  0  0  0  0  0  0  0  0  0
    4.1185   -3.8938    1.9563 C   0  0  0  0  0  0  0  0  0  0  0  0
    3.5868   -4.5400    0.8496 C   0  0  0  0  0  0  0  0  0  0  0  0
    4.5417   -5.7191    0.0468 Cl  0  0  0  0  0  0  0  0  0  0  0  0
    2.3188   -4.2725    0.3544 C   0  0  0  0  0  0  0  0  0  0  0  0
    1.5562   -3.3000    0.9960 C   0  0  0  0  0  0  0  0  0  0  0  0
    2.4009    0.1586   -1.1778 N   0  0  0  0  0  0  0  0  0  0  0  0
    3.8495    0.4203   -1.2021 C   0  0  0  0  0  0  0  0  0  0  0  0
    4.7160   -0.7770   -0.9109 C   0  0  0  0  0  0  0  0  0  0  0  0
    5.5855   -0.6990    0.1839 C   0  0  0  0  0  0  0  0  0  0  0  0
    6.4097   -1.7744    0.4815 C   0  0  0  0  0  0  0  0  0  0  0  0
    7.2021   -1.6580    1.5748 O   0  0  0  0  0  0  0  0  0  0  0  0
    6.3824   -2.9255   -0.3315 C   0  0  0  0  0  0  0  0  0  0  0  0
    7.2513   -3.9073    0.0325 O   0  0  0  0  0  0  0  0  0  0  0  0
    5.5331   -2.9974   -1.4235 C   0  0  0  0  0  0  0  0  0  0  0  0
    4.6898   -1.9154   -1.7172 C   0  0  0  0  0  0  0  0  0  0  0  0
    3.8122   -2.0098   -2.9285 C   0  0  0  0  0  0  0  0  0  0  0  0
    2.3211   -1.8925   -2.5906 C   0  0  0  0  0  0  0  0  0  0  0  0
    1.8748   -0.4304   -2.4206 C   0  0  0  0  0  0  0  0  0  0  0  0
    3.4024   -0.2970    1.1467 H   0  0  0  0  0  0  0  0  0  0  0  0
    0.9661    0.6085    2.5846 H   0  0  0  0  0  0  0  0  0  0  0  0
    2.5627    0.1312    3.2403 H   0  0  0  0  0  0  0  0  0  0  0  0
    0.1855   -1.6180    2.4288 H   0  0  0  0  0  0  0  0  0  0  0  0
    1.2032   -1.7190    3.8606 H   0  0  0  0  0  0  0  0  0  0  0  0
    3.7383   -2.3992    3.4557 H   0  0  0  0  0  0  0  0  0  0  0  0
    5.1147   -4.1316    2.3283 H   0  0  0  0  0  0  0  0  0  0  0  0
    1.9216   -4.8061   -0.5084 H   0  0  0  0  0  0  0  0  0  0  0  0
    0.5538   -3.0676    0.6274 H   0  0  0  0  0  0  0  0  0  0  0  0
    4.1093    0.8240   -2.2146 H   0  0  0  0  0  0  0  0  0  0  0  0
    4.0632    1.2612   -0.4960 H   0  0  0  0  0  0  0  0  0  0  0  0
    5.6434    0.1961    0.8032 H   0  0  0  0  0  0  0  0  0  0  0  0
    7.7509   -2.4767    1.7058 H   0  0  0  0  0  0  0  0  0  0  0  0
    7.1039   -4.7384   -0.4863 H   0  0  0  0  0  0  0  0  0  0  0  0
    5.5200   -3.8853   -2.0521 H   0  0  0  0  0  0  0  0  0  0  0  0
    4.1046   -1.2242   -3.6577 H   0  0  0  0  0  0  0  0  0  0  0  0
    3.9853   -2.9688   -3.4614 H   0  0  0  0  0  0  0  0  0  0  0  0
    1.7166   -2.3615   -3.3915 H   0  0  0  0  0  0  0  0  0  0  0  0
    2.0918   -2.4693   -1.6714 H   0  0  0  0  0  0  0  0  0  0  0  0
    0.7588   -0.3654   -2.4391 H   0  0  0  0  0  0  0  0  0  0  0  0
    2.2202    0.1955   -3.2742 H   0  0  0  0  0  0  0  0  0  0  0  0
  1  2  2  0  0  0  0
  2  3  1  0  0  0  0
  3  4  1  0  0  0  0
  4 27  1  0  0  0  0
  4  5  1  0  0  0  0
  4 28  1  0  0  0  0
  5 30  1  0  0  0  0
  6  7  1  0  0  0  0
  6  5  1  0  0  0  0
  7 31  1  0  0  0  0
  8 32  1  0  0  0  0
  8  7  2  0  0  0  0
  9  8  1  0  0  0  0
 10  9  1  0  0  0  0
 11  9  2  0  0  0  0
 11 12  1  0  0  0  0
 12  6  2  0  0  0  0
 13  2  1  0  0  0  0
 14 13  1  0  0  0  0
 14 15  1  0  0  0  0
 14 36  1  0  0  0  0
 15 16  2  0  0  0  0
 16 17  1  0  0  0  0
 16 37  1  0  0  0  0
 17 18  1  0  0  0  0
 18 38  1  0  0  0  0
 19 20  1  0  0  0  0
 19 17  2  0  0  0  0
 21 19  1  0  0  0  0
 22 21  2  0  0  0  0
 22 15  1  0  0  0  0
 23 24  1  0  0  0  0
 23 22  1  0  0  0  0
 24 25  1  0  0  0  0
 24 44  1  0  0  0  0
 25 13  1  0  0  0  0
 26  3  1  0  0  0  0
 29  5  1  0  0  0  0
 33 11  1  0  0  0  0
 34 12  1  0  0  0  0
 35 14  1  0  0  0  0
 39 20  1  0  0  0  0
 40 21  1  0  0  0  0
 41 23  1  0  0  0  0
 42 23  1  0  0  0  0
 43 24  1  0  0  0  0
 45 25  1  0  0  0  0
 46 25  1  0  0  0  0
M  END
$$$$
