46

S         -0.04160       -0.25370       -0.08780
C          1.62700        0.02160       -0.09340
N          2.35290        0.04980        1.05860
C          1.83060       -0.24320        2.38180
C          2.67590       -1.28610        3.11530
C          2.85120       -2.62070        2.41900
C          2.02950       -3.03520        1.36110
C          2.26050       -4.24670        0.70540
C          3.30670       -5.05990        1.12980
Cl         3.68260       -6.52840        0.22680
C          4.11070       -4.70150        2.21110
C          3.88180       -3.47750        2.83640
N          2.33560        0.22930       -1.24830
C          3.79540        0.33740       -1.25590
C          4.49630       -0.98500       -1.01550
C          5.34960       -1.12510        0.08660
C          5.93870       -2.35030        0.39090
O          6.72390       -2.49660        1.48290
C          5.67420       -3.45480       -0.43600
O          6.28460       -4.62250       -0.06630
C          4.84280       -3.31400       -1.54360
C          4.24190       -2.08600       -1.85810
C          3.39570       -1.97070       -3.11230
C          1.92780       -1.54410       -2.93700
C          1.73040       -0.08080       -2.54070
H          3.36050        0.00690        0.97890
H          0.79200       -0.57610        2.25130
H          1.79300        0.67780        2.98980
H          2.21670       -1.44510        4.10740
H          3.67880       -0.87230        3.32490
H          1.20830       -2.40750        1.00850
H          1.64370       -4.54220       -0.14410
H          4.92720       -5.35090        2.52770
H          4.54160       -3.16860        3.65090
H          4.07300        0.74850       -2.23820
H          4.11700        1.08460       -0.51360
H          5.56310       -0.27830        0.74530
H          6.97670       -3.43410        1.51500
H          5.71120       -5.37940       -0.27250
H          4.65610       -4.18830       -2.17270
H          3.88280       -1.26080       -3.80820
H          3.41620       -2.94500       -3.62400
H          1.39900       -1.71050       -3.89100
H          1.43200       -2.17780       -2.18400
H          0.66160        0.15350       -2.47660
H          2.18960        0.58450       -3.29090
