rmsd123.gzmat
 OpenBabel08211713403D

 46 48  0  0  0  0  0  0  0  0999 V2000
    0.0000    0.0000    0.0000 S   0  0  0  0  0  0  0  0  0  0  0  0
    1.7026    0.0000    0.0000 C   0  0  0  0  0  0  0  0  0  0  0  0
    2.4294    0.0000    1.1644 N   0  0  0  0  0  0  0  0  0  0  0  0
    1.7853   -0.0674    2.4841 C   0  0  0  0  0  0  0  0  0  0  0  0
    1.2794   -1.4815    2.8382 C   0  0  0  0  0  0  0  0  0  0  0  0
    2.3187   -2.5221    2.5726 C   0  0  0  0  0  0  0  0  0  0  0  0
    3.4171   -2.6497    3.4276 C   0  0  0  0  0  0  0  0  0  0  0  0
    4.3818   -3.6256    3.1889 C   0  0  0  0  0  0  0  0  0  0  0  0
    4.2193   -4.4545    2.0877 C   0  0  0  0  0  0  0  0  0  0  0  0
    5.3993   -5.6612    1.7925 Cl  0  0  0  0  0  0  0  0  0  0  0  0
    3.1450   -4.3484    1.2151 C   0  0  0  0  0  0  0  0  0  0  0  0
    2.1885   -3.3680    1.4667 C   0  0  0  0  0  0  0  0  0  0  0  0
    2.4037    0.1498   -1.1760 N   0  0  0  0  0  0  0  0  0  0  0  0
    3.8683    0.3016   -1.2034 C   0  0  0  0  0  0  0  0  0  0  0  0
    4.6360   -0.9700   -0.9494 C   0  0  0  0  0  0  0  0  0  0  0  0
    5.5124   -0.9956    0.1430 C   0  0  0  0  0  0  0  0  0  0  0  0
    6.2722   -2.1308    0.3861 C   0  0  0  0  0  0  0  0  0  0  0  0
    7.0827   -2.1146    1.4709 O   0  0  0  0  0  0  0  0  0  0  0  0
    6.1746   -3.2373   -0.4828 C   0  0  0  0  0  0  0  0  0  0  0  0
    7.0345   -4.2563   -0.2162 O   0  0  0  0  0  0  0  0  0  0  0  0
    5.2894   -3.2226   -1.5477 C   0  0  0  0  0  0  0  0  0  0  0  0
    4.5178   -2.0761   -1.7918 C   0  0  0  0  0  0  0  0  0  0  0  0
    3.6270   -2.0684   -2.9980 C   0  0  0  0  0  0  0  0  0  0  0  0
    2.1513   -1.8406   -2.6479 C   0  0  0  0  0  0  0  0  0  0  0  0
    1.8312   -0.3518   -2.4369 C   0  0  0  0  0  0  0  0  0  0  0  0
    3.3898   -0.3392    1.1588 H   0  0  0  0  0  0  0  0  0  0  0  0
    0.9407    0.6619    2.5381 H   0  0  0  0  0  0  0  0  0  0  0  0
    2.5437    0.2665    3.2308 H   0  0  0  0  0  0  0  0  0  0  0  0
    0.3455   -1.6979    2.2703 H   0  0  0  0  0  0  0  0  0  0  0  0
    0.9659   -1.5000    3.9026 H   0  0  0  0  0  0  0  0  0  0  0  0
    3.5195   -1.9889    4.2869 H   0  0  0  0  0  0  0  0  0  0  0  0
    5.2387   -3.7281    3.8534 H   0  0  0  0  0  0  0  0  0  0  0  0
    3.0438   -5.0104    0.3565 H   0  0  0  0  0  0  0  0  0  0  0  0
    1.3334   -3.2609    0.7975 H   0  0  0  0  0  0  0  0  0  0  0  0
    4.1543    0.7098   -2.2069 H   0  0  0  0  0  0  0  0  0  0  0  0
    4.1519    1.1054   -0.4798 H   0  0  0  0  0  0  0  0  0  0  0  0
    5.6297   -0.1345    0.8000 H   0  0  0  0  0  0  0  0  0  0  0  0
    7.5392   -2.9924    1.5870 H   0  0  0  0  0  0  0  0  0  0  0  0
    6.7892   -5.0810   -0.7055 H   0  0  0  0  0  0  0  0  0  0  0  0
    5.2049   -4.0872   -2.2010 H   0  0  0  0  0  0  0  0  0  0  0  0
    3.9769   -1.2900   -3.7099 H   0  0  0  0  0  0  0  0  0  0  0  0
    3.7202   -3.0229   -3.5575 H   0  0  0  0  0  0  0  0  0  0  0  0
    1.5061   -2.2373   -3.4558 H   0  0  0  0  0  0  0  0  0  0  0  0
    1.8770   -2.4205   -1.7442 H   0  0  0  0  0  0  0  0  0  0  0  0
    0.7253   -0.1868   -2.4557 H   0  0  0  0  0  0  0  0  0  0  0  0
    2.2305    0.2666   -3.2726 H   0  0  0  0  0  0  0  0  0  0  0  0
  1  2  2  0  0  0  0
  2  3  1  0  0  0  0
  3  4  1  0  0  0  0
  4 27  1  0  0  0  0
  4  5  1  0  0  0  0
  4 28  1  0  0  0  0
  5 30  1  0  0  0  0
  6  5  1  0  0  0  0
  6  7  2  0  0  0  0
  7 31  1  0  0  0  0
  8  7  1  0  0  0  0
  8 32  1  0  0  0  0
  9  8  2  0  0  0  0
 10  9  1  0  0  0  0
 11 12  2  0  0  0  0
 11  9  1  0  0  0  0
 12  6  1  0  0  0  0
 13  2  1  0  0  0  0
 14 13  1  0  0  0  0
 14 15  1  0  0  0  0
 14 36  1  0  0  0  0
 15 16  2  0  0  0  0
 16 17  1  0  0  0  0
 16 37  1  0  0  0  0
 17 18  1  0  0  0  0
 18 38  1  0  0  0  0
 19 20  1  0  0  0  0
 19 17  2  0  0  0  0
 21 19  1  0  0  0  0
 22 21  2  0  0  0  0
 22 15  1  0  0  0  0
 23 24  1  0  0  0  0
 23 22  1  0  0  0  0
 24 25  1  0  0  0  0
 24 44  1  0  0  0  0
 25 13  1  0  0  0  0
 26  3  1  0  0  0  0
 29  5  1  0  0  0  0
 33 11  1  0  0  0  0
 34 12  1  0  0  0  0
 35 14  1  0  0  0  0
 39 20  1  0  0  0  0
 40 21  1  0  0  0  0
 41 23  1  0  0  0  0
 42 23  1  0  0  0  0
 43 24  1  0  0  0  0
 45 25  1  0  0  0  0
 46 25  1  0  0  0  0
M  END
$$$$
