rmsd150.gzmat
 OpenBabel08211713363D

 57 58  0  0  1  0  0  0  0  0999 V2000
    0.0000    0.0000    0.0000 C   0  0  0  0  0  0  0  0  0  0  0  0
    1.5319    0.0000    0.0000 C   0  0  2  0  0  0  0  0  0  0  0  0
    1.8932    0.0000    1.0780 H   0  0  0  0  0  0  0  0  0  0  0  0
    2.0080    1.3189   -0.6268 N   0  0  0  0  0  0  0  0  0  0  0  0
    1.3417    2.0720   -0.3756 H   0  0  0  0  0  0  0  0  0  0  0  0
    2.9332    1.6071   -0.2092 H   0  0  0  0  0  0  0  0  0  0  0  0
    2.0797    1.2842   -1.6551 H   0  0  0  0  0  0  0  0  0  0  0  0
    2.3302   -1.5098   -0.9216 P   0  0  2  0  0  0  0  0  0  0  0  0
    2.0435   -1.4497   -2.3581 O   0  0  0  0  0  0  0  0  0  0  0  0
    1.6408   -2.7085   -0.1094 O   0  0  0  0  0  0  0  0  0  0  0  0
    4.0685   -1.6941   -0.4198 C   0  0  0  0  0  0  0  0  0  0  0  0
    4.4908   -1.4136    1.0429 C   0  0  2  0  0  0  0  0  0  0  0  0
    3.8195   -1.9316    1.7777 H   0  0  0  0  0  0  0  0  0  0  0  0
    4.4933    0.0941    1.2844 C   0  0  0  0  0  0  0  0  0  0  0  0
    4.5838    0.8872    0.3605 O   0  0  0  0  0  0  0  0  0  0  0  0
    4.3452    0.5206    2.5870 N   0  0  0  0  0  0  0  0  0  0  0  0
    4.5456    1.9178    2.9736 C   0  0  1  0  0  0  0  0  0  0  0  0
    4.4996    1.9716    4.1060 H   0  0  0  0  0  0  0  0  0  0  0  0
    5.8786    2.4948    2.4987 C   0  0  0  0  0  0  0  0  0  0  0  0
    3.4193    2.7850    2.4188 C   0  0  0  0  0  0  0  0  0  0  0  0
    2.6052    2.5405    1.5595 O   0  0  0  0  0  0  0  0  0  0  0  0
    3.4100    3.9620    3.0644 O   0  0  0  0  0  0  0  0  0  0  0  0
    5.9277   -1.9437    1.2512 C   0  0  0  0  0  0  0  0  0  0  0  0
    6.4103   -1.6465    2.6376 C   0  0  0  0  0  0  0  0  0  0  0  0
    5.7806   -2.2330    3.7388 C   0  0  0  0  0  0  0  0  0  0  0  0
    6.1733   -1.8930    5.0287 C   0  0  0  0  0  0  0  0  0  0  0  0
    7.2057   -0.9711    5.2283 C   0  0  0  0  0  0  0  0  0  0  0  0
    7.8653   -0.4217    4.1253 C   0  0  0  0  0  0  0  0  0  0  0  0
    7.4699   -0.7604    2.8347 C   0  0  0  0  0  0  0  0  0  0  0  0
    7.5999   -0.5856    6.5871 C   0  0  0  0  0  0  0  0  0  0  0  0
    7.9377   -1.5656    7.5237 C   0  0  0  0  0  0  0  0  0  0  0  0
    8.3192   -1.1928    8.8102 C   0  0  0  0  0  0  0  0  0  0  0  0
    8.3598    0.1547    9.1644 C   0  0  0  0  0  0  0  0  0  0  0  0
    8.0199    1.1326    8.2306 C   0  0  0  0  0  0  0  0  0  0  0  0
    7.6424    0.7657    6.9415 C   0  0  0  0  0  0  0  0  0  0  0  0
   -0.3950    0.8593    0.5651 H   0  0  0  0  0  0  0  0  0  0  0  0
   -0.4179   -0.8899    0.5090 H   0  0  0  0  0  0  0  0  0  0  0  0
   -0.4611    0.0238   -1.0018 H   0  0  0  0  0  0  0  0  0  0  0  0
    0.8447   -3.0682   -0.6448 H   0  0  0  0  0  0  0  0  0  0  0  0
    4.3601   -2.7661   -0.6848 H   0  0  0  0  0  0  0  0  0  0  0  0
    4.7020   -1.0396   -1.1085 H   0  0  0  0  0  0  0  0  0  0  0  0
    4.4018   -0.1561    3.3499 H   0  0  0  0  0  0  0  0  0  0  0  0
    5.9591    2.5179    1.4007 H   0  0  0  0  0  0  0  0  0  0  0  0
    6.7247    1.8935    2.8659 H   0  0  0  0  0  0  0  0  0  0  0  0
    6.0247    3.5234    2.8632 H   0  0  0  0  0  0  0  0  0  0  0  0
    2.7141    4.6043    2.7570 H   0  0  0  0  0  0  0  0  0  0  0  0
    5.9501   -3.0423    1.0711 H   0  0  0  0  0  0  0  0  0  0  0  0
    6.6094   -1.5133    0.4868 H   0  0  0  0  0  0  0  0  0  0  0  0
    4.9925   -2.9702    3.5917 H   0  0  0  0  0  0  0  0  0  0  0  0
    5.6818   -2.3485    5.8900 H   0  0  0  0  0  0  0  0  0  0  0  0
    8.7013    0.2627    4.2816 H   0  0  0  0  0  0  0  0  0  0  0  0
    7.9956   -0.3341    1.9807 H   0  0  0  0  0  0  0  0  0  0  0  0
    7.9141   -2.6180    7.2443 H   0  0  0  0  0  0  0  0  0  0  0  0
    8.5892   -1.9574    9.5393 H   0  0  0  0  0  0  0  0  0  0  0  0
    8.6610    0.4447   10.1713 H   0  0  0  0  0  0  0  0  0  0  0  0
    8.0537    2.1855    8.5079 H   0  0  0  0  0  0  0  0  0  0  0  0
    7.3811    1.5287    6.2129 H   0  0  0  0  0  0  0  0  0  0  0  0
  1  2  1  0  0  0  0
  1 37  1  0  0  0  0
  1 36  1  0  0  0  0
  2  3  1  1  0  0  0
  4  5  1  0  0  0  0
  4  6  1  0  0  0  0
  4  2  1  0  0  0  0
  7  4  1  0  0  0  0
  8  9  2  6  0  0  0
  8 11  1  0  0  0  0
  8 10  1  0  0  0  0
  8  2  1  0  0  0  0
 11 12  1  0  0  0  0
 12 23  1  0  0  0  0
 12 14  1  0  0  0  0
 12 13  1  1  0  0  0
 14 16  1  0  0  0  0
 15 14  2  0  0  0  0
 16 17  1  0  0  0  0
 16 42  1  0  0  0  0
 17 18  1  1  0  0  0
 19 45  1  0  0  0  0
 19 44  1  0  0  0  0
 19 17  1  0  0  0  0
 20 17  1  0  0  0  0
 20 22  1  0  0  0  0
 21 20  2  0  0  0  0
 23 24  1  0  0  0  0
 24 29  2  0  0  0  0
 24 25  1  0  0  0  0
 25 26  2  0  0  0  0
 26 27  1  0  0  0  0
 26 50  1  0  0  0  0
 27 30  1  0  0  0  0
 28 51  1  0  0  0  0
 28 27  2  0  0  0  0
 29 28  1  0  0  0  0
 30 35  2  0  0  0  0
 30 31  1  0  0  0  0
 31 32  2  0  0  0  0
 32 33  1  0  0  0  0
 32 54  1  0  0  0  0
 33 55  1  0  0  0  0
 34 56  1  0  0  0  0
 34 33  2  0  0  0  0
 35 34  1  0  0  0  0
 38  1  1  0  0  0  0
 39 10  1  0  0  0  0
 40 11  1  0  0  0  0
 41 11  1  0  0  0  0
 43 19  1  0  0  0  0
 46 22  1  0  0  0  0
 47 23  1  0  0  0  0
 48 23  1  0  0  0  0
 49 25  1  0  0  0  0
 52 29  1  0  0  0  0
 53 31  1  0  0  0  0
 57 35  1  0  0  0  0
M  END
$$$$
