57
rmsd248.gzmat
C          0.00000        0.00000        0.00000
C          1.52930        0.00000        0.00000
H          1.90340        0.00000        1.07670
N          2.00960        1.30590       -0.64910
H          1.43010        2.09350       -0.32200
H          3.00410        1.53590       -0.39200
H          1.95630        1.28440       -1.68640
P          2.39070       -1.45840       -0.94310
O          2.71100       -0.99340       -2.30300
O          1.30630       -2.63450       -0.84200
C          3.68640       -2.14820        0.13290
C          5.10200       -1.49720        0.10060
H          5.67200       -1.97340        0.95540
C          5.02160       -0.01510        0.43030
O          4.07070        0.46210        1.03440
N          6.07000        0.81060        0.09390
C          6.07410        2.20230        0.54640
H          5.49290        2.28560        1.51890
C          7.50310        2.69150        0.74840
C          5.32020        3.04430       -0.48610
O          4.18730        2.86370       -0.87520
O          6.04680        4.07530       -0.92730
C          5.88670       -1.79560       -1.19390
C          5.94290       -3.27650       -1.43240
C          5.22450       -3.84800       -2.48280
C          5.24900       -5.22710       -2.67260
C          5.99630       -6.03990       -1.81660
C          6.73720       -5.46170       -0.78130
C          6.71250       -4.08450       -0.59160
C          6.00440       -7.49530       -2.00250
C          6.41970       -8.04280       -3.21850
C          6.42030       -9.42480       -3.39160
C          6.00860      -10.25960       -2.35380
C          5.59680       -9.71250       -1.13930
C          5.59460       -8.33140       -0.96070
H         -0.39710        0.82110        0.61690
H         -0.41450       -0.92470        0.45040
H         -0.46200        0.08360       -0.99600
H          0.75640       -2.65530       -1.70930
H          3.32210       -2.16400        1.20540
H          3.81020       -3.24890       -0.15980
H          6.87400        0.49500       -0.43200
H          8.09210        2.68740       -0.18040
H          8.03940        2.08300        1.49090
H          7.52190        3.73160        1.11480
H          5.57690        4.66200       -1.58680
H          5.43880       -1.27300       -2.06860
H          6.92190       -1.40220       -1.12410
H          4.64370       -3.22070       -3.16010
H          4.68090       -5.67690       -3.48770
H          7.34130       -6.09510       -0.13090
H          7.30140       -3.64200        0.20820
H          6.74860       -7.38940       -4.02470
H          6.74340       -9.85270       -4.34030
H          6.00960      -11.34050       -2.49060
H          5.27750      -10.36510       -0.32770
H          5.27100       -7.90310       -0.01490
