57
rmsd192.gzmat
C          0.00000        0.00000        0.00000
C          1.52900        0.00000        0.00000
H          1.90220        0.00000        1.08090
N          1.99950        1.31370       -0.63140
H          1.63540        1.44540       -1.61070
H          1.66310        2.11690       -0.08080
H          3.03260        1.38090       -0.69850
P          2.39280       -1.52560       -0.80980
O          2.74660       -2.52610        0.19600
O          3.65970       -0.69780       -1.39050
C          1.49170       -2.07620       -2.28740
C          1.82980       -1.45790       -3.66770
H          2.90660       -1.64490       -3.92600
C          1.51460        0.03110       -3.70220
O          0.65270        0.53450       -3.00210
N          2.22990        0.78170       -4.61290
C          1.93840        2.18070       -4.91190
H          2.49500        2.45280       -5.86320
C          0.45280        2.47580       -5.10880
C          2.44930        3.08000       -3.78500
O          2.47850        2.88010       -2.59360
O          2.90530        4.22830       -4.30530
C          0.94180       -2.12240       -4.74550
C          1.30650       -3.56650       -4.90860
C          2.45250       -3.91750       -5.62510
C          2.79700       -5.25740       -5.77300
C          1.99670       -6.25220       -5.20470
C          0.84820       -5.90040       -4.49250
C          0.50250       -4.55980       -4.34700
C          2.36220       -7.66570       -5.36190
C          2.90230       -8.36950       -4.28380
C          3.25600       -9.70770       -4.44060
C          3.06310      -10.34220       -5.66680
C          2.51750       -9.63910       -6.73970
C          2.16800       -8.29900       -6.59110
H         -0.39820        0.82880        0.60570
H         -0.43060       -0.91620        0.44590
H         -0.45010        0.09840       -1.00560
H          4.52890       -1.16330       -1.14120
H          1.66650       -3.20540       -2.37690
H          0.37760       -1.95730       -2.09900
H          2.97640        0.35970       -5.15430
H         -0.14310        2.29000       -4.20160
H          0.02220        1.84340       -5.89870
H          0.28540        3.52190       -5.40570
H          3.22970        4.89470       -3.63790
H         -0.13130       -2.00610       -4.48340
H          1.05140       -1.59300       -5.71600
H          3.07440       -3.14920       -6.07710
H          3.68920       -5.53750       -6.33440
H          0.22120       -6.68040       -4.05840
H         -0.40120       -4.29450       -3.80260
H          3.04780       -7.87290       -3.32700
H          3.68290      -10.25790       -3.60300
H          3.33840      -11.38970       -5.78670
H          2.36330      -10.13720       -7.69640
H          1.73950       -7.74750       -7.42600
