rmsd22.gzmat
 OpenBabel08211713363D

 57 57  0  0  1  0  0  0  0  0999 V2000
    0.0000    0.0000    0.0000 C   0  0  0  0  0  0  0  0  0  0  0  0
    1.5313    0.0000    0.0000 C   0  0  2  0  0  0  0  0  0  0  0  0
    1.9010    0.0000    1.0805 H   0  0  0  0  0  0  0  0  0  0  0  0
    2.0001    1.3066   -0.6381 N   0  0  0  0  0  0  0  0  0  0  0  0
    1.5196    1.4834   -1.5486 H   0  0  0  0  0  0  0  0  0  0  0  0
    1.8045    2.1041   -0.0167 H   0  0  0  0  0  0  0  0  0  0  0  0
    3.0280    1.3360   -0.8595 H   0  0  0  0  0  0  0  0  0  0  0  0
    2.3685   -1.5447   -0.8000 P   0  0  2  0  0  0  0  0  0  0  0  0
    2.1228   -2.7469   -0.0095 O   0  0  0  0  0  0  0  0  0  0  0  0
    3.8914   -1.0112   -0.7776 O   0  0  0  0  0  0  0  0  0  0  0  0
    2.0433   -1.5504   -2.5985 C   0  0  0  0  0  0  0  0  0  0  0  0
    3.2085   -1.0975   -3.5157 C   0  0  2  0  0  0  0  0  0  0  0  0
    4.1437   -1.6813   -3.2915 H   0  0  0  0  0  0  0  0  0  0  0  0
    3.4701    0.3994   -3.3747 C   0  0  0  0  0  0  0  0  0  0  0  0
    2.5758    1.2029   -3.1510 O   0  0  0  0  0  0  0  0  0  0  0  0
    4.7753    0.8096   -3.5104 N   0  0  0  0  0  0  0  0  0  0  0  0
    5.1596    2.2174   -3.5731 C   0  0  1  0  0  0  0  0  0  0  0  0
    6.2601    2.2630   -3.8471 H   0  0  0  0  0  0  0  0  0  0  0  0
    4.3598    3.0217   -4.5976 C   0  0  0  0  0  0  0  0  0  0  0  0
    4.9855    2.8781   -2.2066 C   0  0  0  0  0  0  0  0  0  0  0  0
    4.2789    2.5808   -1.2729 O   0  0  0  0  0  0  0  0  0  0  0  0
    5.7921    3.9508   -2.1355 O   0  0  0  0  0  0  0  0  0  0  0  0
    2.8234   -1.3567   -4.9904 C   0  0  0  0  0  0  0  0  0  0  0  0
    3.9530   -0.9513   -5.8885 C   0  0  0  0  0  0  0  0  0  0  0  0
    5.1590   -1.6564   -5.8485 C   0  0  0  0  0  0  0  0  0  0  0  0
    6.2433   -1.2239   -6.6029 C   0  0  0  0  0  0  0  0  0  0  0  0
    6.1271   -0.0902   -7.4140 C   0  0  0  0  0  0  0  0  0  0  0  0
    4.9043    0.5805   -7.4951 C   0  0  0  0  0  0  0  0  0  0  0  0
    3.8203    0.1508   -6.7340 C   0  0  0  0  0  0  0  0  0  0  0  0
    7.2885    0.3890   -8.1709 C   0  0  0  0  0  0  0  0  0  0  0  0
    7.2096    0.5517   -9.5559 C   0  0  0  0  0  0  0  0  0  0  0  0
    8.3231    0.9959  -10.2655 C   0  0  0  0  0  0  0  0  0  0  0  0
    9.5107    1.2850   -9.5953 C   0  0  0  0  0  0  0  0  0  0  0  0
    9.5877    1.1273   -8.2122 C   0  0  0  0  0  0  0  0  0  0  0  0
    8.4799    0.6774   -7.4987 C   0  0  0  0  0  0  0  0  0  0  0  0
   -0.3965    0.8362    0.5971 H   0  0  0  0  0  0  0  0  0  0  0  0
   -0.4214   -0.9122    0.4720 H   0  0  0  0  0  0  0  0  0  0  0  0
   -0.4620    0.0637   -0.9965 H   0  0  0  0  0  0  0  0  0  0  0  0
    4.4260   -1.4771   -0.0479 H   0  0  0  0  0  0  0  0  0  0  0  0
    1.7720   -2.6200   -2.8825 H   0  0  0  0  0  0  0  0  0  0  0  0
    1.1268   -0.9313   -2.8351 H   0  0  0  0  0  0  0  0  0  0  0  0
    5.4948    0.1396   -3.7721 H   0  0  0  0  0  0  0  0  0  0  0  0
    3.2866    3.0610   -4.3581 H   0  0  0  0  0  0  0  0  0  0  0  0
    4.4422    2.5735   -5.6005 H   0  0  0  0  0  0  0  0  0  0  0  0
    4.7247    4.0570   -4.6711 H   0  0  0  0  0  0  0  0  0  0  0  0
    5.7317    4.4634   -1.2836 H   0  0  0  0  0  0  0  0  0  0  0  0
    2.5837   -2.4323   -5.1379 H   0  0  0  0  0  0  0  0  0  0  0  0
    1.8895   -0.8135   -5.2453 H   0  0  0  0  0  0  0  0  0  0  0  0
    5.2491   -2.5542   -5.2384 H   0  0  0  0  0  0  0  0  0  0  0  0
    7.1848   -1.7752   -6.5779 H   0  0  0  0  0  0  0  0  0  0  0  0
    4.8021    1.4422   -8.1561 H   0  0  0  0  0  0  0  0  0  0  0  0
    2.8704    0.6796   -6.8015 H   0  0  0  0  0  0  0  0  0  0  0  0
    6.2826    0.3207  -10.0795 H   0  0  0  0  0  0  0  0  0  0  0  0
    8.2657    1.1148  -11.3478 H   0  0  0  0  0  0  0  0  0  0  0  0
   10.3810    1.6320  -10.1524 H   0  0  0  0  0  0  0  0  0  0  0  0
   10.5166    1.3516   -7.6891 H   0  0  0  0  0  0  0  0  0  0  0  0
    8.5412    0.5505   -6.4212 H   0  0  0  0  0  0  0  0  0  0  0  0
  1 37  1  0  0  0  0
  1 36  1  0  0  0  0
  2  1  1  0  0  0  0
  2  3  1  1  0  0  0
  4  6  1  0  0  0  0
  4  2  1  0  0  0  0
  5  4  1  0  0  0  0
  7  4  1  0  0  0  0
  8 10  1  0  0  0  0
  8  9  1  1  0  0  0
  8  2  1  0  0  0  0
 10 39  1  0  0  0  0
 12 14  1  0  0  0  0
 12 13  1  1  0  0  0
 12 11  1  0  0  0  0
 14 15  2  0  0  0  0
 16 14  1  0  0  0  0
 17 18  1  6  0  0  0
 17 16  1  0  0  0  0
 17 20  1  0  0  0  0
 19 43  1  0  0  0  0
 19 17  1  0  0  0  0
 20 22  1  0  0  0  0
 20 21  2  0  0  0  0
 22 46  1  0  0  0  0
 23 12  1  0  0  0  0
 24 25  1  0  0  0  0
 24 23  1  0  0  0  0
 25 49  1  0  0  0  0
 26 50  1  0  0  0  0
 26 25  2  0  0  0  0
 27 26  1  0  0  0  0
 28 27  2  0  0  0  0
 28 29  1  0  0  0  0
 29 24  2  0  0  0  0
 30 35  1  0  0  0  0
 30 27  1  0  0  0  0
 31 30  2  0  0  0  0
 32 33  2  0  0  0  0
 32 31  1  0  0  0  0
 33 34  1  0  0  0  0
 34 56  1  0  0  0  0
 34 35  2  0  0  0  0
 35 57  1  0  0  0  0
 38  1  1  0  0  0  0
 40 11  1  0  0  0  0
 41 11  1  0  0  0  0
 42 16  1  0  0  0  0
 44 19  1  0  0  0  0
 45 19  1  0  0  0  0
 47 23  1  0  0  0  0
 48 23  1  0  0  0  0
 51 28  1  0  0  0  0
 52 29  1  0  0  0  0
 53 31  1  0  0  0  0
 54 32  1  0  0  0  0
 55 33  1  0  0  0  0
M  RAD  2   9   2  11   2
M  END
$$$$
