57
rmsd64.gzmat
C          0.00000        0.00000        0.00000
C          1.52870        0.00000        0.00000
H          1.90340        0.00000        1.07600
N          2.01110        1.30520       -0.64900
H          1.95210        1.28510       -1.68640
H          1.43720        2.09490       -0.31720
H          3.00950        1.52770       -0.39980
P          2.39330       -1.45490       -0.94630
O          2.75830       -0.96870       -2.28820
O          1.28260       -2.61040       -0.90220
C          3.64690       -2.17530        0.16050
C          5.08360       -1.57220        0.13610
H          5.63000       -2.05950        0.99740
C          5.03950       -0.08170        0.44290
O          4.09090        0.43420        1.01720
N          6.11610        0.70600        0.10190
C          6.12490        2.12500        0.45870
H          5.52520        2.27910        1.41020
C          7.55330        2.61820        0.65260
C          5.39970        2.89500       -0.65020
O          4.23960        2.76540       -0.97390
O          6.18870        3.78900       -1.25320
C          5.87410       -1.88540       -1.15270
C          5.71720       -3.32240       -1.55630
C          6.25080       -4.33560       -0.75580
C          6.08830       -5.66790       -1.11970
C          5.39330       -5.99730       -2.28780
C          4.87330       -4.98160       -3.09410
C          5.03890       -3.64770       -2.73190
C          5.21710       -7.40330       -2.66800
C          4.63540       -8.30190       -1.76970
C          4.46360       -9.63480       -2.13510
C          4.87560      -10.07320       -3.39260
C          5.46140       -9.17810       -4.28640
C          5.63140       -7.84330       -3.92750
H         -0.39870        0.82000        0.61700
H         -0.41230       -0.92740        0.44750
H         -0.46130        0.08300       -0.99630
H          0.82310       -2.65940       -1.82060
H          3.26790       -2.15750        1.22780
H          3.73490       -3.28460       -0.10970
H          6.91340        0.35720       -0.41330
H          8.16140        2.53730       -0.26040
H          8.06920        2.06430        1.45060
H          7.57370        3.68350        0.93640
H          5.74100        4.31520       -1.97640
H          5.55650       -1.21700       -1.98410
H          6.95330       -1.67230       -0.99900
H          6.80450       -4.08830        0.14650
H          6.51300       -6.46040       -0.50280
H          4.33450       -5.23590       -4.00760
H          4.63440       -2.86170       -3.37150
H          4.31300       -7.95870       -0.78930
H          4.00880      -10.33490       -1.43540
H          4.74120      -11.11670       -3.67580
H          5.78950       -9.52200       -5.26710
H          6.09530       -7.14510       -4.62250
