rmsd199.gzmat
 OpenBabel08211713363D

 57 58  0  0  1  0  0  0  0  0999 V2000
    0.0000    0.0000    0.0000 C   0  0  0  0  0  0  0  0  0  0  0  0
    1.5296    0.0000    0.0000 C   0  0  2  0  0  0  0  0  0  0  0  0
    1.9020    0.0000    1.0785 H   0  0  0  0  0  0  0  0  0  0  0  0
    2.0083    1.3108   -0.6379 N   0  0  0  0  0  0  0  0  0  0  0  0
    1.5348    2.1076   -0.1882 H   0  0  0  0  0  0  0  0  0  0  0  0
    3.0490    1.4581   -0.5185 H   0  0  0  0  0  0  0  0  0  0  0  0
    1.8207    1.3552   -1.6571 H   0  0  0  0  0  0  0  0  0  0  0  0
    2.3895   -1.4574   -0.9349 P   0  0  2  0  0  0  0  0  0  0  0  0
    2.9317   -0.9597   -2.2060 O   0  0  0  0  0  0  0  0  0  0  0  0
    1.2170   -2.5419   -1.0737 O   0  0  0  0  0  0  0  0  0  0  0  0
    3.4733   -2.3714    0.2123 C   0  0  0  0  0  0  0  0  0  0  0  0
    4.3780   -1.5987    1.2103 C   0  0  2  0  0  0  0  0  0  0  0  0
    3.8094   -1.4450    2.1752 H   0  0  0  0  0  0  0  0  0  0  0  0
    4.7386   -0.1973    0.7298 C   0  0  0  0  0  0  0  0  0  0  0  0
    4.0331    0.7533    1.0540 O   0  0  0  0  0  0  0  0  0  0  0  0
    5.8102    0.0060   -0.0950 N   0  0  0  0  0  0  0  0  0  0  0  0
    6.2129    1.3719   -0.4406 C   0  0  1  0  0  0  0  0  0  0  0  0
    5.8788    2.0850    0.3765 H   0  0  0  0  0  0  0  0  0  0  0  0
    7.7218    1.4579   -0.6254 C   0  0  0  0  0  0  0  0  0  0  0  0
    5.4493    1.7517   -1.7140 C   0  0  0  0  0  0  0  0  0  0  0  0
    4.2893    2.0950   -1.7642 O   0  0  0  0  0  0  0  0  0  0  0  0
    6.2101    1.6865   -2.8106 O   0  0  0  0  0  0  0  0  0  0  0  0
    5.6192   -2.4527    1.5365 C   0  0  0  0  0  0  0  0  0  0  0  0
    6.6786   -1.6534    2.2356 C   0  0  0  0  0  0  0  0  0  0  0  0
    6.3688   -0.9070    3.3744 C   0  0  0  0  0  0  0  0  0  0  0  0
    7.3411   -0.1141    3.9748 C   0  0  0  0  0  0  0  0  0  0  0  0
    8.6362   -0.0757    3.4505 C   0  0  0  0  0  0  0  0  0  0  0  0
    8.9574   -0.8574    2.3383 C   0  0  0  0  0  0  0  0  0  0  0  0
    7.9815   -1.6436    1.7332 C   0  0  0  0  0  0  0  0  0  0  0  0
    9.6533    0.7805    4.0716 C   0  0  0  0  0  0  0  0  0  0  0  0
    9.4597    2.1633    4.1219 C   0  0  0  0  0  0  0  0  0  0  0  0
   10.4240    2.9758    4.7134 C   0  0  0  0  0  0  0  0  0  0  0  0
   11.5754    2.4102    5.2595 C   0  0  0  0  0  0  0  0  0  0  0  0
   11.7659    1.0301    5.2113 C   0  0  0  0  0  0  0  0  0  0  0  0
   10.8083    0.2130    4.6149 C   0  0  0  0  0  0  0  0  0  0  0  0
   -0.3970    0.8159    0.6243 H   0  0  0  0  0  0  0  0  0  0  0  0
   -0.4179   -0.9298    0.4354 H   0  0  0  0  0  0  0  0  0  0  0  0
   -0.4616    0.0946   -0.9951 H   0  0  0  0  0  0  0  0  0  0  0  0
    0.8115   -2.4875   -2.0139 H   0  0  0  0  0  0  0  0  0  0  0  0
    2.8391   -3.1039    0.8091 H   0  0  0  0  0  0  0  0  0  0  0  0
    4.1219   -3.0342   -0.4530 H   0  0  0  0  0  0  0  0  0  0  0  0
    6.4299   -0.7444   -0.3742 H   0  0  0  0  0  0  0  0  0  0  0  0
    8.0875    0.8227   -1.4464 H   0  0  0  0  0  0  0  0  0  0  0  0
    8.2575    1.1612    0.2907 H   0  0  0  0  0  0  0  0  0  0  0  0
    8.0397    2.4851   -0.8639 H   0  0  0  0  0  0  0  0  0  0  0  0
    5.7249    1.9000   -3.6584 H   0  0  0  0  0  0  0  0  0  0  0  0
    5.3188   -3.3108    2.1811 H   0  0  0  0  0  0  0  0  0  0  0  0
    6.0250   -2.9250    0.6177 H   0  0  0  0  0  0  0  0  0  0  0  0
    5.3669   -0.9381    3.7982 H   0  0  0  0  0  0  0  0  0  0  0  0
    7.0987    0.4754    4.8606 H   0  0  0  0  0  0  0  0  0  0  0  0
    9.9766   -0.8505    1.9487 H   0  0  0  0  0  0  0  0  0  0  0  0
    8.2473   -2.2590    0.8755 H   0  0  0  0  0  0  0  0  0  0  0  0
    8.5594    2.6027    3.6995 H   0  0  0  0  0  0  0  0  0  0  0  0
   10.2763    4.0541    4.7513 H   0  0  0  0  0  0  0  0  0  0  0  0
   12.3262    3.0478    5.7260 H   0  0  0  0  0  0  0  0  0  0  0  0
   12.6641    0.5882    5.6425 H   0  0  0  0  0  0  0  0  0  0  0  0
   10.9523   -0.8660    4.5807 H   0  0  0  0  0  0  0  0  0  0  0  0
  1  2  1  0  0  0  0
  1 37  1  0  0  0  0
  1 36  1  0  0  0  0
  2  3  1  1  0  0  0
  4  6  1  0  0  0  0
  4  5  1  0  0  0  0
  4  2  1  0  0  0  0
  7  4  1  0  0  0  0
  8  9  2  6  0  0  0
  8  2  1  0  0  0  0
  8 11  1  0  0  0  0
 10  8  1  0  0  0  0
 11 40  1  0  0  0  0
 11 12  1  0  0  0  0
 12 23  1  0  0  0  0
 12 13  1  1  0  0  0
 14 15  2  0  0  0  0
 14 12  1  0  0  0  0
 16 14  1  0  0  0  0
 17 16  1  0  0  0  0
 17 18  1  1  0  0  0
 19 17  1  0  0  0  0
 19 44  1  0  0  0  0
 20 17  1  0  0  0  0
 21 20  2  0  0  0  0
 22 20  1  0  0  0  0
 23 47  1  0  0  0  0
 23 24  1  0  0  0  0
 24 25  1  0  0  0  0
 25 49  1  0  0  0  0
 25 26  2  0  0  0  0
 26 50  1  0  0  0  0
 27 26  1  0  0  0  0
 27 30  1  0  0  0  0
 28 27  2  0  0  0  0
 29 24  2  0  0  0  0
 29 28  1  0  0  0  0
 30 31  2  0  0  0  0
 30 35  1  0  0  0  0
 31 32  1  0  0  0  0
 32 54  1  0  0  0  0
 32 33  2  0  0  0  0
 33 55  1  0  0  0  0
 34 33  1  0  0  0  0
 34 56  1  0  0  0  0
 35 34  2  0  0  0  0
 38  1  1  0  0  0  0
 39 10  1  0  0  0  0
 41 11  1  0  0  0  0
 42 16  1  0  0  0  0
 43 19  1  0  0  0  0
 45 19  1  0  0  0  0
 46 22  1  0  0  0  0
 48 23  1  0  0  0  0
 51 28  1  0  0  0  0
 52 29  1  0  0  0  0
 53 31  1  0  0  0  0
 57 35  1  0  0  0  0
M  END
$$$$
