48
rmsd123.gzmat
N          0.00000        0.00000        0.00000
C          1.32920        0.00000        0.00000
C          2.07370        0.00000        1.22150
C          1.41500        0.04260        2.42580
C         -0.01320        0.07820        2.44000
C         -0.79250        0.13400        3.62400
C         -2.16290        0.13360        3.55780
C         -2.82540        0.07840        2.30530
C         -2.10760        0.03330        1.14000
C         -0.68170        0.03850        1.19070
C          2.17830        0.03900        3.70350
C          2.04650       -0.01060       -1.28760
C          1.62150       -0.73340       -2.42950
C          2.43330       -0.75240       -3.57930
C          3.61670       -0.03290       -3.61340
C          4.01290        0.72950       -2.51220
C          3.23050        0.73510       -1.36670
N          0.38030       -1.38890       -2.40650
C         -0.01070       -2.43550       -3.24140
O          0.70930       -2.88060       -4.10820
C         -1.36330       -2.97900       -2.95670
C         -2.43140       -2.16350       -2.56460
C         -3.67070       -2.72220       -2.29830
C         -3.83190       -4.11270       -2.43800
C         -2.78200       -4.93590       -2.84910
C         -1.54490       -4.35390       -3.11240
O         -5.08680       -4.52740       -2.13570
C         -5.36510       -5.91640       -2.25360
H          3.15820       -0.05710        1.17580
H         -0.28690        0.17710        4.58780
H         -2.76210        0.17440        4.46550
H         -3.91520        0.07300        2.28790
H         -2.59130       -0.00470        0.16390
H          3.26570       -0.01550        3.54790
H          1.90420       -0.82190        4.33320
H          1.98510        0.95040        4.29030
H          2.12680       -1.33050       -4.45490
H          4.23790       -0.05410       -4.50870
H          4.92780        1.31350       -2.55310
H          3.54110        1.33960       -0.51270
H         -0.25630       -1.10230       -1.64950
H         -2.29760       -1.08210       -2.47220
H         -4.51400       -2.11190       -1.98630
H         -2.91330       -6.00530       -2.96750
H         -0.70800       -4.97500       -3.44710
H         -6.41810       -5.96790       -1.94320
H         -4.73710       -6.50160       -1.57450
H         -5.25500       -6.24970       -3.29040
