rmsd95.gzmat
 OpenBabel08211713413D

 48 51  0  0  1  0  0  0  0  0999 V2000
    0.0000    0.0000    0.0000 N   0  0  0  0  0  0  0  0  0  0  0  0
    1.3289    0.0000    0.0000 C   0  0  0  0  0  0  0  0  0  0  0  0
    2.0749    0.0000    1.2202 C   0  0  0  0  0  0  0  0  0  0  0  0
    1.4160   -0.0274    2.4251 C   0  0  0  0  0  0  0  0  0  0  0  0
   -0.0125   -0.0476    2.4402 C   0  0  1  0  0  0  0  0  0  0  0  0
   -0.7929   -0.0740    3.6245 C   0  0  0  0  0  0  0  0  0  0  0  0
   -2.1632   -0.0740    3.5578 C   0  0  0  0  0  0  0  0  0  0  0  0
   -2.8249   -0.0472    2.3041 C   0  0  0  0  0  0  0  0  0  0  0  0
   -2.1066   -0.0211    1.1386 C   0  0  0  0  0  0  0  0  0  0  0  0
   -0.6814   -0.0249    1.1910 C   0  0  0  0  0  0  0  0  0  0  0  0
    2.1787   -0.0296    3.7034 C   0  0  0  0  0  0  0  0  0  0  0  0
    2.0401    0.0110   -1.2910 C   0  0  0  0  0  0  0  0  0  0  0  0
    1.6118    0.7511   -2.4190 C   0  0  0  0  0  0  0  0  0  0  0  0
    2.4028    0.7695   -3.5824 C   0  0  0  0  0  0  0  0  0  0  0  0
    3.5753    0.0334   -3.6400 C   0  0  0  0  0  0  0  0  0  0  0  0
    3.9787   -0.7394   -2.5488 C   0  0  0  0  0  0  0  0  0  0  0  0
    3.2142   -0.7460   -1.3907 C   0  0  0  0  0  0  0  0  0  0  0  0
    0.3811    1.4277   -2.3765 N   0  0  0  0  0  0  0  0  0  0  0  0
    0.0595    2.5672   -3.1135 C   0  0  0  0  0  0  0  0  0  0  0  0
    0.8135    3.0563   -3.9239 O   0  0  0  0  0  0  0  0  0  0  0  0
   -1.2748    3.1288   -2.7803 C   0  0  0  0  0  0  0  0  0  0  0  0
   -2.4167    2.3210   -2.7512 C   0  0  0  0  0  0  0  0  0  0  0  0
   -3.6446    2.8707   -2.4216 C   0  0  0  0  0  0  0  0  0  0  0  0
   -3.7132    4.2437   -2.1234 C   0  0  0  0  0  0  0  0  0  0  0  0
   -2.5835    5.0627   -2.1629 C   0  0  0  0  0  0  0  0  0  0  0  0
   -1.3594    4.4919   -2.5017 C   0  0  0  0  0  0  0  0  0  0  0  0
   -4.9694    4.6473   -1.8100 O   0  0  0  0  0  0  0  0  0  0  0  0
   -5.1512    6.0141   -1.4645 C   0  0  0  0  0  0  0  0  0  0  0  0
    3.1602    0.0420    1.1731 H   0  0  0  0  0  0  0  0  0  0  0  0
   -0.2888   -0.0923    4.5894 H   0  0  0  0  0  0  0  0  0  0  0  0
   -2.7626   -0.0937    4.4663 H   0  0  0  0  0  0  0  0  0  0  0  0
   -3.9144   -0.0483    2.2861 H   0  0  0  0  0  0  0  0  0  0  0  0
   -2.5876   -0.0002    0.1605 H   0  0  0  0  0  0  0  0  0  0  0  0
    3.2670    0.0131    3.5503 H   0  0  0  0  0  0  0  0  0  0  0  0
    1.9754   -0.9392    4.2898 H   0  0  0  0  0  0  0  0  0  0  0  0
    1.9119    0.8338    4.3328 H   0  0  0  0  0  0  0  0  0  0  0  0
    2.0877    1.3598   -4.4464 H   0  0  0  0  0  0  0  0  0  0  0  0
    4.1814    0.0498   -4.5456 H   0  0  0  0  0  0  0  0  0  0  0  0
    4.8867   -1.3323   -2.6089 H   0  0  0  0  0  0  0  0  0  0  0  0
    3.5302   -1.3590   -0.5453 H   0  0  0  0  0  0  0  0  0  0  0  0
   -0.2789    1.1062   -1.6541 H   0  0  0  0  0  0  0  0  0  0  0  0
   -2.3435    1.2575   -2.9919 H   0  0  0  0  0  0  0  0  0  0  0  0
   -4.5484    2.2685   -2.3892 H   0  0  0  0  0  0  0  0  0  0  0  0
   -2.6425    6.1215   -1.9390 H   0  0  0  0  0  0  0  0  0  0  0  0
   -0.4601    5.1122   -2.5466 H   0  0  0  0  0  0  0  0  0  0  0  0
   -6.2297    6.0587   -1.2585 H   0  0  0  0  0  0  0  0  0  0  0  0
   -4.8954    6.6664   -2.3052 H   0  0  0  0  0  0  0  0  0  0  0  0
   -4.5797    6.2690   -0.5664 H   0  0  0  0  0  0  0  0  0  0  0  0
  1  2  2  0  0  0  0
  1 10  2  0  0  0  0
  2  3  1  0  0  0  0
  3  4  2  0  0  0  0
  4 11  1  0  0  0  0
  5  4  1  1  0  0  0
  5 10  1  0  0  0  0
  5  6  1  0  0  0  0
  6 30  1  0  0  0  0
  7  6  2  0  0  0  0
  7 31  1  0  0  0  0
  8  7  1  0  0  0  0
  9 10  1  0  0  0  0
  9  8  2  0  0  0  0
 11 35  1  0  0  0  0
 11 36  1  0  0  0  0
 12  2  1  0  0  0  0
 13 18  1  0  0  0  0
 13 12  2  0  0  0  0
 14 13  1  0  0  0  0
 15 14  2  0  0  0  0
 15 16  1  0  0  0  0
 16 17  2  0  0  0  0
 17 12  1  0  0  0  0
 17 40  1  0  0  0  0
 18 41  1  0  0  0  0
 19 21  1  0  0  0  0
 19 18  1  0  0  0  0
 20 19  2  0  0  0  0
 21 22  2  0  0  0  0
 21 26  1  0  0  0  0
 22 23  1  0  0  0  0
 23 43  1  0  0  0  0
 23 24  2  0  0  0  0
 24 27  1  0  0  0  0
 25 24  1  0  0  0  0
 25 44  1  0  0  0  0
 26 25  2  0  0  0  0
 27 28  1  0  0  0  0
 28 46  1  0  0  0  0
 28 48  1  0  0  0  0
 29  3  1  0  0  0  0
 32  8  1  0  0  0  0
 33  9  1  0  0  0  0
 34 11  1  0  0  0  0
 37 14  1  0  0  0  0
 38 15  1  0  0  0  0
 39 16  1  0  0  0  0
 42 22  1  0  0  0  0
 45 26  1  0  0  0  0
 47 28  1  0  0  0  0
M  RAD  1   5   2
M  END
$$$$
