48
rmsd190.gzmat
N          0.00000        0.00000        0.00000
C          1.32880        0.00000        0.00000
C          2.07610        0.00000        1.22000
C          1.41810        0.02560        2.42520
C         -0.01060        0.04880        2.44060
C         -0.79000        0.07940        3.62550
C         -2.16030        0.07390        3.55920
C         -2.82350        0.03760        2.30640
C         -2.10590        0.01280        1.14040
C         -0.68060        0.02310        1.19160
C          2.17870        0.01210        3.70480
C          2.04150       -0.01780       -1.28980
C          1.61400       -0.76330       -2.41440
C          2.41970       -0.80720       -3.56750
C          3.59800       -0.08090       -3.62390
C          3.99360        0.70810       -2.54150
C          3.22030        0.73300       -1.38970
N          0.36720       -1.41220       -2.38900
C          0.04220       -2.55490       -3.12010
O          0.82340       -3.08680       -3.87680
C         -1.33300       -3.05960       -2.87500
C         -2.43850       -2.20220       -2.90770
C         -3.71070       -2.70400       -2.68780
C         -3.86130       -4.07950       -2.43390
C         -2.76830       -4.94750       -2.41130
C         -1.49830       -4.42410       -2.64190
O         -5.15440       -4.43380       -2.22950
C         -5.42340       -5.80040       -1.94620
H          3.16150       -0.04290        1.17080
H         -0.28470        0.10620        4.58990
H         -2.75930        0.09620        4.46750
H         -3.91310        0.03020        2.28930
H         -2.58890       -0.01470        0.16330
H          3.26780        0.01520        3.55360
H          1.94200       -0.88570        4.29840
H          1.94110        0.88960        4.32610
H          2.11170       -1.40990       -4.42500
H          4.21430       -0.11670       -4.52180
H          4.90340        1.29760       -2.60430
H          3.53400        1.35590       -0.55010
H         -0.29920       -1.06880       -1.68290
H         -2.30160       -1.13780       -3.11390
H         -4.58820       -2.06350       -2.71030
H         -2.89120       -6.00790       -2.22380
H         -0.62620       -5.08390       -2.64310
H         -6.51680       -5.80300       -1.83470
H         -4.94190       -6.10600       -1.01190
H         -5.12490       -6.44070       -2.78210
