rmsd123.gzmat
 OpenBabel08211713413D

 48 51  0  0  1  0  0  0  0  0999 V2000
    0.0000    0.0000    0.0000 N   0  0  0  0  0  0  0  0  0  0  0  0
    1.3292    0.0000    0.0000 C   0  0  0  0  0  0  0  0  0  0  0  0
    2.0737    0.0000    1.2215 C   0  0  0  0  0  0  0  0  0  0  0  0
    1.4150    0.0426    2.4258 C   0  0  0  0  0  0  0  0  0  0  0  0
   -0.0132    0.0782    2.4400 C   0  0  2  0  0  0  0  0  0  0  0  0
   -0.7925    0.1340    3.6240 C   0  0  0  0  0  0  0  0  0  0  0  0
   -2.1629    0.1336    3.5578 C   0  0  0  0  0  0  0  0  0  0  0  0
   -2.8254    0.0784    2.3053 C   0  0  0  0  0  0  0  0  0  0  0  0
   -2.1076    0.0333    1.1400 C   0  0  0  0  0  0  0  0  0  0  0  0
   -0.6817    0.0385    1.1907 C   0  0  0  0  0  0  0  0  0  0  0  0
    2.1783    0.0390    3.7035 C   0  0  0  0  0  0  0  0  0  0  0  0
    2.0465   -0.0106   -1.2876 C   0  0  0  0  0  0  0  0  0  0  0  0
    1.6215   -0.7334   -2.4295 C   0  0  0  0  0  0  0  0  0  0  0  0
    2.4333   -0.7524   -3.5793 C   0  0  0  0  0  0  0  0  0  0  0  0
    3.6167   -0.0329   -3.6134 C   0  0  0  0  0  0  0  0  0  0  0  0
    4.0129    0.7295   -2.5122 C   0  0  0  0  0  0  0  0  0  0  0  0
    3.2305    0.7351   -1.3667 C   0  0  0  0  0  0  0  0  0  0  0  0
    0.3803   -1.3889   -2.4065 N   0  0  0  0  0  0  0  0  0  0  0  0
   -0.0107   -2.4355   -3.2414 C   0  0  0  0  0  0  0  0  0  0  0  0
    0.7093   -2.8806   -4.1082 O   0  0  0  0  0  0  0  0  0  0  0  0
   -1.3633   -2.9790   -2.9567 C   0  0  0  0  0  0  0  0  0  0  0  0
   -2.4314   -2.1635   -2.5646 C   0  0  0  0  0  0  0  0  0  0  0  0
   -3.6707   -2.7222   -2.2983 C   0  0  0  0  0  0  0  0  0  0  0  0
   -3.8319   -4.1127   -2.4380 C   0  0  0  0  0  0  0  0  0  0  0  0
   -2.7820   -4.9359   -2.8491 C   0  0  0  0  0  0  0  0  0  0  0  0
   -1.5449   -4.3539   -3.1124 C   0  0  0  0  0  0  0  0  0  0  0  0
   -5.0868   -4.5274   -2.1357 O   0  0  0  0  0  0  0  0  0  0  0  0
   -5.3651   -5.9164   -2.2536 C   0  0  0  0  0  0  0  0  0  0  0  0
    3.1582   -0.0571    1.1758 H   0  0  0  0  0  0  0  0  0  0  0  0
   -0.2869    0.1771    4.5878 H   0  0  0  0  0  0  0  0  0  0  0  0
   -2.7621    0.1744    4.4655 H   0  0  0  0  0  0  0  0  0  0  0  0
   -3.9152    0.0730    2.2879 H   0  0  0  0  0  0  0  0  0  0  0  0
   -2.5913   -0.0047    0.1639 H   0  0  0  0  0  0  0  0  0  0  0  0
    3.2657   -0.0155    3.5479 H   0  0  0  0  0  0  0  0  0  0  0  0
    1.9042   -0.8219    4.3332 H   0  0  0  0  0  0  0  0  0  0  0  0
    1.9851    0.9504    4.2903 H   0  0  0  0  0  0  0  0  0  0  0  0
    2.1268   -1.3305   -4.4549 H   0  0  0  0  0  0  0  0  0  0  0  0
    4.2379   -0.0541   -4.5087 H   0  0  0  0  0  0  0  0  0  0  0  0
    4.9278    1.3135   -2.5531 H   0  0  0  0  0  0  0  0  0  0  0  0
    3.5411    1.3396   -0.5127 H   0  0  0  0  0  0  0  0  0  0  0  0
   -0.2563   -1.1023   -1.6495 H   0  0  0  0  0  0  0  0  0  0  0  0
   -2.2976   -1.0821   -2.4722 H   0  0  0  0  0  0  0  0  0  0  0  0
   -4.5140   -2.1119   -1.9863 H   0  0  0  0  0  0  0  0  0  0  0  0
   -2.9133   -6.0053   -2.9675 H   0  0  0  0  0  0  0  0  0  0  0  0
   -0.7080   -4.9750   -3.4471 H   0  0  0  0  0  0  0  0  0  0  0  0
   -6.4181   -5.9679   -1.9432 H   0  0  0  0  0  0  0  0  0  0  0  0
   -4.7371   -6.5016   -1.5745 H   0  0  0  0  0  0  0  0  0  0  0  0
   -5.2550   -6.2497   -3.2904 H   0  0  0  0  0  0  0  0  0  0  0  0
  1 10  2  0  0  0  0
  2  1  2  0  0  0  0
  2  3  1  0  0  0  0
  3  4  2  0  0  0  0
  4 11  1  0  0  0  0
  5  4  1  1  0  0  0
  5 10  1  0  0  0  0
  5  6  1  0  0  0  0
  6 30  1  0  0  0  0
  7  6  2  0  0  0  0
  7 31  1  0  0  0  0
  8  7  1  0  0  0  0
  9 10  1  0  0  0  0
  9  8  2  0  0  0  0
 11 36  1  0  0  0  0
 11 35  1  0  0  0  0
 12  2  1  0  0  0  0
 13 18  1  0  0  0  0
 13 12  2  0  0  0  0
 14 13  1  0  0  0  0
 15 14  2  0  0  0  0
 15 16  1  0  0  0  0
 16 17  2  0  0  0  0
 17 12  1  0  0  0  0
 17 40  1  0  0  0  0
 18 41  1  0  0  0  0
 19 21  1  0  0  0  0
 19 18  1  0  0  0  0
 20 19  2  0  0  0  0
 21 22  1  0  0  0  0
 22 42  1  0  0  0  0
 22 23  2  0  0  0  0
 23 43  1  0  0  0  0
 24 23  1  0  0  0  0
 24 27  1  0  0  0  0
 25 24  2  0  0  0  0
 26 21  2  0  0  0  0
 26 25  1  0  0  0  0
 28 27  1  0  0  0  0
 28 46  1  0  0  0  0
 28 47  1  0  0  0  0
 29  3  1  0  0  0  0
 32  8  1  0  0  0  0
 33  9  1  0  0  0  0
 34 11  1  0  0  0  0
 37 14  1  0  0  0  0
 38 15  1  0  0  0  0
 39 16  1  0  0  0  0
 44 25  1  0  0  0  0
 45 26  1  0  0  0  0
 48 28  1  0  0  0  0
M  RAD  1   5   2
M  END
$$$$
