rmsd189.gzmat
 OpenBabel08211713413D

 48 51  0  0  1  0  0  0  0  0999 V2000
    0.0000    0.0000    0.0000 N   0  0  0  0  0  0  0  0  0  0  0  0
    1.3284    0.0000    0.0000 C   0  0  0  0  0  0  0  0  0  0  0  0
    2.0785    0.0000    1.2178 C   0  0  0  0  0  0  0  0  0  0  0  0
    1.4230    0.0218    2.4244 C   0  0  0  0  0  0  0  0  0  0  0  0
   -0.0056    0.0462    2.4420 C   0  0  2  0  0  0  0  0  0  0  0  0
   -0.7824    0.0737    3.6288 C   0  0  0  0  0  0  0  0  0  0  0  0
   -2.1528    0.0778    3.5655 C   0  0  0  0  0  0  0  0  0  0  0  0
   -2.8179    0.0549    2.3135 C   0  0  0  0  0  0  0  0  0  0  0  0
   -2.1028    0.0314    1.1459 C   0  0  0  0  0  0  0  0  0  0  0  0
   -0.6774    0.0279    1.1941 C   0  0  0  0  0  0  0  0  0  0  0  0
    2.1874    0.0050    3.7014 C   0  0  0  0  0  0  0  0  0  0  0  0
    2.0433   -0.0187   -1.2885 C   0  0  0  0  0  0  0  0  0  0  0  0
    1.6464   -0.8060   -2.3946 C   0  0  0  0  0  0  0  0  0  0  0  0
    2.4609   -0.8531   -3.5409 C   0  0  0  0  0  0  0  0  0  0  0  0
    3.6153   -0.0892   -3.6087 C   0  0  0  0  0  0  0  0  0  0  0  0
    3.9773    0.7414   -2.5457 C   0  0  0  0  0  0  0  0  0  0  0  0
    3.1946    0.7702   -1.4000 C   0  0  0  0  0  0  0  0  0  0  0  0
    0.4228   -1.4972   -2.3524 N   0  0  0  0  0  0  0  0  0  0  0  0
    0.1404   -2.6722   -3.0488 C   0  0  0  0  0  0  0  0  0  0  0  0
    0.9388   -3.1929   -3.7955 O   0  0  0  0  0  0  0  0  0  0  0  0
   -1.2078   -3.2311   -2.7750 C   0  0  0  0  0  0  0  0  0  0  0  0
   -2.3511   -2.4248   -2.7929 C   0  0  0  0  0  0  0  0  0  0  0  0
   -3.5944   -2.9814   -2.5416 C   0  0  0  0  0  0  0  0  0  0  0  0
   -3.6769   -4.3590   -2.2688 C   0  0  0  0  0  0  0  0  0  0  0  0
   -2.5455   -5.1767   -2.2602 C   0  0  0  0  0  0  0  0  0  0  0  0
   -1.3060   -4.5992   -2.5236 C   0  0  0  0  0  0  0  0  0  0  0  0
   -4.9472   -4.7682   -2.0284 O   0  0  0  0  0  0  0  0  0  0  0  0
   -5.1506   -6.1462   -1.7444 C   0  0  0  0  0  0  0  0  0  0  0  0
    3.1638   -0.0400    1.1663 H   0  0  0  0  0  0  0  0  0  0  0  0
   -0.2761    0.0895    4.5930 H   0  0  0  0  0  0  0  0  0  0  0  0
   -2.7503    0.0978    4.4753 H   0  0  0  0  0  0  0  0  0  0  0  0
   -3.9075    0.0559    2.2985 H   0  0  0  0  0  0  0  0  0  0  0  0
   -2.5871    0.0186    0.1694 H   0  0  0  0  0  0  0  0  0  0  0  0
    3.2749    0.0607    3.5478 H   0  0  0  0  0  0  0  0  0  0  0  0
    1.9932   -0.9196    4.2686 H   0  0  0  0  0  0  0  0  0  0  0  0
    1.9130    0.8511    4.3498 H   0  0  0  0  0  0  0  0  0  0  0  0
    2.1792   -1.4900   -4.3827 H   0  0  0  0  0  0  0  0  0  0  0  0
    4.2395   -0.1308   -4.5011 H   0  0  0  0  0  0  0  0  0  0  0  0
    4.8687    1.3588   -2.6133 H   0  0  0  0  0  0  0  0  0  0  0  0
    3.4793    1.4231   -0.5734 H   0  0  0  0  0  0  0  0  0  0  0  0
   -0.2581   -1.1535   -1.6613 H   0  0  0  0  0  0  0  0  0  0  0  0
   -2.2677   -1.3572   -3.0114 H   0  0  0  0  0  0  0  0  0  0  0  0
   -4.4998   -2.3808   -2.5535 H   0  0  0  0  0  0  0  0  0  0  0  0
   -2.6156   -6.2394   -2.0590 H   0  0  0  0  0  0  0  0  0  0  0  0
   -0.4048   -5.2187   -2.5359 H   0  0  0  0  0  0  0  0  0  0  0  0
   -6.2378   -6.1921   -1.5902 H   0  0  0  0  0  0  0  0  0  0  0  0
   -4.6224   -6.4398   -0.8317 H   0  0  0  0  0  0  0  0  0  0  0  0
   -4.8584   -6.7677   -2.5967 H   0  0  0  0  0  0  0  0  0  0  0  0
  1 10  2  0  0  0  0
  2  1  2  0  0  0  0
  2  3  1  0  0  0  0
  3  4  2  0  0  0  0
  4 11  1  0  0  0  0
  5  4  1  1  0  0  0
  5 10  1  0  0  0  0
  5  6  1  0  0  0  0
  6 30  1  0  0  0  0
  7  6  2  0  0  0  0
  7 31  1  0  0  0  0
  8  7  1  0  0  0  0
  9 10  1  0  0  0  0
  9  8  2  0  0  0  0
 11 35  1  0  0  0  0
 11 36  1  0  0  0  0
 12  2  1  0  0  0  0
 13 18  1  0  0  0  0
 13 12  2  0  0  0  0
 14 13  1  0  0  0  0
 15 14  2  0  0  0  0
 15 16  1  0  0  0  0
 16 17  2  0  0  0  0
 17 12  1  0  0  0  0
 17 40  1  0  0  0  0
 18 41  1  0  0  0  0
 19 21  1  0  0  0  0
 19 18  1  0  0  0  0
 20 19  2  0  0  0  0
 21 26  1  0  0  0  0
 22 21  2  0  0  0  0
 22 23  1  0  0  0  0
 23 24  2  0  0  0  0
 24 25  1  0  0  0  0
 24 27  1  0  0  0  0
 25 44  1  0  0  0  0
 26 25  2  0  0  0  0
 27 28  1  0  0  0  0
 28 46  1  0  0  0  0
 28 47  1  0  0  0  0
 29  3  1  0  0  0  0
 32  8  1  0  0  0  0
 33  9  1  0  0  0  0
 34 11  1  0  0  0  0
 37 14  1  0  0  0  0
 38 15  1  0  0  0  0
 39 16  1  0  0  0  0
 42 22  1  0  0  0  0
 43 23  1  0  0  0  0
 45 26  1  0  0  0  0
 48 28  1  0  0  0  0
M  RAD  1   5   2
M  END
$$$$
