48
rmsd95.gzmat
N          0.00000        0.00000        0.00000
C          1.32890        0.00000        0.00000
C          2.07490        0.00000        1.22020
C          1.41600       -0.02740        2.42510
C         -0.01250       -0.04760        2.44020
C         -0.79290       -0.07400        3.62450
C         -2.16320       -0.07400        3.55780
C         -2.82490       -0.04720        2.30410
C         -2.10660       -0.02110        1.13860
C         -0.68140       -0.02490        1.19100
C          2.17870       -0.02960        3.70340
C          2.04010        0.01100       -1.29100
C          1.61180        0.75110       -2.41900
C          2.40280        0.76950       -3.58240
C          3.57530        0.03340       -3.64000
C          3.97870       -0.73940       -2.54880
C          3.21420       -0.74600       -1.39070
N          0.38110        1.42770       -2.37650
C          0.05950        2.56720       -3.11350
O          0.81350        3.05630       -3.92390
C         -1.27480        3.12880       -2.78030
C         -2.41670        2.32100       -2.75120
C         -3.64460        2.87070       -2.42160
C         -3.71320        4.24370       -2.12340
C         -2.58350        5.06270       -2.16290
C         -1.35940        4.49190       -2.50170
O         -4.96940        4.64730       -1.81000
C         -5.15120        6.01410       -1.46450
H          3.16020        0.04200        1.17310
H         -0.28880       -0.09230        4.58940
H         -2.76260       -0.09370        4.46630
H         -3.91440       -0.04830        2.28610
H         -2.58760       -0.00020        0.16050
H          3.26700        0.01310        3.55030
H          1.97540       -0.93920        4.28980
H          1.91190        0.83380        4.33280
H          2.08770        1.35980       -4.44640
H          4.18140        0.04980       -4.54560
H          4.88670       -1.33230       -2.60890
H          3.53020       -1.35900       -0.54530
H         -0.27890        1.10620       -1.65410
H         -2.34350        1.25750       -2.99190
H         -4.54840        2.26850       -2.38920
H         -2.64250        6.12150       -1.93900
H         -0.46010        5.11220       -2.54660
H         -6.22970        6.05870       -1.25850
H         -4.89540        6.66640       -2.30520
H         -4.57970        6.26900       -0.56640
