rmsd238.gzmat
 OpenBabel08211713363D

 54 56  0  0  1  0  0  0  0  0999 V2000
    0.0000    0.0000    0.0000 N   0  0  0  0  0  0  0  0  0  0  0  0
    1.3100    0.0000    0.0000 C   0  0  0  0  0  0  0  0  0  0  0  0
    2.0610    0.0000    1.2899 C   0  0  0  0  0  0  0  0  0  0  0  0
    2.0694    0.0029   -1.1739 N   0  0  0  0  0  0  0  0  0  0  0  0
    3.0851    0.0139   -1.1370 H   0  0  0  0  0  0  0  0  0  0  0  0
    1.4506   -0.0086   -2.4530 C   0  0  0  0  0  0  0  0  0  0  0  0
    2.1718   -0.0018   -3.4242 O   0  0  0  0  0  0  0  0  0  0  0  0
   -0.0084   -0.0215   -2.4415 C   0  0  2  0  0  0  0  0  0  0  0  0
   -0.7252   -0.0403   -3.6446 C   0  0  0  0  0  0  0  0  0  0  0  0
   -2.1094   -0.0305   -3.6174 C   0  0  0  0  0  0  0  0  0  0  0  0
   -2.7925   -0.0096   -2.3858 C   0  0  0  0  0  0  0  0  0  0  0  0
   -2.1015    0.0042   -1.1911 C   0  0  0  0  0  0  0  0  0  0  0  0
   -0.6902   -0.0042   -1.2086 C   0  0  0  0  0  0  0  0  0  0  0  0
   -2.8886    0.0062   -4.9047 C   0  0  0  0  0  0  0  0  0  0  0  0
   -3.1627    1.3933   -5.3469 N   0  0  0  0  0  0  0  0  0  0  0  0
   -4.0708    2.1004   -4.5939 C   0  0  0  0  0  0  0  0  0  0  0  0
   -3.9428    3.8496   -4.2945 S   0  0  0  0  0  0  0  0  0  0  0  0
   -5.4641    3.8779   -3.4481 C   0  0  0  0  0  0  0  0  0  0  0  0
   -6.0107    2.6231   -3.3823 C   0  0  0  0  0  0  0  0  0  0  0  0
   -5.2392    1.6202   -4.0299 C   0  0  0  0  0  0  0  0  0  0  0  0
   -6.0424    5.0612   -2.8242 C   0  0  0  0  0  0  0  0  0  0  0  0
   -6.6643    5.0362   -1.7795 O   0  0  0  0  0  0  0  0  0  0  0  0
   -5.8202    6.2763   -3.4668 N   0  0  0  0  0  0  0  0  0  0  0  0
   -6.3509    7.5026   -2.8913 C   0  0  1  0  0  0  0  0  0  0  0  0
   -6.8386    7.2727   -1.8920 H   0  0  0  0  0  0  0  0  0  0  0  0
   -5.2088    8.5256   -2.7037 C   0  0  0  0  0  0  0  0  0  0  0  0
   -5.6468    9.6786   -1.8041 C   0  0  0  0  0  0  0  0  0  0  0  0
   -4.5763   10.7076   -1.6386 C   0  0  0  0  0  0  0  0  0  0  0  0
   -4.4280   11.4847   -0.7327 O   0  0  0  0  0  0  0  0  0  0  0  0
   -3.7119   10.7091   -2.6896 O   0  0  0  0  0  0  0  0  0  0  0  0
   -7.4069    8.1363   -3.7898 C   0  0  0  0  0  0  0  0  0  0  0  0
   -8.2487    8.9303   -3.4653 O   0  0  0  0  0  0  0  0  0  0  0  0
   -7.2799    7.7355   -5.0776 O   0  0  0  0  0  0  0  0  0  0  0  0
   -1.9678    2.0982   -5.8373 C   0  0  0  0  0  0  0  0  0  0  0  0
    2.8079   -0.8061    1.3389 H   0  0  0  0  0  0  0  0  0  0  0  0
    1.3735   -0.1452    2.1465 H   0  0  0  0  0  0  0  0  0  0  0  0
    2.5754    0.9592    1.4605 H   0  0  0  0  0  0  0  0  0  0  0  0
   -0.1728   -0.0596   -4.5885 H   0  0  0  0  0  0  0  0  0  0  0  0
   -3.8859    0.0092   -2.3802 H   0  0  0  0  0  0  0  0  0  0  0  0
   -2.6179    0.0275   -0.2301 H   0  0  0  0  0  0  0  0  0  0  0  0
   -3.8590   -0.5358   -4.8075 H   0  0  0  0  0  0  0  0  0  0  0  0
   -2.3434   -0.5167   -5.7261 H   0  0  0  0  0  0  0  0  0  0  0  0
   -6.9504    2.4011   -2.8851 H   0  0  0  0  0  0  0  0  0  0  0  0
   -5.5695    0.5972   -4.0853 H   0  0  0  0  0  0  0  0  0  0  0  0
   -5.4577    6.3338   -4.4068 H   0  0  0  0  0  0  0  0  0  0  0  0
   -4.8567    8.9014   -3.6869 H   0  0  0  0  0  0  0  0  0  0  0  0
   -4.3277    8.0096   -2.2642 H   0  0  0  0  0  0  0  0  0  0  0  0
   -5.9517    9.3058   -0.7981 H   0  0  0  0  0  0  0  0  0  0  0  0
   -6.5624   10.1767   -2.2113 H   0  0  0  0  0  0  0  0  0  0  0  0
   -3.0037   11.3943   -2.6153 H   0  0  0  0  0  0  0  0  0  0  0  0
   -7.9592    8.1253   -5.6832 H   0  0  0  0  0  0  0  0  0  0  0  0
   -1.3886    1.4277   -6.4976 H   0  0  0  0  0  0  0  0  0  0  0  0
   -1.2957    2.4425   -5.0308 H   0  0  0  0  0  0  0  0  0  0  0  0
   -2.2650    2.9628   -6.4584 H   0  0  0  0  0  0  0  0  0  0  0  0
  1  2  2  0  0  0  0
  2  3  1  0  0  0  0
  3 35  1  0  0  0  0
  3 37  1  0  0  0  0
  3 36  1  0  0  0  0
  4  5  1  0  0  0  0
  4  2  1  0  0  0  0
  6  4  1  0  0  0  0
  7  6  2  0  0  0  0
  8  6  1  6  0  0  0
  8  9  1  0  0  0  0
  8 13  1  0  0  0  0
  9 10  2  0  0  0  0
 10 11  1  0  0  0  0
 11 39  1  0  0  0  0
 11 12  2  0  0  0  0
 12 40  1  0  0  0  0
 13 12  1  0  0  0  0
 13  1  2  0  0  0  0
 14 41  1  0  0  0  0
 14 10  1  0  0  0  0
 15 14  1  0  0  0  0
 15 16  1  0  0  0  0
 16 17  1  0  0  0  0
 16 20  2  0  0  0  0
 17 18  1  0  0  0  0
 18 19  2  0  0  0  0
 18 21  1  0  0  0  0
 19 43  1  0  0  0  0
 20 19  1  0  0  0  0
 21 22  2  0  0  0  0
 23 24  1  0  0  0  0
 23 21  1  0  0  0  0
 24 26  1  0  0  0  0
 24 25  1  1  0  0  0
 26 47  1  0  0  0  0
 26 27  1  0  0  0  0
 27 28  1  0  0  0  0
 27 48  1  0  0  0  0
 28 29  2  0  0  0  0
 30 50  1  0  0  0  0
 30 28  1  0  0  0  0
 31 32  2  0  0  0  0
 31 24  1  0  0  0  0
 33 31  1  0  0  0  0
 34 15  1  0  0  0  0
 34 53  1  0  0  0  0
 38  9  1  0  0  0  0
 42 14  1  0  0  0  0
 44 20  1  0  0  0  0
 45 23  1  0  0  0  0
 46 26  1  0  0  0  0
 49 27  1  0  0  0  0
 51 33  1  0  0  0  0
 52 34  1  0  0  0  0
 54 34  1  0  0  0  0
M  RAD  1   8   2
M  END
$$$$
