
     RDKit          3D

 54 56  0  0  0  0  0  0  0  0999 V2000
   -0.6672    0.8904   -0.2192 N   0  0  0  0  0  0  0  0  0  0  0  0
    0.5611    0.6379    0.0921 C   0  0  0  0  0  0  0  0  0  0  0  0
    1.0965    0.9740    1.4527 C   0  0  0  0  0  0  0  0  0  0  0  0
    1.4497    0.0536   -0.7859 N   0  0  0  0  0  0  0  0  0  0  0  0
    2.4077   -0.1243   -0.4966 H   0  0  0  0  0  0  0  0  0  0  0  0
    1.1461   -0.3333   -2.0965 C   0  0  0  0  0  0  0  0  0  0  0  0
    1.9881   -0.8413   -2.8136 O   0  0  0  0  0  0  0  0  0  0  0  0
   -0.2520   -0.0513   -2.4506 C   0  0  0  0  0  0  0  0  0  0  0  0
   -0.7332   -0.3713   -3.7297 C   0  0  0  0  0  0  0  0  0  0  0  0
   -2.0531   -0.1085   -4.0788 C   0  0  0  0  0  0  0  0  0  0  0  0
   -2.8981    0.5022   -3.1239 C   0  0  0  0  0  0  0  0  0  0  0  0
   -2.4342    0.8269   -1.8588 C   0  0  0  0  0  0  0  0  0  0  0  0
   -1.0993    0.5542   -1.4912 C   0  0  0  0  0  0  0  0  0  0  0  0
   -2.5709   -0.4737   -5.4587 C   0  0  0  0  0  0  0  0  0  0  0  0
   -3.4498    0.5192   -6.0504 N   0  0  0  0  0  0  0  0  0  0  0  0
   -4.8067    0.4284   -5.8843 C   0  0  0  0  0  0  0  0  0  0  0  0
   -5.8396    1.7470   -6.3979 S   0  0  0  0  0  0  0  0  0  0  0  0
   -7.2764    0.8741   -5.9050 C   0  0  0  0  0  0  0  0  0  0  0  0
   -6.9459   -0.3514   -5.3661 C   0  0  0  0  0  0  0  0  0  0  0  0
   -5.5553   -0.6147   -5.3384 C   0  0  0  0  0  0  0  0  0  0  0  0
   -8.5613    1.5512   -6.1197 C   0  0  0  0  0  0  0  0  0  0  0  0
   -8.6331    2.6709   -6.6217 O   0  0  0  0  0  0  0  0  0  0  0  0
   -9.6813    0.8656   -5.7362 N   0  0  0  0  0  0  0  0  0  0  0  0
  -10.9885    1.4652   -5.8484 C   0  0  1  0  0  0  0  0  0  0  0  0
  -10.9304    2.5240   -5.5427 H   0  0  0  0  0  0  0  0  0  0  0  0
  -11.5143    1.4247   -7.3045 C   0  0  0  0  0  0  0  0  0  0  0  0
  -12.7082    2.3430   -7.5764 C   0  0  0  0  0  0  0  0  0  0  0  0
  -13.1733    2.3235   -9.0131 C   0  0  0  0  0  0  0  0  0  0  0  0
  -13.4291    3.2918   -9.6829 O   0  0  0  0  0  0  0  0  0  0  0  0
  -13.3058    1.0636   -9.4880 O   0  0  0  0  0  0  0  0  0  0  0  0
  -11.9045    0.7299   -4.8858 C   0  0  0  0  0  0  0  0  0  0  0  0
  -11.6295   -0.3120   -4.3405 O   0  0  0  0  0  0  0  0  0  0  0  0
  -13.0826    1.3509   -4.7137 O   0  0  0  0  0  0  0  0  0  0  0  0
   -2.8586    1.7740   -6.4710 C   0  0  0  0  0  0  0  0  0  0  0  0
    1.9408    1.6796    1.3799 H   0  0  0  0  0  0  0  0  0  0  0  0
    1.4602    0.0687    1.9668 H   0  0  0  0  0  0  0  0  0  0  0  0
    0.2958    1.4292    2.0464 H   0  0  0  0  0  0  0  0  0  0  0  0
   -0.0365   -0.8280   -4.4370 H   0  0  0  0  0  0  0  0  0  0  0  0
   -3.9342    0.7228   -3.3885 H   0  0  0  0  0  0  0  0  0  0  0  0
   -3.0821    1.2985   -1.1183 H   0  0  0  0  0  0  0  0  0  0  0  0
   -3.1068   -1.4340   -5.4248 H   0  0  0  0  0  0  0  0  0  0  0  0
   -1.7149   -0.6304   -6.1345 H   0  0  0  0  0  0  0  0  0  0  0  0
   -7.6840   -1.0614   -4.9874 H   0  0  0  0  0  0  0  0  0  0  0  0
   -5.1247   -1.5252   -4.9264 H   0  0  0  0  0  0  0  0  0  0  0  0
   -9.6317   -0.0269   -5.2582 H   0  0  0  0  0  0  0  0  0  0  0  0
  -11.7534    0.3855   -7.5774 H   0  0  0  0  0  0  0  0  0  0  0  0
  -10.6673    1.7440   -7.9282 H   0  0  0  0  0  0  0  0  0  0  0  0
  -12.4680    3.3868   -7.3302 H   0  0  0  0  0  0  0  0  0  0  0  0
  -13.5674    2.0495   -6.9522 H   0  0  0  0  0  0  0  0  0  0  0  0
  -13.6147    1.1480  -10.4064 H   0  0  0  0  0  0  0  0  0  0  0  0
  -13.6120    0.7980   -4.1124 H   0  0  0  0  0  0  0  0  0  0  0  0
   -3.3500    2.1423   -7.3864 H   0  0  0  0  0  0  0  0  0  0  0  0
   -1.7953    1.6143   -6.6946 H   0  0  0  0  0  0  0  0  0  0  0  0
   -2.9362    2.5612   -5.6975 H   0  0  0  0  0  0  0  0  0  0  0  0
  1  2  2  0
  1 13  1  0
  2  3  1  0
  2  4  1  0
  3 35  1  0
  3 36  1  0
  3 37  1  0
  4  5  1  0
  4  6  1  0
  6  7  2  0
  6  8  1  0
  8  9  1  0
  8 13  2  0
  9 10  2  0
  9 38  1  0
 10 11  1  0
 10 14  1  0
 11 12  2  0
 11 39  1  0
 12 13  1  0
 12 40  1  0
 14 15  1  0
 14 41  1  0
 14 42  1  0
 15 16  1  0
 15 34  1  0
 16 17  1  0
 16 20  2  0
 17 18  1  0
 18 19  2  0
 18 21  1  0
 19 20  1  0
 19 43  1  0
 20 44  1  0
 21 22  2  0
 21 23  1  0
 23 24  1  0
 23 45  1  0
 24 25  1  1
 24 26  1  0
 24 31  1  0
 26 27  1  0
 26 46  1  0
 26 47  1  0
 27 28  1  0
 27 48  1  0
 27 49  1  0
 28 29  2  0
 28 30  1  0
 30 50  1  0
 31 32  2  0
 31 33  1  0
 33 51  1  0
 34 52  1  0
 34 53  1  0
 34 54  1  0
M  END

