rmsd211.gzmat
 OpenBabel08211713363D

 54 56  0  0  1  0  0  0  0  0999 V2000
    0.0000    0.0000    0.0000 N   0  0  0  0  0  0  0  0  0  0  0  0
    1.3098    0.0000    0.0000 C   0  0  0  0  0  0  0  0  0  0  0  0
    2.0599    0.0000    1.2904 C   0  0  0  0  0  0  0  0  0  0  0  0
    2.0688    0.0025   -1.1741 N   0  0  0  0  0  0  0  0  0  0  0  0
    3.0846    0.0060   -1.1365 H   0  0  0  0  0  0  0  0  0  0  0  0
    1.4510    0.0011   -2.4545 C   0  0  0  0  0  0  0  0  0  0  0  0
    2.1754    0.0214   -3.4230 O   0  0  0  0  0  0  0  0  0  0  0  0
   -0.0091   -0.0168   -2.4438 C   0  0  1  0  0  0  0  0  0  0  0  0
   -0.7258   -0.0437   -3.6456 C   0  0  0  0  0  0  0  0  0  0  0  0
   -2.1124   -0.0483   -3.6210 C   0  0  0  0  0  0  0  0  0  0  0  0
   -2.7909   -0.0329   -2.3890 C   0  0  0  0  0  0  0  0  0  0  0  0
   -2.0993   -0.0208   -1.1934 C   0  0  0  0  0  0  0  0  0  0  0  0
   -0.6890   -0.0120   -1.2098 C   0  0  0  0  0  0  0  0  0  0  0  0
   -2.8488   -0.0452   -4.9359 C   0  0  0  0  0  0  0  0  0  0  0  0
   -4.1674   -0.6994   -4.9436 N   0  0  0  0  0  0  0  0  0  0  0  0
   -4.2793   -1.9759   -4.4505 C   0  0  0  0  0  0  0  0  0  0  0  0
   -2.9474   -3.1397   -4.5459 S   0  0  0  0  0  0  0  0  0  0  0  0
   -3.9648   -4.4351   -3.9751 C   0  0  0  0  0  0  0  0  0  0  0  0
   -5.2306   -3.9812   -3.7045 C   0  0  0  0  0  0  0  0  0  0  0  0
   -5.4177   -2.5992   -3.9633 C   0  0  0  0  0  0  0  0  0  0  0  0
   -3.4283   -5.7817   -3.8246 C   0  0  0  0  0  0  0  0  0  0  0  0
   -2.2582   -6.0481   -3.6283 O   0  0  0  0  0  0  0  0  0  0  0  0
   -4.3591   -6.8146   -3.9162 N   0  0  0  0  0  0  0  0  0  0  0  0
   -3.9203   -8.1983   -3.8239 C   0  0  1  0  0  0  0  0  0  0  0  0
   -2.7856   -8.2342   -3.7996 H   0  0  0  0  0  0  0  0  0  0  0  0
   -4.4938   -8.8690   -2.5573 C   0  0  0  0  0  0  0  0  0  0  0  0
   -3.8036  -10.2039   -2.2866 C   0  0  0  0  0  0  0  0  0  0  0  0
   -4.4435  -10.8819   -1.1196 C   0  0  0  0  0  0  0  0  0  0  0  0
   -5.3659  -10.5186   -0.4396 O   0  0  0  0  0  0  0  0  0  0  0  0
   -3.8250  -12.0677   -0.8732 O   0  0  0  0  0  0  0  0  0  0  0  0
   -4.3924   -8.9986   -5.0335 C   0  0  0  0  0  0  0  0  0  0  0  0
   -3.8691   -9.9687   -5.5107 O   0  0  0  0  0  0  0  0  0  0  0  0
   -5.5587   -8.5164   -5.5289 O   0  0  0  0  0  0  0  0  0  0  0  0
   -5.3117    0.2000   -4.7286 C   0  0  0  0  0  0  0  0  0  0  0  0
    2.6847    0.8985    1.4037 H   0  0  0  0  0  0  0  0  0  0  0  0
    2.7054   -0.8858    1.3917 H   0  0  0  0  0  0  0  0  0  0  0  0
    1.3622   -0.0146    2.1502 H   0  0  0  0  0  0  0  0  0  0  0  0
   -0.1717   -0.0647   -4.5897 H   0  0  0  0  0  0  0  0  0  0  0  0
   -3.8818   -0.0430   -2.3726 H   0  0  0  0  0  0  0  0  0  0  0  0
   -2.6163   -0.0232   -0.2333 H   0  0  0  0  0  0  0  0  0  0  0  0
   -2.2306   -0.5362   -5.7338 H   0  0  0  0  0  0  0  0  0  0  0  0
   -2.9694    1.0123   -5.2805 H   0  0  0  0  0  0  0  0  0  0  0  0
   -6.0337   -4.5953   -3.3149 H   0  0  0  0  0  0  0  0  0  0  0  0
   -6.3589   -2.1103   -3.7892 H   0  0  0  0  0  0  0  0  0  0  0  0
   -5.3250   -6.6516   -4.1525 H   0  0  0  0  0  0  0  0  0  0  0  0
   -5.5920   -9.0010   -2.6423 H   0  0  0  0  0  0  0  0  0  0  0  0
   -4.3586   -8.1845   -1.6904 H   0  0  0  0  0  0  0  0  0  0  0  0
   -2.7149  -10.0640   -2.0938 H   0  0  0  0  0  0  0  0  0  0  0  0
   -3.8399  -10.8744   -3.1794 H   0  0  0  0  0  0  0  0  0  0  0  0
   -4.2063  -12.5647   -0.1096 H   0  0  0  0  0  0  0  0  0  0  0  0
   -5.8902   -9.0109   -6.3195 H   0  0  0  0  0  0  0  0  0  0  0  0
   -5.1461    1.1564   -5.2528 H   0  0  0  0  0  0  0  0  0  0  0  0
   -5.5088    0.4130   -3.6650 H   0  0  0  0  0  0  0  0  0  0  0  0
   -6.2202   -0.2559   -5.1666 H   0  0  0  0  0  0  0  0  0  0  0  0
  1  2  2  0  0  0  0
  2  3  1  0  0  0  0
  3 36  1  0  0  0  0
  3 35  1  0  0  0  0
  3 37  1  0  0  0  0
  4  5  1  0  0  0  0
  4  2  1  0  0  0  0
  6  4  1  0  0  0  0
  7  6  2  0  0  0  0
  8  6  1  1  0  0  0
  8  9  1  0  0  0  0
  8 13  1  0  0  0  0
  9 10  2  0  0  0  0
 10 11  1  0  0  0  0
 11 39  1  0  0  0  0
 11 12  2  0  0  0  0
 12 40  1  0  0  0  0
 13 12  1  0  0  0  0
 13  1  2  0  0  0  0
 14 10  1  0  0  0  0
 15 14  1  0  0  0  0
 15 34  1  0  0  0  0
 15 16  1  0  0  0  0
 16 20  2  0  0  0  0
 17 16  1  0  0  0  0
 17 18  1  0  0  0  0
 18 21  1  0  0  0  0
 18 19  2  0  0  0  0
 19 43  1  0  0  0  0
 20 44  1  0  0  0  0
 20 19  1  0  0  0  0
 21 22  2  0  0  0  0
 23 21  1  0  0  0  0
 23 24  1  0  0  0  0
 24 25  1  1  0  0  0
 24 26  1  0  0  0  0
 26 27  1  0  0  0  0
 26 47  1  0  0  0  0
 27 48  1  0  0  0  0
 27 28  1  0  0  0  0
 28 30  1  0  0  0  0
 28 29  2  0  0  0  0
 30 50  1  0  0  0  0
 31 24  1  0  0  0  0
 32 31  2  0  0  0  0
 33 31  1  0  0  0  0
 34 53  1  0  0  0  0
 38  9  1  0  0  0  0
 41 14  1  0  0  0  0
 42 14  1  0  0  0  0
 45 23  1  0  0  0  0
 46 26  1  0  0  0  0
 49 27  1  0  0  0  0
 51 33  1  0  0  0  0
 52 34  1  0  0  0  0
 54 34  1  0  0  0  0
M  RAD  1   8   2
M  END
$$$$
