
     RDKit          3D

 54 56  0  0  0  0  0  0  0  0999 V2000
    0.6892   -0.1099   -0.0923 N   0  0  0  0  0  0  0  0  0  0  0  0
    1.8542    0.4320   -0.2300 C   0  0  0  0  0  0  0  0  0  0  0  0
    2.8078    0.5133    0.9254 C   0  0  0  0  0  0  0  0  0  0  0  0
    2.2949    0.9629   -1.4236 N   0  0  0  0  0  0  0  0  0  0  0  0
    3.2209    1.3778   -1.4846 H   0  0  0  0  0  0  0  0  0  0  0  0
    1.5574    0.9849   -2.6134 C   0  0  0  0  0  0  0  0  0  0  0  0
    2.0182    1.4692   -3.6304 O   0  0  0  0  0  0  0  0  0  0  0  0
    0.2303    0.3739   -2.4568 C   0  0  0  0  0  0  0  0  0  0  0  0
   -0.6485    0.3073   -3.5500 C   0  0  0  0  0  0  0  0  0  0  0  0
   -1.9064   -0.2683   -3.4163 C   0  0  0  0  0  0  0  0  0  0  0  0
   -2.2797   -0.7992   -2.1589 C   0  0  0  0  0  0  0  0  0  0  0  0
   -1.4205   -0.7433   -1.0735 C   0  0  0  0  0  0  0  0  0  0  0  0
   -0.1445   -0.1516   -1.1971 C   0  0  0  0  0  0  0  0  0  0  0  0
   -2.8519   -0.3475   -4.5997 C   0  0  0  0  0  0  0  0  0  0  0  0
   -3.3477   -1.6907   -4.8637 N   0  0  0  0  0  0  0  0  0  0  0  0
   -4.5393   -2.1027   -4.3260 C   0  0  0  0  0  0  0  0  0  0  0  0
   -4.9760   -3.8013   -4.3795 S   0  0  0  0  0  0  0  0  0  0  0  0
   -6.5188   -3.4881   -3.5961 C   0  0  0  0  0  0  0  0  0  0  0  0
   -6.6467   -2.1472   -3.3129 C   0  0  0  0  0  0  0  0  0  0  0  0
   -5.5406   -1.3569   -3.7081 C   0  0  0  0  0  0  0  0  0  0  0  0
   -7.5230   -4.5191   -3.2858 C   0  0  0  0  0  0  0  0  0  0  0  0
   -8.5860   -4.2424   -2.7378 O   0  0  0  0  0  0  0  0  0  0  0  0
   -7.2196   -5.8059   -3.6440 N   0  0  0  0  0  0  0  0  0  0  0  0
   -8.1241   -6.8851   -3.3295 C   0  0  1  0  0  0  0  0  0  0  0  0
   -8.5377   -6.7222   -2.3192 H   0  0  0  0  0  0  0  0  0  0  0  0
   -9.3120   -6.9518   -4.3192 C   0  0  0  0  0  0  0  0  0  0  0  0
  -10.5069   -7.7501   -3.8147 C   0  0  0  0  0  0  0  0  0  0  0  0
  -11.6403   -7.7877   -4.8110 C   0  0  0  0  0  0  0  0  0  0  0  0
  -11.6081   -7.3537   -5.9358 O   0  0  0  0  0  0  0  0  0  0  0  0
  -12.7322   -8.3927   -4.2981 O   0  0  0  0  0  0  0  0  0  0  0  0
   -7.3125   -8.1680   -3.3191 C   0  0  0  0  0  0  0  0  0  0  0  0
   -6.1780   -8.2653   -3.7210 O   0  0  0  0  0  0  0  0  0  0  0  0
   -8.0012   -9.2133   -2.8306 O   0  0  0  0  0  0  0  0  0  0  0  0
   -2.3812   -2.6745   -5.3089 C   0  0  0  0  0  0  0  0  0  0  0  0
    3.7470   -0.0182    0.6983 H   0  0  0  0  0  0  0  0  0  0  0  0
    2.3389    0.0583    1.8050 H   0  0  0  0  0  0  0  0  0  0  0  0
    3.0629    1.5621    1.1513 H   0  0  0  0  0  0  0  0  0  0  0  0
   -0.3093    0.7199   -4.5033 H   0  0  0  0  0  0  0  0  0  0  0  0
   -3.2621   -1.2624   -2.0437 H   0  0  0  0  0  0  0  0  0  0  0  0
   -1.7034   -1.1495   -0.1011 H   0  0  0  0  0  0  0  0  0  0  0  0
   -2.3342    0.0159   -5.5017 H   0  0  0  0  0  0  0  0  0  0  0  0
   -3.7146    0.3173   -4.4525 H   0  0  0  0  0  0  0  0  0  0  0  0
   -7.5410   -1.7637   -2.8211 H   0  0  0  0  0  0  0  0  0  0  0  0
   -5.4812   -0.2826   -3.5451 H   0  0  0  0  0  0  0  0  0  0  0  0
   -6.3128   -6.0709   -4.0152 H   0  0  0  0  0  0  0  0  0  0  0  0
   -8.9684   -7.3391   -5.2912 H   0  0  0  0  0  0  0  0  0  0  0  0
   -9.6259   -5.9127   -4.4865 H   0  0  0  0  0  0  0  0  0  0  0  0
  -10.8960   -7.3273   -2.8731 H   0  0  0  0  0  0  0  0  0  0  0  0
  -10.2391   -8.7920   -3.5782 H   0  0  0  0  0  0  0  0  0  0  0  0
  -13.4080   -8.3830   -4.9974 H   0  0  0  0  0  0  0  0  0  0  0  0
   -7.4191   -9.9909   -2.8913 H   0  0  0  0  0  0  0  0  0  0  0  0
   -1.5727   -2.1656   -5.8510 H   0  0  0  0  0  0  0  0  0  0  0  0
   -2.8557   -3.3920   -5.9977 H   0  0  0  0  0  0  0  0  0  0  0  0
   -1.9327   -3.2412   -4.4710 H   0  0  0  0  0  0  0  0  0  0  0  0
  1  2  2  0
  1 13  1  0
  2  3  1  0
  2  4  1  0
  3 35  1  0
  3 36  1  0
  3 37  1  0
  4  5  1  0
  4  6  1  0
  6  7  2  0
  6  8  1  0
  8  9  1  0
  8 13  2  0
  9 10  2  0
  9 38  1  0
 10 11  1  0
 10 14  1  0
 11 12  2  0
 11 39  1  0
 12 13  1  0
 12 40  1  0
 14 15  1  0
 14 41  1  0
 14 42  1  0
 15 16  1  0
 15 34  1  0
 16 17  1  0
 16 20  2  0
 17 18  1  0
 18 19  2  0
 18 21  1  0
 19 20  1  0
 19 43  1  0
 20 44  1  0
 21 22  2  0
 21 23  1  0
 23 24  1  0
 23 45  1  0
 24 25  1  1
 24 26  1  0
 24 31  1  0
 26 27  1  0
 26 46  1  0
 26 47  1  0
 27 28  1  0
 27 48  1  0
 27 49  1  0
 28 29  2  0
 28 30  1  0
 30 50  1  0
 31 32  2  0
 31 33  1  0
 33 51  1  0
 34 52  1  0
 34 53  1  0
 34 54  1  0
M  END

