
     RDKit          3D

 54 56  0  0  0  0  0  0  0  0999 V2000
   -1.4161    1.5797   -0.0576 N   0  0  0  0  0  0  0  0  0  0  0  0
   -0.2460    2.1284   -0.0609 C   0  0  0  0  0  0  0  0  0  0  0  0
    0.2760    2.8376    1.1535 C   0  0  0  0  0  0  0  0  0  0  0  0
    0.5880    2.1026   -1.1584 N   0  0  0  0  0  0  0  0  0  0  0  0
    1.4999    2.5498   -1.1144 H   0  0  0  0  0  0  0  0  0  0  0  0
    0.2858    1.4957   -2.3830 C   0  0  0  0  0  0  0  0  0  0  0  0
    1.0761    1.5146   -3.3078 O   0  0  0  0  0  0  0  0  0  0  0  0
   -1.0462    0.8734   -2.3823 C   0  0  0  0  0  0  0  0  0  0  0  0
   -1.5256    0.2350   -3.5365 C   0  0  0  0  0  0  0  0  0  0  0  0
   -2.7864   -0.3495   -3.5553 C   0  0  0  0  0  0  0  0  0  0  0  0
   -3.5773   -0.2828   -2.3869 C   0  0  0  0  0  0  0  0  0  0  0  0
   -3.1191    0.3489   -1.2396 C   0  0  0  0  0  0  0  0  0  0  0  0
   -1.8403    0.9453   -1.2122 C   0  0  0  0  0  0  0  0  0  0  0  0
   -3.2957   -1.0273   -4.8198 C   0  0  0  0  0  0  0  0  0  0  0  0
   -4.7436   -1.0963   -4.9277 N   0  0  0  0  0  0  0  0  0  0  0  0
   -5.4364    0.0876   -4.8611 C   0  0  0  0  0  0  0  0  0  0  0  0
   -7.1021    0.1221   -4.3300 S   0  0  0  0  0  0  0  0  0  0  0  0
   -7.1261    1.8713   -4.3941 C   0  0  0  0  0  0  0  0  0  0  0  0
   -5.9077    2.3698   -4.8059 C   0  0  0  0  0  0  0  0  0  0  0  0
   -4.9421    1.3715   -5.0758 C   0  0  0  0  0  0  0  0  0  0  0  0
   -8.3065    2.5243   -3.8154 C   0  0  0  0  0  0  0  0  0  0  0  0
   -9.2537    1.8780   -3.3750 O   0  0  0  0  0  0  0  0  0  0  0  0
   -8.2405    3.8914   -3.7131 N   0  0  0  0  0  0  0  0  0  0  0  0
   -9.0966    4.6043   -2.8016 C   0  0  1  0  0  0  0  0  0  0  0  0
   -9.9777    3.9679   -2.6345 H   0  0  0  0  0  0  0  0  0  0  0  0
   -8.4153    4.8872   -1.4346 C   0  0  0  0  0  0  0  0  0  0  0  0
   -7.6948    3.6629   -0.8703 C   0  0  0  0  0  0  0  0  0  0  0  0
   -6.3453    3.4160   -1.5173 C   0  0  0  0  0  0  0  0  0  0  0  0
   -5.6818    4.2506   -2.0887 O   0  0  0  0  0  0  0  0  0  0  0  0
   -5.9409    2.1455   -1.3669 O   0  0  0  0  0  0  0  0  0  0  0  0
   -9.5440    5.9154   -3.4224 C   0  0  0  0  0  0  0  0  0  0  0  0
   -9.0388    6.4392   -4.3822 O   0  0  0  0  0  0  0  0  0  0  0  0
  -10.5568    6.4681   -2.7284 O   0  0  0  0  0  0  0  0  0  0  0  0
   -5.4266   -2.3402   -4.6369 C   0  0  0  0  0  0  0  0  0  0  0  0
    1.2145    2.3776    1.5050 H   0  0  0  0  0  0  0  0  0  0  0  0
   -0.4755    2.7793    1.9488 H   0  0  0  0  0  0  0  0  0  0  0  0
    0.4853    3.8968    0.9292 H   0  0  0  0  0  0  0  0  0  0  0  0
   -0.8803    0.2277   -4.4187 H   0  0  0  0  0  0  0  0  0  0  0  0
   -4.5801   -0.7123   -2.3886 H   0  0  0  0  0  0  0  0  0  0  0  0
   -3.7335    0.4084   -0.3397 H   0  0  0  0  0  0  0  0  0  0  0  0
   -2.9128   -2.0584   -4.8712 H   0  0  0  0  0  0  0  0  0  0  0  0
   -2.8754   -0.5050   -5.6971 H   0  0  0  0  0  0  0  0  0  0  0  0
   -5.6833    3.4350   -4.8719 H   0  0  0  0  0  0  0  0  0  0  0  0
   -3.9195    1.5850   -5.3795 H   0  0  0  0  0  0  0  0  0  0  0  0
   -7.4193    4.3833   -4.0428 H   0  0  0  0  0  0  0  0  0  0  0  0
   -9.1856    5.2360   -0.7320 H   0  0  0  0  0  0  0  0  0  0  0  0
   -7.6812    5.7001   -1.5530 H   0  0  0  0  0  0  0  0  0  0  0  0
   -8.3010    2.7491   -0.9536 H   0  0  0  0  0  0  0  0  0  0  0  0
   -7.4950    3.8092    0.2056 H   0  0  0  0  0  0  0  0  0  0  0  0
   -5.0879    2.0463   -1.8290 H   0  0  0  0  0  0  0  0  0  0  0  0
  -10.7560    7.3216   -3.1505 H   0  0  0  0  0  0  0  0  0  0  0  0
   -4.7826   -3.1851   -4.9150 H   0  0  0  0  0  0  0  0  0  0  0  0
   -6.3538   -2.4106   -5.2276 H   0  0  0  0  0  0  0  0  0  0  0  0
   -5.7002   -2.4472   -3.5679 H   0  0  0  0  0  0  0  0  0  0  0  0
  1  2  2  0
  1 13  1  0
  2  3  1  0
  2  4  1  0
  3 35  1  0
  3 36  1  0
  3 37  1  0
  4  5  1  0
  4  6  1  0
  6  7  2  0
  6  8  1  0
  8  9  1  0
  8 13  2  0
  9 10  2  0
  9 38  1  0
 10 11  1  0
 10 14  1  0
 11 12  2  0
 11 39  1  0
 12 13  1  0
 12 40  1  0
 14 15  1  0
 14 41  1  0
 14 42  1  0
 15 16  1  0
 15 34  1  0
 16 17  1  0
 16 20  2  0
 17 18  1  0
 18 19  2  0
 18 21  1  0
 19 20  1  0
 19 43  1  0
 20 44  1  0
 21 22  2  0
 21 23  1  0
 23 24  1  0
 23 45  1  0
 24 25  1  1
 24 26  1  0
 24 31  1  0
 26 27  1  0
 26 46  1  0
 26 47  1  0
 27 28  1  0
 27 48  1  0
 27 49  1  0
 28 29  2  0
 28 30  1  0
 30 50  1  0
 31 32  2  0
 31 33  1  0
 33 51  1  0
 34 52  1  0
 34 53  1  0
 34 54  1  0
M  END

