54
rmsd80.gzmat
N          0.00000        0.00000        0.00000
C          1.31010        0.00000        0.00000
C          2.06320        0.00000        1.28870
N          2.06890        0.00270       -1.17390
H          3.08500        0.00330       -1.13680
C          1.45020        0.00450       -2.45390
O          2.17330        0.01630       -3.42330
C         -0.00910       -0.00490       -2.44220
C         -0.72540       -0.01240       -3.64640
C         -2.10910       -0.01480       -3.61700
C         -2.79380       -0.00940       -2.38550
C         -2.10220       -0.00370       -1.19100
C         -0.69050       -0.00320       -1.20900
C         -2.89290       -0.03040       -4.90320
N         -3.76240        1.15950       -4.97510
C         -5.02810        1.04370       -5.45410
S         -6.01400        2.46470       -5.87080
C         -7.41080        1.47310       -6.19450
C         -7.11990        0.14430       -6.01290
C         -5.78990       -0.11010       -5.60180
C         -8.65900        2.07790       -6.63330
O         -8.74890        3.10150       -7.28350
N         -9.81780        1.38730       -6.27850
C        -11.12160        1.91790       -6.64940
H        -10.99200        2.89930       -7.20080
C        -11.88520        0.90730       -7.53070
C        -13.04030        1.59030       -8.25930
C        -13.86990        0.63750       -9.05640
O        -14.81680        0.89080       -9.75400
O        -13.44120       -0.64620       -8.92290
C        -11.91780        2.14630       -5.36890
O        -11.80750        1.58360       -4.31430
O        -12.85150        3.11010       -5.56510
C         -3.04710        2.43570       -5.08440
H          2.70990        0.88540        1.38840
H          2.68910       -0.89920        1.39950
H          1.36850        0.01280        2.15150
H         -0.17010       -0.01740       -4.58930
H         -3.88720       -0.00010       -2.38750
H         -2.61750        0.00160       -0.22970
H         -3.50790       -0.96260       -4.94910
H         -2.21850       -0.06590       -5.79270
H         -7.82580       -0.66230       -6.17640
H         -5.43460       -1.10920       -5.42540
H         -9.79900        0.60300       -5.64380
H        -12.24750        0.04970       -6.92740
H        -11.18210        0.45750       -8.26620
H        -12.65980        2.38940       -8.93960
H        -13.70490        2.12890       -7.53960
H        -13.97850       -1.29670       -9.43830
H        -13.39600        3.31050       -4.76400
H         -2.91110        2.75860       -6.13170
H         -2.04500        2.35450       -4.62170
H         -3.58340        3.22600       -4.52540
