54
rmsd124.gzmat
N          0.00000        0.00000        0.00000
C          1.31030        0.00000        0.00000
C          2.04780        0.00000        1.29820
N          2.06840        0.01540       -1.17390
H          3.08430        0.00210       -1.13960
C          1.44910        0.04590       -2.45360
O          2.17300        0.04510       -3.42240
C         -0.01030        0.07820       -2.44220
C         -0.72760        0.15220       -3.64160
C         -2.11400        0.20160       -3.61700
C         -2.79100        0.16210       -2.38520
C         -2.09930        0.07820       -1.19210
C         -0.68990        0.04580       -1.20820
C         -2.83440        0.34530       -4.93450
N         -4.25200       -0.04510       -4.95700
C         -5.16430        0.82000       -4.40650
S         -6.85770        0.36730       -4.13180
C         -7.26550        1.98400       -3.62330
C         -6.16980        2.80720       -3.67700
C         -4.98170        2.16000       -4.10230
C         -8.61400        2.30670       -3.17820
O         -9.39060        1.51830       -2.67020
N         -8.99880        3.63150       -3.34250
C        -10.29470        4.07710       -2.86570
H        -10.66180        3.38650       -2.04640
C        -10.23790        5.53590       -2.36240
C         -9.22000        5.71940       -1.23530
C         -7.88430        6.13790       -1.76490
O         -7.37500        5.91070       -2.83370
O         -7.22140        6.87320       -0.83720
C        -11.29590        4.02390       -4.02090
O        -11.10950        4.06740       -5.20280
O        -12.55220        3.93850       -3.50550
C         -4.49010       -1.49100       -4.83990
H          3.12910       -0.15390        1.19850
H          1.65540       -0.78650        1.96970
H          1.88980        0.95680        1.82950
H         -0.17270        0.17750       -4.58470
H         -3.88250        0.21060       -2.35990
H         -2.61790        0.04680       -0.23290
H         -2.31460       -0.25340       -5.72500
H         -2.75780        1.41090       -5.27710
H         -6.17650        3.86080       -3.41100
H         -4.04380        2.68430       -4.16470
H         -8.39270        4.32970       -3.75760
H        -11.25060        5.82600       -2.00790
H        -10.01030        6.22250       -3.20620
H         -9.09600        4.77660       -0.65090
H         -9.58720        6.46270       -0.49180
H         -6.32000        7.16320       -1.12660
H        -13.26010        3.84430       -4.18670
H         -3.62110       -2.05590       -5.22080
H         -5.35540       -1.77660       -5.46810
H         -4.67160       -1.82310       -3.80290
