54

N         -1.41610        1.57970       -0.05760
C         -0.24600        2.12840       -0.06090
C          0.27600        2.83760        1.15350
N          0.58800        2.10260       -1.15840
H          1.49990        2.54980       -1.11440
C          0.28580        1.49570       -2.38300
O          1.07610        1.51460       -3.30780
C         -1.04620        0.87340       -2.38230
C         -1.52560        0.23500       -3.53650
C         -2.78640       -0.34950       -3.55530
C         -3.57730       -0.28280       -2.38690
C         -3.11910        0.34890       -1.23960
C         -1.84030        0.94530       -1.21220
C         -3.29570       -1.02730       -4.81980
N         -4.74360       -1.09630       -4.92770
C         -5.43640        0.08760       -4.86110
S         -7.10210        0.12210       -4.33000
C         -7.12610        1.87130       -4.39410
C         -5.90770        2.36980       -4.80590
C         -4.94210        1.37150       -5.07580
C         -8.30650        2.52430       -3.81540
O         -9.25370        1.87800       -3.37500
N         -8.24050        3.89140       -3.71310
C         -9.09660        4.60430       -2.80160
H         -9.97770        3.96790       -2.63450
C         -8.41530        4.88720       -1.43460
C         -7.69480        3.66290       -0.87030
C         -6.34530        3.41600       -1.51730
O         -5.68180        4.25060       -2.08870
O         -5.94090        2.14550       -1.36690
C         -9.54400        5.91540       -3.42240
O         -9.03880        6.43920       -4.38220
O        -10.55680        6.46810       -2.72840
C         -5.42660       -2.34020       -4.63690
H          1.21450        2.37760        1.50500
H         -0.47550        2.77930        1.94880
H          0.48530        3.89680        0.92920
H         -0.88030        0.22770       -4.41870
H         -4.58010       -0.71230       -2.38860
H         -3.73350        0.40840       -0.33970
H         -2.91280       -2.05840       -4.87120
H         -2.87540       -0.50500       -5.69710
H         -5.68330        3.43500       -4.87190
H         -3.91950        1.58500       -5.37950
H         -7.41930        4.38330       -4.04280
H         -9.18560        5.23600       -0.73200
H         -7.68120        5.70010       -1.55300
H         -8.30100        2.74910       -0.95360
H         -7.49500        3.80920        0.20560
H         -5.08790        2.04630       -1.82900
H        -10.75600        7.32160       -3.15050
H         -4.78260       -3.18510       -4.91500
H         -6.35380       -2.41060       -5.22760
H         -5.70020       -2.44720       -3.56790
