rmsd158.gzmat
 OpenBabel08211713363D

 54 56  0  0  1  0  0  0  0  0999 V2000
    0.0000    0.0000    0.0000 N   0  0  0  0  0  0  0  0  0  0  0  0
    1.3105    0.0000    0.0000 C   0  0  0  0  0  0  0  0  0  0  0  0
    2.0587    0.0000    1.2913 C   0  0  0  0  0  0  0  0  0  0  0  0
    2.0694   -0.0096   -1.1735 N   0  0  0  0  0  0  0  0  0  0  0  0
    3.0855   -0.0130   -1.1369 H   0  0  0  0  0  0  0  0  0  0  0  0
    1.4502   -0.0165   -2.4531 C   0  0  0  0  0  0  0  0  0  0  0  0
    2.1721   -0.0187   -3.4237 O   0  0  0  0  0  0  0  0  0  0  0  0
   -0.0092   -0.0195   -2.4414 C   0  0  1  0  0  0  0  0  0  0  0  0
   -0.7268   -0.0284   -3.6446 C   0  0  0  0  0  0  0  0  0  0  0  0
   -2.1109   -0.0372   -3.6166 C   0  0  0  0  0  0  0  0  0  0  0  0
   -2.7931   -0.0412   -2.3842 C   0  0  0  0  0  0  0  0  0  0  0  0
   -2.1021   -0.0256   -1.1900 C   0  0  0  0  0  0  0  0  0  0  0  0
   -0.6900   -0.0146   -1.2082 C   0  0  0  0  0  0  0  0  0  0  0  0
   -2.8868   -0.0462   -4.9063 C   0  0  0  0  0  0  0  0  0  0  0  0
   -3.6801    1.1812   -5.1079 N   0  0  0  0  0  0  0  0  0  0  0  0
   -4.9307    1.2466   -4.5686 C   0  0  0  0  0  0  0  0  0  0  0  0
   -5.8158    2.7854   -4.4140 S   0  0  0  0  0  0  0  0  0  0  0  0
   -7.2605    1.9762   -3.8733 C   0  0  0  0  0  0  0  0  0  0  0  0
   -7.0585    0.6182   -3.8108 C   0  0  0  0  0  0  0  0  0  0  0  0
   -5.7583    0.1996   -4.1884 C   0  0  0  0  0  0  0  0  0  0  0  0
   -8.5318    2.5930   -3.5314 C   0  0  0  0  0  0  0  0  0  0  0  0
   -9.4880    1.9553   -3.1256 O   0  0  0  0  0  0  0  0  0  0  0  0
   -8.6534    3.9711   -3.6776 N   0  0  0  0  0  0  0  0  0  0  0  0
   -9.9199    4.6139   -3.3540 C   0  0  1  0  0  0  0  0  0  0  0  0
  -10.7452    3.8297   -3.3499 H   0  0  0  0  0  0  0  0  0  0  0  0
   -9.9085    5.3121   -1.9776 C   0  0  0  0  0  0  0  0  0  0  0  0
   -8.7008    6.2263   -1.7838 C   0  0  0  0  0  0  0  0  0  0  0  0
   -8.7839    7.0598   -0.5470 C   0  0  0  0  0  0  0  0  0  0  0  0
   -7.9383    7.7897   -0.0982 O   0  0  0  0  0  0  0  0  0  0  0  0
   -9.9807    6.9293    0.0827 O   0  0  0  0  0  0  0  0  0  0  0  0
  -10.2691    5.6451   -4.4208 C   0  0  0  0  0  0  0  0  0  0  0  0
  -11.3533    5.9087   -4.8591 O   0  0  0  0  0  0  0  0  0  0  0  0
   -9.1627    6.3155   -4.8430 O   0  0  0  0  0  0  0  0  0  0  0  0
   -2.8779    2.4080   -5.2147 C   0  0  0  0  0  0  0  0  0  0  0  0
    2.5044   -0.9868    1.4968 H   0  0  0  0  0  0  0  0  0  0  0  0
    1.3801    0.2196    2.1389 H   0  0  0  0  0  0  0  0  0  0  0  0
    2.8596    0.7524    1.3185 H   0  0  0  0  0  0  0  0  0  0  0  0
   -0.1729   -0.0315   -4.5883 H   0  0  0  0  0  0  0  0  0  0  0  0
   -3.8874   -0.0517   -2.3786 H   0  0  0  0  0  0  0  0  0  0  0  0
   -2.6181   -0.0217   -0.2286 H   0  0  0  0  0  0  0  0  0  0  0  0
   -3.5596   -0.9372   -4.9502 H   0  0  0  0  0  0  0  0  0  0  0  0
   -2.2084   -0.1518   -5.7893 H   0  0  0  0  0  0  0  0  0  0  0  0
   -7.8307   -0.0825   -3.4979 H   0  0  0  0  0  0  0  0  0  0  0  0
   -5.4769   -0.8394   -4.1879 H   0  0  0  0  0  0  0  0  0  0  0  0
   -7.9156    4.5689   -4.0102 H   0  0  0  0  0  0  0  0  0  0  0  0
   -9.9241    4.5348   -1.1820 H   0  0  0  0  0  0  0  0  0  0  0  0
  -10.8568    5.8774   -1.8437 H   0  0  0  0  0  0  0  0  0  0  0  0
   -8.5682    6.9047   -2.6606 H   0  0  0  0  0  0  0  0  0  0  0  0
   -7.7612    5.6257   -1.7427 H   0  0  0  0  0  0  0  0  0  0  0  0
  -10.0576    7.4827    0.8989 H   0  0  0  0  0  0  0  0  0  0  0  0
   -9.3441    6.9776   -5.5541 H   0  0  0  0  0  0  0  0  0  0  0  0
   -1.8793    2.1773   -5.6286 H   0  0  0  0  0  0  0  0  0  0  0  0
   -2.7246    2.9100   -4.2422 H   0  0  0  0  0  0  0  0  0  0  0  0
   -3.3580    3.1143   -5.9180 H   0  0  0  0  0  0  0  0  0  0  0  0
  1  2  2  0  0  0  0
  2  3  1  0  0  0  0
  3 37  1  0  0  0  0
  3 35  1  0  0  0  0
  3 36  1  0  0  0  0
  4  5  1  0  0  0  0
  4  2  1  0  0  0  0
  6  4  1  0  0  0  0
  7  6  2  0  0  0  0
  8  6  1  1  0  0  0
  8  9  1  0  0  0  0
  8 13  1  0  0  0  0
  9 10  2  0  0  0  0
 10 11  1  0  0  0  0
 11 39  1  0  0  0  0
 11 12  2  0  0  0  0
 12 40  1  0  0  0  0
 13 12  1  0  0  0  0
 13  1  2  0  0  0  0
 14 10  1  0  0  0  0
 15 14  1  0  0  0  0
 15 16  1  0  0  0  0
 16 17  1  0  0  0  0
 16 20  2  0  0  0  0
 17 18  1  0  0  0  0
 18 19  2  0  0  0  0
 18 21  1  0  0  0  0
 19 43  1  0  0  0  0
 20 44  1  0  0  0  0
 20 19  1  0  0  0  0
 21 22  2  0  0  0  0
 23 21  1  0  0  0  0
 23 24  1  0  0  0  0
 24 25  1  1  0  0  0
 24 26  1  0  0  0  0
 26 47  1  0  0  0  0
 26 27  1  0  0  0  0
 26 46  1  0  0  0  0
 27 49  1  0  0  0  0
 27 28  1  0  0  0  0
 28 29  2  0  0  0  0
 28 30  1  0  0  0  0
 30 50  1  0  0  0  0
 31 24  1  0  0  0  0
 32 31  2  0  0  0  0
 33 31  1  0  0  0  0
 34 15  1  0  0  0  0
 34 53  1  0  0  0  0
 38  9  1  0  0  0  0
 41 14  1  0  0  0  0
 42 14  1  0  0  0  0
 45 23  1  0  0  0  0
 48 27  1  0  0  0  0
 51 33  1  0  0  0  0
 52 34  1  0  0  0  0
 54 34  1  0  0  0  0
M  RAD  1   8   2
M  END
$$$$
