
     RDKit          3D

 54 56  0  0  0  0  0  0  0  0999 V2000
   -0.8699    0.7497   -0.0082 N   0  0  0  0  0  0  0  0  0  0  0  0
    0.2674    1.3524    0.1632 C   0  0  0  0  0  0  0  0  0  0  0  0
    0.6437    1.8987    1.5044 C   0  0  0  0  0  0  0  0  0  0  0  0
    1.1323    1.5824   -0.8716 N   0  0  0  0  0  0  0  0  0  0  0  0
    2.0148    2.0543   -0.6945 H   0  0  0  0  0  0  0  0  0  0  0  0
    0.8797    1.2824   -2.2201 C   0  0  0  0  0  0  0  0  0  0  0  0
    1.6944    1.5528   -3.0809 O   0  0  0  0  0  0  0  0  0  0  0  0
   -0.4325    0.6555   -2.4180 C   0  0  0  0  0  0  0  0  0  0  0  0
   -0.9047    0.4127   -3.7134 C   0  0  0  0  0  0  0  0  0  0  0  0
   -2.1883   -0.0864   -3.9180 C   0  0  0  0  0  0  0  0  0  0  0  0
   -2.9633   -0.4261   -2.7911 C   0  0  0  0  0  0  0  0  0  0  0  0
   -2.5060   -0.2085   -1.5001 C   0  0  0  0  0  0  0  0  0  0  0  0
   -1.2473    0.3856   -1.2931 C   0  0  0  0  0  0  0  0  0  0  0  0
   -2.8170   -0.0268   -5.2975 C   0  0  0  0  0  0  0  0  0  0  0  0
   -2.7197    1.3200   -5.8905 N   0  0  0  0  0  0  0  0  0  0  0  0
   -2.9464    2.3985   -5.0541 C   0  0  0  0  0  0  0  0  0  0  0  0
   -4.2819    2.3761   -3.9219 S   0  0  0  0  0  0  0  0  0  0  0  0
   -3.7610    3.8832   -3.2115 C   0  0  0  0  0  0  0  0  0  0  0  0
   -2.6741    4.3994   -3.8823 C   0  0  0  0  0  0  0  0  0  0  0  0
   -2.2061    3.5659   -4.9328 C   0  0  0  0  0  0  0  0  0  0  0  0
   -4.4949    4.3633   -2.0281 C   0  0  0  0  0  0  0  0  0  0  0  0
   -5.6087    3.9386   -1.7310 O   0  0  0  0  0  0  0  0  0  0  0  0
   -3.8356    5.2932   -1.2735 N   0  0  0  0  0  0  0  0  0  0  0  0
   -4.4673    5.9785   -0.1771 C   0  0  1  0  0  0  0  0  0  0  0  0
   -5.5527    5.8447   -0.3010 H   0  0  0  0  0  0  0  0  0  0  0  0
   -4.0734    5.4436    1.2212 C   0  0  0  0  0  0  0  0  0  0  0  0
   -4.1881    3.9246    1.3366 C   0  0  0  0  0  0  0  0  0  0  0  0
   -2.9168    3.1803    0.9752 C   0  0  0  0  0  0  0  0  0  0  0  0
   -1.8855    3.7162    0.6123 O   0  0  0  0  0  0  0  0  0  0  0  0
   -3.0502    1.8691    1.1343 O   0  0  0  0  0  0  0  0  0  0  0  0
   -4.1389    7.4601   -0.2653 C   0  0  0  0  0  0  0  0  0  0  0  0
   -3.2733    7.9379   -0.9556 O   0  0  0  0  0  0  0  0  0  0  0  0
   -4.9033    8.1912    0.5654 O   0  0  0  0  0  0  0  0  0  0  0  0
   -1.7506    1.5150   -6.9522 C   0  0  0  0  0  0  0  0  0  0  0  0
    1.7325    1.8986    1.6610 H   0  0  0  0  0  0  0  0  0  0  0  0
    0.1581    1.3111    2.2933 H   0  0  0  0  0  0  0  0  0  0  0  0
    0.2639    2.9323    1.5639 H   0  0  0  0  0  0  0  0  0  0  0  0
   -0.2600    0.6980   -4.5458 H   0  0  0  0  0  0  0  0  0  0  0  0
   -3.9752   -0.8113   -2.9397 H   0  0  0  0  0  0  0  0  0  0  0  0
   -3.1372   -0.4208   -0.6364 H   0  0  0  0  0  0  0  0  0  0  0  0
   -3.8750   -0.3337   -5.2303 H   0  0  0  0  0  0  0  0  0  0  0  0
   -2.3314   -0.7238   -5.9961 H   0  0  0  0  0  0  0  0  0  0  0  0
   -2.2094    5.3521   -3.6220 H   0  0  0  0  0  0  0  0  0  0  0  0
   -1.3273    3.7886   -5.5355 H   0  0  0  0  0  0  0  0  0  0  0  0
   -2.8701    5.5228   -1.4726 H   0  0  0  0  0  0  0  0  0  0  0  0
   -4.7257    5.9336    1.9582 H   0  0  0  0  0  0  0  0  0  0  0  0
   -3.0369    5.7420    1.4444 H   0  0  0  0  0  0  0  0  0  0  0  0
   -4.9995    3.5302    0.7030 H   0  0  0  0  0  0  0  0  0  0  0  0
   -4.4386    3.6258    2.3677 H   0  0  0  0  0  0  0  0  0  0  0  0
   -2.2083    1.4025    0.8412 H   0  0  0  0  0  0  0  0  0  0  0  0
   -4.6064    9.1141    0.4853 H   0  0  0  0  0  0  0  0  0  0  0  0
   -1.7930    0.6640   -7.6464 H   0  0  0  0  0  0  0  0  0  0  0  0
   -0.7081    1.6140   -6.5880 H   0  0  0  0  0  0  0  0  0  0  0  0
   -1.9984    2.4274   -7.5143 H   0  0  0  0  0  0  0  0  0  0  0  0
  1  2  2  0
  1 13  1  0
  2  3  1  0
  2  4  1  0
  3 35  1  0
  3 36  1  0
  3 37  1  0
  4  5  1  0
  4  6  1  0
  6  7  2  0
  6  8  1  0
  8  9  1  0
  8 13  2  0
  9 10  2  0
  9 38  1  0
 10 11  1  0
 10 14  1  0
 11 12  2  0
 11 39  1  0
 12 13  1  0
 12 40  1  0
 14 15  1  0
 14 41  1  0
 14 42  1  0
 15 16  1  0
 15 34  1  0
 16 17  1  0
 16 20  2  0
 17 18  1  0
 18 19  2  0
 18 21  1  0
 19 20  1  0
 19 43  1  0
 20 44  1  0
 21 22  2  0
 21 23  1  0
 23 24  1  0
 23 45  1  0
 24 25  1  6
 24 26  1  0
 24 31  1  0
 26 27  1  0
 26 46  1  0
 26 47  1  0
 27 28  1  0
 27 48  1  0
 27 49  1  0
 28 29  2  0
 28 30  1  0
 30 50  1  0
 31 32  2  0
 31 33  1  0
 33 51  1  0
 34 52  1  0
 34 53  1  0
 34 54  1  0
M  END

