
     RDKit          3D

 54 56  0  0  0  0  0  0  0  0999 V2000
    0.5560    0.0216    0.2332 N   0  0  0  0  0  0  0  0  0  0  0  0
    1.0210    1.2029    0.4742 C   0  0  0  0  0  0  0  0  0  0  0  0
    1.6099    1.5412    1.8120 C   0  0  0  0  0  0  0  0  0  0  0  0
    1.0095    2.2157   -0.4612 N   0  0  0  0  0  0  0  0  0  0  0  0
    1.3861    3.1300   -0.2255 H   0  0  0  0  0  0  0  0  0  0  0  0
    0.5057    2.1008   -1.7623 C   0  0  0  0  0  0  0  0  0  0  0  0
    0.5269    3.0445   -2.5308 O   0  0  0  0  0  0  0  0  0  0  0  0
   -0.0190    0.7568   -2.0392 C   0  0  0  0  0  0  0  0  0  0  0  0
   -0.5623    0.4578   -3.2988 C   0  0  0  0  0  0  0  0  0  0  0  0
   -1.0628   -0.8096   -3.5745 C   0  0  0  0  0  0  0  0  0  0  0  0
   -1.0169   -1.7931   -2.5578 C   0  0  0  0  0  0  0  0  0  0  0  0
   -0.4846   -1.5109   -1.3105 C   0  0  0  0  0  0  0  0  0  0  0  0
    0.0278   -0.2273   -1.0224 C   0  0  0  0  0  0  0  0  0  0  0  0
   -1.7019   -1.1145   -4.9143 C   0  0  0  0  0  0  0  0  0  0  0  0
   -3.1557   -1.2349   -4.8456 N   0  0  0  0  0  0  0  0  0  0  0  0
   -3.7608   -2.4454   -4.6349 C   0  0  0  0  0  0  0  0  0  0  0  0
   -2.9258   -3.9557   -4.9561 S   0  0  0  0  0  0  0  0  0  0  0  0
   -4.3470   -4.8857   -4.5188 C   0  0  0  0  0  0  0  0  0  0  0  0
   -5.3852   -4.0563   -4.1579 C   0  0  0  0  0  0  0  0  0  0  0  0
   -5.0669   -2.6756   -4.2091 C   0  0  0  0  0  0  0  0  0  0  0  0
   -4.2161   -6.3476   -4.5860 C   0  0  0  0  0  0  0  0  0  0  0  0
   -3.1816   -6.8910   -4.9637 O   0  0  0  0  0  0  0  0  0  0  0  0
   -5.3135   -7.0739   -4.2057 N   0  0  0  0  0  0  0  0  0  0  0  0
   -5.2694   -8.5187   -4.2117 C   0  0  1  0  0  0  0  0  0  0  0  0
   -4.6638   -8.8303   -5.0766 H   0  0  0  0  0  0  0  0  0  0  0  0
   -4.6009   -9.0903   -2.9382 C   0  0  0  0  0  0  0  0  0  0  0  0
   -4.2284  -10.5635   -3.0449 C   0  0  0  0  0  0  0  0  0  0  0  0
   -3.6853  -11.1181   -1.7508 C   0  0  0  0  0  0  0  0  0  0  0  0
   -3.7119  -10.5644   -0.6789 O   0  0  0  0  0  0  0  0  0  0  0  0
   -3.1640  -12.3508   -1.9164 O   0  0  0  0  0  0  0  0  0  0  0  0
   -6.6508   -9.1212   -4.3903 C   0  0  0  0  0  0  0  0  0  0  0  0
   -6.8610  -10.2703   -4.6874 O   0  0  0  0  0  0  0  0  0  0  0  0
   -7.6470   -8.2516   -4.1168 O   0  0  0  0  0  0  0  0  0  0  0  0
   -3.8997   -0.0371   -4.5124 C   0  0  0  0  0  0  0  0  0  0  0  0
    1.0600    2.3715    2.2854 H   0  0  0  0  0  0  0  0  0  0  0  0
    2.6631    1.8520    1.7103 H   0  0  0  0  0  0  0  0  0  0  0  0
    1.5552    0.6572    2.4573 H   0  0  0  0  0  0  0  0  0  0  0  0
   -0.5756    1.2511   -4.0500 H   0  0  0  0  0  0  0  0  0  0  0  0
   -1.4059   -2.7925   -2.7646 H   0  0  0  0  0  0  0  0  0  0  0  0
   -0.4417   -2.2668   -0.5247 H   0  0  0  0  0  0  0  0  0  0  0  0
   -1.2971   -2.0462   -5.3362 H   0  0  0  0  0  0  0  0  0  0  0  0
   -1.4568   -0.3130   -5.6286 H   0  0  0  0  0  0  0  0  0  0  0  0
   -6.3675   -4.4204   -3.8496 H   0  0  0  0  0  0  0  0  0  0  0  0
   -5.7639   -1.8851   -3.9389 H   0  0  0  0  0  0  0  0  0  0  0  0
   -6.1388   -6.6204   -3.8381 H   0  0  0  0  0  0  0  0  0  0  0  0
   -5.2542   -8.9249   -2.0669 H   0  0  0  0  0  0  0  0  0  0  0  0
   -3.6925   -8.4941   -2.7719 H   0  0  0  0  0  0  0  0  0  0  0  0
   -3.4800  -10.7314   -3.8366 H   0  0  0  0  0  0  0  0  0  0  0  0
   -5.0964  -11.1798   -3.3321 H   0  0  0  0  0  0  0  0  0  0  0  0
   -2.8576  -12.6422   -1.0406 H   0  0  0  0  0  0  0  0  0  0  0  0
   -8.4832   -8.7375   -4.2228 H   0  0  0  0  0  0  0  0  0  0  0  0
   -3.3381    0.8425   -4.8549 H   0  0  0  0  0  0  0  0  0  0  0  0
   -4.0739    0.0676   -3.4248 H   0  0  0  0  0  0  0  0  0  0  0  0
   -4.8760   -0.0418   -5.0215 H   0  0  0  0  0  0  0  0  0  0  0  0
  1  2  2  0
  1 13  1  0
  2  3  1  0
  2  4  1  0
  3 35  1  0
  3 36  1  0
  3 37  1  0
  4  5  1  0
  4  6  1  0
  6  7  2  0
  6  8  1  0
  8  9  1  0
  8 13  2  0
  9 10  2  0
  9 38  1  0
 10 11  1  0
 10 14  1  0
 11 12  2  0
 11 39  1  0
 12 13  1  0
 12 40  1  0
 14 15  1  0
 14 41  1  0
 14 42  1  0
 15 16  1  0
 15 34  1  0
 16 17  1  0
 16 20  2  0
 17 18  1  0
 18 19  2  0
 18 21  1  0
 19 20  1  0
 19 43  1  0
 20 44  1  0
 21 22  2  0
 21 23  1  0
 23 24  1  0
 23 45  1  0
 24 25  1  6
 24 26  1  0
 24 31  1  0
 26 27  1  0
 26 46  1  0
 26 47  1  0
 27 28  1  0
 27 48  1  0
 27 49  1  0
 28 29  2  0
 28 30  1  0
 30 50  1  0
 31 32  2  0
 31 33  1  0
 33 51  1  0
 34 52  1  0
 34 53  1  0
 34 54  1  0
M  END

