rmsd126.gzmat
 OpenBabel08211713363D

 54 56  0  0  1  0  0  0  0  0999 V2000
    0.0000    0.0000    0.0000 N   0  0  0  0  0  0  0  0  0  0  0  0
    1.3091    0.0000    0.0000 C   0  0  0  0  0  0  0  0  0  0  0  0
    2.0608    0.0000    1.2889 C   0  0  0  0  0  0  0  0  0  0  0  0
    2.0719   -0.0014   -1.1751 N   0  0  0  0  0  0  0  0  0  0  0  0
    3.0872    0.0058   -1.1352 H   0  0  0  0  0  0  0  0  0  0  0  0
    1.4529    0.0400   -2.4485 C   0  0  0  0  0  0  0  0  0  0  0  0
    2.1672    0.0740   -3.4260 O   0  0  0  0  0  0  0  0  0  0  0  0
   -0.0047    0.0343   -2.4398 C   0  0  1  0  0  0  0  0  0  0  0  0
   -0.7142    0.0532   -3.6452 C   0  0  0  0  0  0  0  0  0  0  0  0
   -2.0991    0.0085   -3.6294 C   0  0  0  0  0  0  0  0  0  0  0  0
   -2.7853   -0.0129   -2.4013 C   0  0  0  0  0  0  0  0  0  0  0  0
   -2.1003   -0.0047   -1.2005 C   0  0  0  0  0  0  0  0  0  0  0  0
   -0.6907    0.0095   -1.2093 C   0  0  0  0  0  0  0  0  0  0  0  0
   -2.8694   -0.0318   -4.9245 C   0  0  0  0  0  0  0  0  0  0  0  0
   -2.5519   -1.2048   -5.7730 N   0  0  0  0  0  0  0  0  0  0  0  0
   -1.3219   -1.1615   -6.4298 C   0  0  0  0  0  0  0  0  0  0  0  0
   -1.0004    0.1094   -7.6150 S   0  0  0  0  0  0  0  0  0  0  0  0
    0.5721   -0.5551   -7.9749 C   0  0  0  0  0  0  0  0  0  0  0  0
    0.7855   -1.7168   -7.2790 C   0  0  0  0  0  0  0  0  0  0  0  0
   -0.2843   -2.0687   -6.4088 C   0  0  0  0  0  0  0  0  0  0  0  0
    1.4741    0.1610   -8.8725 C   0  0  0  0  0  0  0  0  0  0  0  0
    1.1686    1.1590   -9.5005 O   0  0  0  0  0  0  0  0  0  0  0  0
    2.7658   -0.3384   -8.9700 N   0  0  0  0  0  0  0  0  0  0  0  0
    3.7809    0.3991   -9.7015 C   0  0  1  0  0  0  0  0  0  0  0  0
    3.4110    1.4444   -9.9333 H   0  0  0  0  0  0  0  0  0  0  0  0
    5.1109    0.4561   -8.9169 C   0  0  0  0  0  0  0  0  0  0  0  0
    4.9571    1.1764   -7.5792 C   0  0  0  0  0  0  0  0  0  0  0  0
    4.3897    0.2730   -6.5222 C   0  0  0  0  0  0  0  0  0  0  0  0
    4.1703   -0.9116   -6.5861 O   0  0  0  0  0  0  0  0  0  0  0  0
    4.1516    0.9772   -5.3991 O   0  0  0  0  0  0  0  0  0  0  0  0
    4.0596   -0.3242  -11.0178 C   0  0  0  0  0  0  0  0  0  0  0  0
    3.9064   -1.4745  -11.3138 O   0  0  0  0  0  0  0  0  0  0  0  0
    4.5909    0.5653  -11.9002 O   0  0  0  0  0  0  0  0  0  0  0  0
   -2.8236   -2.4786   -5.0755 C   0  0  0  0  0  0  0  0  0  0  0  0
    2.9119   -0.6955    1.2854 H   0  0  0  0  0  0  0  0  0  0  0  0
    1.4032   -0.2973    2.1286 H   0  0  0  0  0  0  0  0  0  0  0  0
    2.4374    1.0074    1.5319 H   0  0  0  0  0  0  0  0  0  0  0  0
   -0.1498    0.0942   -4.5845 H   0  0  0  0  0  0  0  0  0  0  0  0
   -3.8767   -0.0368   -2.3965 H   0  0  0  0  0  0  0  0  0  0  0  0
   -2.6214   -0.0126   -0.2428 H   0  0  0  0  0  0  0  0  0  0  0  0
   -2.6972    0.9081   -5.5014 H   0  0  0  0  0  0  0  0  0  0  0  0
   -3.9703   -0.0599   -4.7405 H   0  0  0  0  0  0  0  0  0  0  0  0
    1.6838   -2.3228   -7.3359 H   0  0  0  0  0  0  0  0  0  0  0  0
   -0.2430   -2.9463   -5.7850 H   0  0  0  0  0  0  0  0  0  0  0  0
    3.0850   -1.1275   -8.4180 H   0  0  0  0  0  0  0  0  0  0  0  0
    5.8699    0.9752   -9.5395 H   0  0  0  0  0  0  0  0  0  0  0  0
    5.5035   -0.5717   -8.7538 H   0  0  0  0  0  0  0  0  0  0  0  0
    4.3111    2.0792   -7.6807 H   0  0  0  0  0  0  0  0  0  0  0  0
    5.9376    1.5698   -7.2307 H   0  0  0  0  0  0  0  0  0  0  0  0
    3.6494    0.4766   -4.6951 H   0  0  0  0  0  0  0  0  0  0  0  0
    4.7753    0.1847  -12.7913 H   0  0  0  0  0  0  0  0  0  0  0  0
   -3.8630   -2.4768   -4.7091 H   0  0  0  0  0  0  0  0  0  0  0  0
   -2.1527   -2.6661   -4.2208 H   0  0  0  0  0  0  0  0  0  0  0  0
   -2.7264   -3.3129   -5.7919 H   0  0  0  0  0  0  0  0  0  0  0  0
  2  1  2  0  0  0  0
  2  3  1  0  0  0  0
  3 37  1  0  0  0  0
  3 36  1  0  0  0  0
  4  5  1  0  0  0  0
  4  2  1  0  0  0  0
  6  4  1  0  0  0  0
  7  6  2  0  0  0  0
  8  6  1  6  0  0  0
  8  9  1  0  0  0  0
  8 13  1  0  0  0  0
  9 10  2  0  0  0  0
 10 11  1  0  0  0  0
 11 39  1  0  0  0  0
 11 12  2  0  0  0  0
 12 40  1  0  0  0  0
 13 12  1  0  0  0  0
 13  1  2  0  0  0  0
 14 42  1  0  0  0  0
 14 10  1  0  0  0  0
 15 34  1  0  0  0  0
 15 14  1  0  0  0  0
 16 20  2  0  0  0  0
 16 15  1  0  0  0  0
 17 16  1  0  0  0  0
 18 17  1  0  0  0  0
 18 19  2  0  0  0  0
 19 20  1  0  0  0  0
 20 44  1  0  0  0  0
 21 18  1  0  0  0  0
 22 21  2  0  0  0  0
 23 21  1  0  0  0  0
 23 45  1  0  0  0  0
 24 25  1  6  0  0  0
 24 23  1  0  0  0  0
 24 26  1  0  0  0  0
 26 47  1  0  0  0  0
 26 27  1  0  0  0  0
 27 49  1  0  0  0  0
 27 28  1  0  0  0  0
 28 30  1  0  0  0  0
 29 28  2  0  0  0  0
 30 50  1  0  0  0  0
 31 24  1  0  0  0  0
 32 31  2  0  0  0  0
 33 31  1  0  0  0  0
 34 52  1  0  0  0  0
 34 53  1  0  0  0  0
 35  3  1  0  0  0  0
 38  9  1  0  0  0  0
 41 14  1  0  0  0  0
 43 19  1  0  0  0  0
 46 26  1  0  0  0  0
 48 27  1  0  0  0  0
 51 33  1  0  0  0  0
 54 34  1  0  0  0  0
M  RAD  1   8   2
M  END
$$$$
