54
rmsd126.gzmat
N          0.00000        0.00000        0.00000
C          1.30910        0.00000        0.00000
C          2.06080        0.00000        1.28890
N          2.07190       -0.00140       -1.17510
H          3.08720        0.00580       -1.13520
C          1.45290        0.04000       -2.44850
O          2.16720        0.07400       -3.42600
C         -0.00470        0.03430       -2.43980
C         -0.71420        0.05320       -3.64520
C         -2.09910        0.00850       -3.62940
C         -2.78530       -0.01290       -2.40130
C         -2.10030       -0.00470       -1.20050
C         -0.69070        0.00950       -1.20930
C         -2.86940       -0.03180       -4.92450
N         -2.55190       -1.20480       -5.77300
C         -1.32190       -1.16150       -6.42980
S         -1.00040        0.10940       -7.61500
C          0.57210       -0.55510       -7.97490
C          0.78550       -1.71680       -7.27900
C         -0.28430       -2.06870       -6.40880
C          1.47410        0.16100       -8.87250
O          1.16860        1.15900       -9.50050
N          2.76580       -0.33840       -8.97000
C          3.78090        0.39910       -9.70150
H          3.41100        1.44440       -9.93330
C          5.11090        0.45610       -8.91690
C          4.95710        1.17640       -7.57920
C          4.38970        0.27300       -6.52220
O          4.17030       -0.91160       -6.58610
O          4.15160        0.97720       -5.39910
C          4.05960       -0.32420      -11.01780
O          3.90640       -1.47450      -11.31380
O          4.59090        0.56530      -11.90020
C         -2.82360       -2.47860       -5.07550
H          2.91190       -0.69550        1.28540
H          1.40320       -0.29730        2.12860
H          2.43740        1.00740        1.53190
H         -0.14980        0.09420       -4.58450
H         -3.87670       -0.03680       -2.39650
H         -2.62140       -0.01260       -0.24280
H         -2.69720        0.90810       -5.50140
H         -3.97030       -0.05990       -4.74050
H          1.68380       -2.32280       -7.33590
H         -0.24300       -2.94630       -5.78500
H          3.08500       -1.12750       -8.41800
H          5.86990        0.97520       -9.53950
H          5.50350       -0.57170       -8.75380
H          4.31110        2.07920       -7.68070
H          5.93760        1.56980       -7.23070
H          3.64940        0.47660       -4.69510
H          4.77530        0.18470      -12.79130
H         -3.86300       -2.47680       -4.70910
H         -2.15270       -2.66610       -4.22080
H         -2.72640       -3.31290       -5.79190
