
     RDKit          3D

 54 56  0  0  0  0  0  0  0  0999 V2000
   -0.0622    0.5003   -0.1606 N   0  0  0  0  0  0  0  0  0  0  0  0
    1.2229    0.3438   -0.1829 C   0  0  0  0  0  0  0  0  0  0  0  0
    2.0362    0.4425    1.0733 C   0  0  0  0  0  0  0  0  0  0  0  0
    1.9309    0.0767   -1.3348 N   0  0  0  0  0  0  0  0  0  0  0  0
    2.9495   -0.0801   -1.2995 H   0  0  0  0  0  0  0  0  0  0  0  0
    1.3580   -0.0349   -2.5868 C   0  0  0  0  0  0  0  0  0  0  0  0
    2.0491   -0.2950   -3.5724 O   0  0  0  0  0  0  0  0  0  0  0  0
   -0.0911    0.1573   -2.5892 C   0  0  0  0  0  0  0  0  0  0  0  0
   -0.8173    0.0462   -3.7823 C   0  0  0  0  0  0  0  0  0  0  0  0
   -2.2091    0.1212   -3.7836 C   0  0  0  0  0  0  0  0  0  0  0  0
   -2.8632    0.3595   -2.5542 C   0  0  0  0  0  0  0  0  0  0  0  0
   -2.1562    0.5077   -1.3678 C   0  0  0  0  0  0  0  0  0  0  0  0
   -0.7496    0.3937   -1.3559 C   0  0  0  0  0  0  0  0  0  0  0  0
   -2.9755   -0.2234   -5.0453 C   0  0  0  0  0  0  0  0  0  0  0  0
   -3.0550   -1.6911   -5.2661 N   0  0  0  0  0  0  0  0  0  0  0  0
   -1.8018   -2.2993   -5.3629 C   0  0  0  0  0  0  0  0  0  0  0  0
   -0.7710   -1.9511   -6.7441 S   0  0  0  0  0  0  0  0  0  0  0  0
    0.5871   -2.7274   -5.9756 C   0  0  0  0  0  0  0  0  0  0  0  0
    0.2240   -3.3013   -4.7816 C   0  0  0  0  0  0  0  0  0  0  0  0
   -1.1395   -3.0765   -4.4367 C   0  0  0  0  0  0  0  0  0  0  0  0
    1.9701   -2.6202   -6.5258 C   0  0  0  0  0  0  0  0  0  0  0  0
    2.2973   -2.8968   -7.6682 O   0  0  0  0  0  0  0  0  0  0  0  0
    2.8450   -2.1694   -5.5758 N   0  0  0  0  0  0  0  0  0  0  0  0
    4.2388   -1.9769   -5.8865 C   0  0  1  0  0  0  0  0  0  0  0  0
    4.3536   -1.4279   -6.8366 H   0  0  0  0  0  0  0  0  0  0  0  0
    4.9279   -1.1643   -4.7766 C   0  0  0  0  0  0  0  0  0  0  0  0
    4.8656   -1.8373   -3.3919 C   0  0  0  0  0  0  0  0  0  0  0  0
    5.4079   -0.9374   -2.3147 C   0  0  0  0  0  0  0  0  0  0  0  0
    4.7643   -0.4069   -1.4288 O   0  0  0  0  0  0  0  0  0  0  0  0
    6.7275   -0.7407   -2.4261 O   0  0  0  0  0  0  0  0  0  0  0  0
    4.9956   -3.2838   -6.1190 C   0  0  0  0  0  0  0  0  0  0  0  0
    6.0519   -3.3399   -6.6958 O   0  0  0  0  0  0  0  0  0  0  0  0
    4.4042   -4.3554   -5.5620 O   0  0  0  0  0  0  0  0  0  0  0  0
   -4.0019   -2.3681   -4.3952 C   0  0  0  0  0  0  0  0  0  0  0  0
    2.6027   -0.4872    1.2453 H   0  0  0  0  0  0  0  0  0  0  0  0
    1.3667    0.6284    1.9207 H   0  0  0  0  0  0  0  0  0  0  0  0
    2.7703    1.2612    0.9969 H   0  0  0  0  0  0  0  0  0  0  0  0
   -0.2602   -0.1322   -4.7021 H   0  0  0  0  0  0  0  0  0  0  0  0
   -3.9549    0.4262   -2.5375 H   0  0  0  0  0  0  0  0  0  0  0  0
   -2.6627    0.6974   -0.4201 H   0  0  0  0  0  0  0  0  0  0  0  0
   -2.4884    0.2256   -5.9226 H   0  0  0  0  0  0  0  0  0  0  0  0
   -4.0047    0.1625   -5.0038 H   0  0  0  0  0  0  0  0  0  0  0  0
    0.9372   -3.8361   -4.1535 H   0  0  0  0  0  0  0  0  0  0  0  0
   -1.5907   -3.3980   -3.4988 H   0  0  0  0  0  0  0  0  0  0  0  0
    2.4534   -1.6371   -4.7965 H   0  0  0  0  0  0  0  0  0  0  0  0
    4.4293   -0.1852   -4.7191 H   0  0  0  0  0  0  0  0  0  0  0  0
    5.9753   -1.0002   -5.0664 H   0  0  0  0  0  0  0  0  0  0  0  0
    5.4599   -2.7649   -3.3975 H   0  0  0  0  0  0  0  0  0  0  0  0
    3.8318   -2.0830   -3.1285 H   0  0  0  0  0  0  0  0  0  0  0  0
    6.9920   -0.1291   -1.7168 H   0  0  0  0  0  0  0  0  0  0  0  0
    4.9602   -5.1211   -5.7878 H   0  0  0  0  0  0  0  0  0  0  0  0
   -4.9986   -1.9184   -4.5231 H   0  0  0  0  0  0  0  0  0  0  0  0
   -3.7372   -2.3102   -3.3199 H   0  0  0  0  0  0  0  0  0  0  0  0
   -4.0610   -3.4288   -4.6770 H   0  0  0  0  0  0  0  0  0  0  0  0
  1  2  2  0
  1 13  1  0
  2  3  1  0
  2  4  1  0
  3 35  1  0
  3 36  1  0
  3 37  1  0
  4  5  1  0
  4  6  1  0
  6  7  2  0
  6  8  1  0
  8  9  1  0
  8 13  2  0
  9 10  2  0
  9 38  1  0
 10 11  1  0
 10 14  1  0
 11 12  2  0
 11 39  1  0
 12 13  1  0
 12 40  1  0
 14 15  1  0
 14 41  1  0
 14 42  1  0
 15 16  1  0
 15 34  1  0
 16 17  1  0
 16 20  2  0
 17 18  1  0
 18 19  2  0
 18 21  1  0
 19 20  1  0
 19 43  1  0
 20 44  1  0
 21 22  2  0
 21 23  1  0
 23 24  1  0
 23 45  1  0
 24 25  1  6
 24 26  1  0
 24 31  1  0
 26 27  1  0
 26 46  1  0
 26 47  1  0
 27 28  1  0
 27 48  1  0
 27 49  1  0
 28 29  2  0
 28 30  1  0
 30 50  1  0
 31 32  2  0
 31 33  1  0
 33 51  1  0
 34 52  1  0
 34 53  1  0
 34 54  1  0
M  END

