54

N          0.68920       -0.10990       -0.09230
C          1.85420        0.43200       -0.23000
C          2.80780        0.51330        0.92540
N          2.29490        0.96290       -1.42360
H          3.22090        1.37780       -1.48460
C          1.55740        0.98490       -2.61340
O          2.01820        1.46920       -3.63040
C          0.23030        0.37390       -2.45680
C         -0.64850        0.30730       -3.55000
C         -1.90640       -0.26830       -3.41630
C         -2.27970       -0.79920       -2.15890
C         -1.42050       -0.74330       -1.07350
C         -0.14450       -0.15160       -1.19710
C         -2.85190       -0.34750       -4.59970
N         -3.34770       -1.69070       -4.86370
C         -4.53930       -2.10270       -4.32600
S         -4.97600       -3.80130       -4.37950
C         -6.51880       -3.48810       -3.59610
C         -6.64670       -2.14720       -3.31290
C         -5.54060       -1.35690       -3.70810
C         -7.52300       -4.51910       -3.28580
O         -8.58600       -4.24240       -2.73780
N         -7.21960       -5.80590       -3.64400
C         -8.12410       -6.88510       -3.32950
H         -8.53770       -6.72220       -2.31920
C         -9.31200       -6.95180       -4.31920
C        -10.50690       -7.75010       -3.81470
C        -11.64030       -7.78770       -4.81100
O        -11.60810       -7.35370       -5.93580
O        -12.73220       -8.39270       -4.29810
C         -7.31250       -8.16800       -3.31910
O         -6.17800       -8.26530       -3.72100
O         -8.00120       -9.21330       -2.83060
C         -2.38120       -2.67450       -5.30890
H          3.74700       -0.01820        0.69830
H          2.33890        0.05830        1.80500
H          3.06290        1.56210        1.15130
H         -0.30930        0.71990       -4.50330
H         -3.26210       -1.26240       -2.04370
H         -1.70340       -1.14950       -0.10110
H         -2.33420        0.01590       -5.50170
H         -3.71460        0.31730       -4.45250
H         -7.54100       -1.76370       -2.82110
H         -5.48120       -0.28260       -3.54510
H         -6.31280       -6.07090       -4.01520
H         -8.96840       -7.33910       -5.29120
H         -9.62590       -5.91270       -4.48650
H        -10.89600       -7.32730       -2.87310
H        -10.23910       -8.79200       -3.57820
H        -13.40800       -8.38300       -4.99740
H         -7.41910       -9.99090       -2.89130
H         -1.57270       -2.16560       -5.85100
H         -2.85570       -3.39200       -5.99770
H         -1.93270       -3.24120       -4.47100
