54

N          0.10340        0.04840        0.09340
C          1.27850        0.58560        0.09190
C          2.02070        0.82030        1.37450
N          1.92140        0.97370       -1.06470
H          2.84700        1.39080       -1.01650
C          1.39940        0.84040       -2.35670
O          2.03100        1.20430       -3.33130
C          0.06040        0.23440       -2.35650
C         -0.61670        0.02190       -3.56720
C         -1.88310       -0.55220       -3.58190
C         -2.46940       -0.93200       -2.35310
C         -1.80940       -0.73100       -1.15080
C         -0.52880       -0.13920       -1.12430
C         -2.61680       -0.75830       -4.89580
N         -3.37850       -1.99160       -4.97220
C         -4.69890       -2.01100       -4.60850
S         -5.55140       -3.53740       -4.49480
C         -7.04110       -2.72450       -4.06000
C         -6.85480       -1.35970       -3.99250
C         -5.53620       -0.94090       -4.29150
C         -8.21180       -3.57580       -3.81720
O         -8.14750       -4.80160       -3.84630
N         -9.38500       -2.92190       -3.53680
C        -10.61040       -3.66230       -3.35710
H        -10.66020       -4.48000       -4.09760
C        -10.71670       -4.31470       -1.96280
C        -10.68410       -3.28650       -0.82970
C        -10.67750       -3.90130        0.54880
O        -11.42890       -3.61590        1.44780
O         -9.70650       -4.82950        0.68500
C        -11.76830       -2.71710       -3.62250
O        -11.65270       -1.53750       -3.85600
O        -12.95410       -3.33700       -3.54520
C         -2.64020       -3.23510       -5.07120
H          2.98080        0.27780        1.37820
H          1.40460        0.46960        2.21010
H          2.24130        1.89220        1.51060
H         -0.11440        0.31870       -4.49120
H         -3.45940       -1.39240       -2.35090
H         -2.25770       -1.02270       -0.19970
H         -1.88700       -0.74630       -5.72120
H         -3.30010        0.08270       -5.08760
H         -7.64470       -0.65910       -3.71450
H         -5.21370        0.09780       -4.25880
H         -9.48670       -1.92760       -3.71040
H         -9.87000       -5.00760       -1.87020
H        -11.64290       -4.90790       -1.91960
H        -11.54530       -2.60390       -0.86680
H         -9.76830       -2.67930       -0.93140
H         -9.77180       -5.16850        1.59410
H        -13.64070       -2.66610       -3.70320
H         -1.65520       -3.03510       -5.51360
H         -3.17140       -3.94650       -5.72460
H         -2.48750       -3.71820       -4.08780
