54
rmsd208.gzmat
N          0.00000        0.00000        0.00000
C          1.31000        0.00000        0.00000
C          2.06010        0.00000        1.29040
N          2.06940       -0.00160       -1.17390
H          3.08530       -0.01290       -1.13700
C          1.45080        0.00700       -2.45360
O          2.17340       -0.00310       -3.42390
C         -0.00840        0.02090       -2.44230
C         -0.72640        0.04250       -3.64510
C         -2.11070        0.03860       -3.61680
C         -2.79240        0.01950       -2.38440
C         -2.10100        0.00140       -1.19000
C         -0.69000        0.00570       -1.20870
C         -2.89270        0.02040       -4.90290
N         -3.28770       -1.34970       -5.29760
C         -4.31930       -1.92770       -4.60210
S         -4.49710       -3.69040       -4.42410
C         -6.03000       -3.51430       -3.62000
C         -6.36050       -2.19300       -3.47540
C         -5.41180       -1.29460       -4.03310
C         -6.82140       -4.62590       -3.10680
O         -7.31640       -4.65700       -1.99710
N         -7.01670       -5.69450       -3.97550
C         -7.80130       -6.84130       -3.53310
H         -7.82280       -6.87030       -2.40090
C         -9.24090       -6.77920       -4.08390
C        -10.15410       -7.73510       -3.32050
C        -11.49510       -7.79760       -3.97460
O        -11.87050       -7.28680       -4.99580
O        -12.33790       -8.56870       -3.23520
C         -7.12090       -8.09110       -4.07730
O         -6.45520       -8.20230       -5.07020
O         -7.38160       -9.15180       -3.27440
C         -2.15390       -2.19550       -5.70270
H          2.61380       -0.94020        1.44000
H          1.36680        0.09890        2.14930
H          2.77060        0.83730        1.35800
H         -0.17440        0.06060       -4.58930
H         -3.88640        0.00920       -2.37670
H         -2.61720       -0.01820       -0.22870
H         -2.30490        0.46130       -5.74390
H         -3.80830        0.65370       -4.82670
H         -7.26430       -1.84670       -2.98360
H         -5.56820       -0.23030       -4.02200
H         -6.68230       -5.70200       -4.92840
H         -9.26270       -6.99170       -5.17270
H         -9.61940       -5.73640       -3.99430
H        -10.26320       -7.42040       -2.25640
H         -9.71640       -8.76020       -3.26230
H        -13.24500       -8.64530       -3.61840
H         -6.96360       -9.99640       -3.57650
H         -1.43470       -1.59910       -6.29260
H         -2.50410       -3.00740       -6.36680
H         -1.60630       -2.63270       -4.84830
