
     RDKit          3D

 54 56  0  0  0  0  0  0  0  0999 V2000
    0.1359    0.1838    0.0542 N   0  0  0  0  0  0  0  0  0  0  0  0
    1.4198    0.0508   -0.0076 C   0  0  0  0  0  0  0  0  0  0  0  0
    2.2602    0.0984    1.2342 C   0  0  0  0  0  0  0  0  0  0  0  0
    2.0948   -0.1402   -1.1945 N   0  0  0  0  0  0  0  0  0  0  0  0
    3.1066   -0.2381   -1.1940 H   0  0  0  0  0  0  0  0  0  0  0  0
    1.4940   -0.2138   -2.4568 C   0  0  0  0  0  0  0  0  0  0  0  0
    2.1595   -0.3806   -3.4621 O   0  0  0  0  0  0  0  0  0  0  0  0
    0.0336   -0.0677   -2.3871 C   0  0  0  0  0  0  0  0  0  0  0  0
   -0.7362   -0.1152   -3.5606 C   0  0  0  0  0  0  0  0  0  0  0  0
   -2.1181    0.0224   -3.5095 C   0  0  0  0  0  0  0  0  0  0  0  0
   -2.7344    0.2244   -2.2515 C   0  0  0  0  0  0  0  0  0  0  0  0
   -1.9861    0.2771   -1.0870 C   0  0  0  0  0  0  0  0  0  0  0  0
   -0.5824    0.1290   -1.1280 C   0  0  0  0  0  0  0  0  0  0  0  0
   -2.9477   -0.0104   -4.7782 C   0  0  0  0  0  0  0  0  0  0  0  0
   -3.7554    1.1874   -4.9748 N   0  0  0  0  0  0  0  0  0  0  0  0
   -5.0512    1.2225   -4.5309 C   0  0  0  0  0  0  0  0  0  0  0  0
   -5.8878    2.7608   -4.4074 S   0  0  0  0  0  0  0  0  0  0  0  0
   -7.3638    1.9785   -3.8580 C   0  0  0  0  0  0  0  0  0  0  0  0
   -7.1739    0.6190   -3.7547 C   0  0  0  0  0  0  0  0  0  0  0  0
   -5.8805    0.1791   -4.1248 C   0  0  0  0  0  0  0  0  0  0  0  0
   -8.6111    2.6924   -3.5445 C   0  0  0  0  0  0  0  0  0  0  0  0
   -9.5674    2.1333   -3.0205 O   0  0  0  0  0  0  0  0  0  0  0  0
   -8.6435    4.0319   -3.8579 N   0  0  0  0  0  0  0  0  0  0  0  0
   -9.8464    4.7995   -3.6134 C   0  0  1  0  0  0  0  0  0  0  0  0
  -10.7137    4.1482   -3.8276 H   0  0  0  0  0  0  0  0  0  0  0  0
   -9.9846    5.2487   -2.1484 C   0  0  0  0  0  0  0  0  0  0  0  0
   -8.8339    6.1508   -1.6987 C   0  0  0  0  0  0  0  0  0  0  0  0
   -8.8503    6.4889   -0.2268 C   0  0  0  0  0  0  0  0  0  0  0  0
   -7.8944    6.4697    0.5075 O   0  0  0  0  0  0  0  0  0  0  0  0
  -10.0812    6.8462    0.1992 O   0  0  0  0  0  0  0  0  0  0  0  0
   -9.9720    5.9863   -4.5554 C   0  0  0  0  0  0  0  0  0  0  0  0
  -10.7675    6.8786   -4.4135 O   0  0  0  0  0  0  0  0  0  0  0  0
   -9.0995    5.9464   -5.5852 O   0  0  0  0  0  0  0  0  0  0  0  0
   -3.0410    2.4275   -5.2024 C   0  0  0  0  0  0  0  0  0  0  0  0
    2.8198   -0.8425    1.3664 H   0  0  0  0  0  0  0  0  0  0  0  0
    1.6061    0.2542    2.0994 H   0  0  0  0  0  0  0  0  0  0  0  0
    2.9940    0.9199    1.1810 H   0  0  0  0  0  0  0  0  0  0  0  0
   -0.2129   -0.2618   -4.5086 H   0  0  0  0  0  0  0  0  0  0  0  0
   -3.8189    0.3434   -2.1992 H   0  0  0  0  0  0  0  0  0  0  0  0
   -2.4557    0.4314   -0.1142 H   0  0  0  0  0  0  0  0  0  0  0  0
   -3.6147   -0.8833   -4.7856 H   0  0  0  0  0  0  0  0  0  0  0  0
   -2.2796   -0.1239   -5.6464 H   0  0  0  0  0  0  0  0  0  0  0  0
   -7.9780   -0.0340   -3.4144 H   0  0  0  0  0  0  0  0  0  0  0  0
   -5.5691   -0.8630   -4.0924 H   0  0  0  0  0  0  0  0  0  0  0  0
   -7.9509    4.4213   -4.4856 H   0  0  0  0  0  0  0  0  0  0  0  0
  -10.0214    4.3347   -1.5384 H   0  0  0  0  0  0  0  0  0  0  0  0
  -10.9433    5.7711   -2.0296 H   0  0  0  0  0  0  0  0  0  0  0  0
   -8.8802    7.1097   -2.2461 H   0  0  0  0  0  0  0  0  0  0  0  0
   -7.8605    5.6883   -1.9106 H   0  0  0  0  0  0  0  0  0  0  0  0
   -9.9971    7.0511    1.1462 H   0  0  0  0  0  0  0  0  0  0  0  0
   -9.2696    6.7352   -6.1290 H   0  0  0  0  0  0  0  0  0  0  0  0
   -2.0920    2.2088   -5.7107 H   0  0  0  0  0  0  0  0  0  0  0  0
   -2.8139    2.9674   -4.2637 H   0  0  0  0  0  0  0  0  0  0  0  0
   -3.6316    3.0934   -5.8520 H   0  0  0  0  0  0  0  0  0  0  0  0
  1  2  2  0
  1 13  1  0
  2  3  1  0
  2  4  1  0
  3 35  1  0
  3 36  1  0
  3 37  1  0
  4  5  1  0
  4  6  1  0
  6  7  2  0
  6  8  1  0
  8  9  1  0
  8 13  2  0
  9 10  2  0
  9 38  1  0
 10 11  1  0
 10 14  1  0
 11 12  2  0
 11 39  1  0
 12 13  1  0
 12 40  1  0
 14 15  1  0
 14 41  1  0
 14 42  1  0
 15 16  1  0
 15 34  1  0
 16 17  1  0
 16 20  2  0
 17 18  1  0
 18 19  2  0
 18 21  1  0
 19 20  1  0
 19 43  1  0
 20 44  1  0
 21 22  2  0
 21 23  1  0
 23 24  1  0
 23 45  1  0
 24 25  1  6
 24 26  1  0
 24 31  1  0
 26 27  1  0
 26 46  1  0
 26 47  1  0
 27 28  1  0
 27 48  1  0
 27 49  1  0
 28 29  2  0
 28 30  1  0
 30 50  1  0
 31 32  2  0
 31 33  1  0
 33 51  1  0
 34 52  1  0
 34 53  1  0
 34 54  1  0
M  END

