48
rmsd163.gzmat
C          0.00000        0.00000        0.00000
C          1.39410        0.00000        0.00000
C          2.08440        0.00000        1.20740
C          1.35930       -0.02660        2.41270
C         -0.03740       -0.06270        2.41830
C         -0.71120       -0.05210        1.20200
O          2.14410        0.00170        3.51580
C          1.53440       -0.23660        4.77930
C          3.56830       -0.05460        1.18640
O          4.18970       -0.82770        0.48750
N          4.21730        0.88320        1.97420
C          5.65600        0.74720        2.22720
C          5.91630        0.45670        3.67860
C          6.91460        1.13000        4.38040
C          7.10070        0.85390        5.73370
C          6.26440       -0.08590        6.34800
N          5.30310       -0.74830        5.67560
C          5.14360       -0.49420        4.36600
C         -0.77380        0.00330       -1.26710
O         -1.67560       -0.77550       -1.50250
N         -0.45100        1.00780       -2.16240
C         -1.10470        1.05330       -3.47350
C         -0.22650        0.44210       -4.52850
C         -0.01100       -0.93720       -4.56130
C          0.81490       -1.47220       -5.54530
C          1.40120       -0.60170       -6.47480
N          1.19520        0.72790       -6.45280
C          0.39700        1.23980       -5.49780
H          1.95710       -0.01950       -0.93930
H         -0.59520       -0.10000        3.34850
H         -1.80450       -0.09050        1.17880
H          0.88460        0.59800        5.05580
H          2.41030       -0.28850        5.44800
H          0.99950       -1.19170        4.78510
H          3.69780        1.43220        2.64330
H          6.15910        1.68960        1.90310
H          6.08330       -0.06910        1.58420
H          7.54380        1.86610        3.88080
H          7.87580        1.35820        6.30290
H          6.35430       -0.33060        7.41200
H          4.36110       -1.07480        3.85650
H          0.34820        1.60290       -2.02730
H         -1.35730        2.11340       -3.71040
H         -2.08420        0.50680       -3.42210
H         -0.48970       -1.58240       -3.81870
H          1.00220       -2.54090       -5.59790
H          2.06030       -0.96620       -7.27130
H          0.26260        2.32670       -5.52810
