48
rmsd139.gzmat
C          0.00000        0.00000        0.00000
C          1.39600        0.00000        0.00000
C          2.08940        0.00000        1.20640
C          1.36230       -0.00620        2.41040
C         -0.03520       -0.01490        2.41470
C         -0.71100       -0.01540        1.19860
O          2.14340       -0.00990        3.51680
C          1.51190        0.10120        4.78570
C          3.57030        0.07990        1.15270
O          4.14860        0.78740        0.35040
N          4.27670       -0.75090        2.00800
C          5.72550       -0.55030        2.13880
C          6.01010        0.50120        3.17480
C          5.84940        1.85440        2.86950
C          6.06240        2.80450        3.86340
C          6.43270        2.36490        5.14160
N          6.59550        1.06310        5.44230
C          6.39060        0.14900        4.47620
C         -0.68800       -0.01650       -1.31480
O         -0.45080       -0.83080       -2.18290
N         -1.65210        0.96310       -1.50180
C         -2.24900        1.12770       -2.83230
C         -1.44130        2.08420       -3.66420
C         -0.20400        1.70050       -4.18540
C          0.53250        2.61600       -4.93090
C         -0.00110        3.89560       -5.13750
N         -1.19550        4.27090       -4.64420
C         -1.90160        3.38240       -3.92090
H          1.95160        0.00610       -0.94740
H         -0.59400       -0.02530        3.34470
H         -1.80310       -0.03480        1.18570
H          0.95010        1.03760        4.86080
H          2.37540        0.11850        5.46760
H          0.87970       -0.76970        4.98300
H          3.80950       -1.18360        2.79030
H          6.14800       -0.25100        1.14370
H          6.19520       -1.52750        2.39610
H          5.54850        2.15590        1.86000
H          5.94230        3.86430        3.65620
H          6.61040        3.06730        5.96370
H          6.54010       -0.89520        4.77240
H         -1.73080        1.74250       -0.87010
H         -3.30120        1.47360       -2.70960
H         -2.30650        0.12740       -3.33750
H          0.17780        0.69050       -4.00350
H          1.50080        2.34820       -5.34450
H          0.53350        4.65760       -5.71640
H         -2.86570        3.74000       -3.54340
