48

C         -0.25990        0.04590        0.14390
C          1.10600        0.23070       -0.08170
C          2.03630        0.31370        0.95980
C          1.56040        0.20450        2.28970
C          0.19040        0.00650        2.52760
C         -0.70410       -0.07900        1.46600
O          2.46230        0.29720        3.30450
C          2.03010        0.21780        4.65000
C          3.46790        0.51950        0.51770
O          3.72930        0.67330       -0.67170
N          4.43050        0.50840        1.47620
C          5.82300        0.76370        1.15270
C          6.21680        2.21620        1.32080
C          7.05240        2.64460        2.35550
C          7.35460        4.00320        2.47200
C          6.80160        4.88660        1.54240
N          6.00280        4.49440        0.54520
C          5.72250        3.19560        0.43990
C         -1.28410       -0.05720       -0.94780
O         -2.41300       -0.48070       -0.72550
N         -0.88630        0.34460       -2.18990
C         -1.79780        0.32440       -3.32360
C         -2.58170        1.60720       -3.49340
C         -3.58290        1.97410       -2.58150
C         -4.25750        3.17800       -2.77360
C         -3.91090        3.97460       -3.87140
N         -2.96380        3.63790       -4.74790
C         -2.32170        2.48360       -4.55480
H          1.52810        0.30460       -1.08510
H         -0.18460       -0.08420        3.54570
H         -1.76830       -0.24470        1.64120
H          1.31810        1.02430        4.89180
H          2.92880        0.33290        5.26920
H          1.56320       -0.75750        4.86660
H          4.13220        0.47720        2.44470
H          5.96950        0.45410        0.10870
H          6.45730        0.12950        1.79150
H          7.46670        1.91990        3.06320
H          8.00630        4.37200        3.26730
H          7.01660        5.95990        1.60510
H          5.06940        2.88980       -0.38560
H         -0.02510        0.86830       -2.28190
H         -2.48720       -0.51510       -3.15770
H         -1.21710        0.11640       -4.23530
H         -3.81310        1.31390       -1.74190
H         -5.04490        3.49810       -2.08750
H         -4.42560        4.92670       -4.04680
H         -1.54820        2.22710       -5.29090
