
     RDKit          3D

 48 50  0  0  0  0  0  0  0  0999 V2000
   -0.0152    0.1263   -0.1199 C   0  0  0  0  0  0  0  0  0  0  0  0
    1.3352    0.4447    0.0604 C   0  0  0  0  0  0  0  0  0  0  0  0
    1.9202    0.5255    1.3256 C   0  0  0  0  0  0  0  0  0  0  0  0
    1.1060    0.2761    2.4592 C   0  0  0  0  0  0  0  0  0  0  0  0
   -0.2521   -0.0319    2.2919 C   0  0  0  0  0  0  0  0  0  0  0  0
   -0.8044   -0.1012    1.0140 C   0  0  0  0  0  0  0  0  0  0  0  0
    1.6872    0.3436    3.6875 O   0  0  0  0  0  0  0  0  0  0  0  0
    0.9542   -0.0043    4.8476 C   0  0  0  0  0  0  0  0  0  0  0  0
    3.4016    0.8336    1.3424 C   0  0  0  0  0  0  0  0  0  0  0  0
    4.0731    0.7057    0.3293 O   0  0  0  0  0  0  0  0  0  0  0  0
    3.9225    1.2814    2.5204 N   0  0  0  0  0  0  0  0  0  0  0  0
    5.3391    1.4821    2.7082 C   0  0  0  0  0  0  0  0  0  0  0  0
    5.8954    0.7221    3.8938 C   0  0  0  0  0  0  0  0  0  0  0  0
    7.1087    1.1023    4.4816 C   0  0  0  0  0  0  0  0  0  0  0  0
    7.6083    0.3684    5.5556 C   0  0  0  0  0  0  0  0  0  0  0  0
    6.8678   -0.7247    6.0185 C   0  0  0  0  0  0  0  0  0  0  0  0
    5.7067   -1.0966    5.4782 N   0  0  0  0  0  0  0  0  0  0  0  0
    5.2415   -0.3915    4.4432 C   0  0  0  0  0  0  0  0  0  0  0  0
   -0.5444    0.0812   -1.5221 C   0  0  0  0  0  0  0  0  0  0  0  0
    0.0126    0.6667   -2.4404 O   0  0  0  0  0  0  0  0  0  0  0  0
   -1.6889   -0.6501   -1.7059 N   0  0  0  0  0  0  0  0  0  0  0  0
   -2.2659   -0.8235   -3.0313 C   0  0  0  0  0  0  0  0  0  0  0  0
   -1.7219   -2.0240   -3.7734 C   0  0  0  0  0  0  0  0  0  0  0  0
   -0.4018   -2.0504   -4.2487 C   0  0  0  0  0  0  0  0  0  0  0  0
    0.0538   -3.1949   -4.8998 C   0  0  0  0  0  0  0  0  0  0  0  0
   -0.8241   -4.2743   -5.0556 C   0  0  0  0  0  0  0  0  0  0  0  0
   -2.0819   -4.2628   -4.6119 N   0  0  0  0  0  0  0  0  0  0  0  0
   -2.5093   -3.1624   -3.9887 C   0  0  0  0  0  0  0  0  0  0  0  0
    1.9653    0.6294   -0.8098 H   0  0  0  0  0  0  0  0  0  0  0  0
   -0.8891   -0.2091    3.1570 H   0  0  0  0  0  0  0  0  0  0  0  0
   -1.8722   -0.3090    0.9155 H   0  0  0  0  0  0  0  0  0  0  0  0
    0.1164    0.6922    5.0204 H   0  0  0  0  0  0  0  0  0  0  0  0
    1.6599    0.0596    5.6854 H   0  0  0  0  0  0  0  0  0  0  0  0
    0.5655   -1.0338    4.7797 H   0  0  0  0  0  0  0  0  0  0  0  0
    3.3091    1.3045    3.3267 H   0  0  0  0  0  0  0  0  0  0  0  0
    5.5750    2.5559    2.8252 H   0  0  0  0  0  0  0  0  0  0  0  0
    5.8259    1.1571    1.7745 H   0  0  0  0  0  0  0  0  0  0  0  0
    7.6553    1.9693    4.0986 H   0  0  0  0  0  0  0  0  0  0  0  0
    8.5523    0.6392    6.0335 H   0  0  0  0  0  0  0  0  0  0  0  0
    7.2307   -1.3199    6.8646 H   0  0  0  0  0  0  0  0  0  0  0  0
    4.2851   -0.7178    4.0218 H   0  0  0  0  0  0  0  0  0  0  0  0
   -1.9446   -1.3230   -0.9936 H   0  0  0  0  0  0  0  0  0  0  0  0
   -2.0442    0.0960   -3.5903 H   0  0  0  0  0  0  0  0  0  0  0  0
   -3.3591   -0.9086   -2.9306 H   0  0  0  0  0  0  0  0  0  0  0  0
    0.2420   -1.1803   -4.1002 H   0  0  0  0  0  0  0  0  0  0  0  0
    1.0739   -3.2539   -5.2859 H   0  0  0  0  0  0  0  0  0  0  0  0
   -0.4914   -5.1872   -5.5636 H   0  0  0  0  0  0  0  0  0  0  0  0
   -3.5493   -3.1749   -3.6359 H   0  0  0  0  0  0  0  0  0  0  0  0
  1  2  2  0
  1  6  1  0
  1 19  1  0
  2  3  1  0
  2 29  1  0
  3  4  2  0
  3  9  1  0
  4  5  1  0
  4  7  1  0
  5  6  2  0
  5 30  1  0
  6 31  1  0
  7  8  1  0
  8 32  1  0
  8 33  1  0
  8 34  1  0
  9 10  2  0
  9 11  1  0
 11 12  1  0
 11 35  1  0
 12 13  1  0
 12 36  1  0
 12 37  1  0
 13 14  2  0
 13 18  1  0
 14 15  1  0
 14 38  1  0
 15 16  2  0
 15 39  1  0
 16 17  1  0
 16 40  1  0
 17 18  2  0
 18 41  1  0
 19 20  2  0
 19 21  1  0
 21 22  1  0
 21 42  1  0
 22 23  1  0
 22 43  1  0
 22 44  1  0
 23 24  2  0
 23 28  1  0
 24 25  1  0
 24 45  1  0
 25 26  2  0
 25 46  1  0
 26 27  1  0
 26 47  1  0
 27 28  2  0
 28 48  1  0
M  END

