48

C         -0.42660        0.18250        0.21410
C          0.96110        0.10060        0.07880
C          1.83450        0.27570        1.15750
C          1.27640        0.56230        2.42790
C         -0.11700        0.66330        2.57200
C         -0.95430        0.47830        1.47700
O          2.12460        0.73920        3.47730
C          1.61390        1.06070        4.75790
C          3.30140        0.14930        0.81360
O          3.64840       -0.03840       -0.34900
N          4.19630        0.23340        1.83210
C          5.62690        0.18380        1.58840
C          6.25480        1.55390        1.44030
C          7.10260        2.09160        2.41220
C          7.62780        3.37250        2.22800
C          7.27860        4.07110        1.07020
N          6.47140        3.57170        0.12930
C          5.97710        2.34750        0.31210
C         -1.39460        0.00140       -0.91830
O         -2.57400        0.31210       -0.80520
N         -0.88490       -0.52560       -2.07110
C         -1.73370       -0.80440       -3.21770
C         -2.25860       -2.22420       -3.24450
C         -1.79050       -3.17050       -4.16020
C         -2.29450       -4.47220       -4.11460
C         -3.25250       -4.77800       -3.14550
N         -3.71320       -3.88550       -2.26380
C         -3.22860       -2.64480       -2.31610
H          1.44640       -0.08430       -0.88090
H         -0.55580        0.88880        3.54260
H         -2.03750        0.56210        1.57800
H          1.05650        2.01200        4.74140
H          2.48380        1.16390        5.41890
H          0.95910        0.26130        5.14280
H          3.84550        0.48340        2.74990
H          5.77320       -0.39640        0.66690
H          6.10900       -0.35900        2.41660
H          7.35300        1.51090        3.30540
H          8.29530        3.82230        2.96640
H          7.67170        5.07940        0.89420
H          5.31990        1.95070       -0.47020
H          0.03770       -0.94110       -2.05160
H         -1.16680       -0.59700       -4.13860
H         -2.57120       -0.09560       -3.16320
H         -1.03960       -2.89050       -4.90520
H         -1.95220       -5.23630       -4.81610
H         -3.66830       -5.79040       -3.08100
H         -3.61790       -1.92340       -1.58850
