
     RDKit          3D

 48 50  0  0  0  0  0  0  0  0999 V2000
   -0.2599    0.0459    0.1439 C   0  0  0  0  0  0  0  0  0  0  0  0
    1.1060    0.2307   -0.0817 C   0  0  0  0  0  0  0  0  0  0  0  0
    2.0363    0.3137    0.9598 C   0  0  0  0  0  0  0  0  0  0  0  0
    1.5604    0.2045    2.2897 C   0  0  0  0  0  0  0  0  0  0  0  0
    0.1904    0.0065    2.5276 C   0  0  0  0  0  0  0  0  0  0  0  0
   -0.7041   -0.0790    1.4660 C   0  0  0  0  0  0  0  0  0  0  0  0
    2.4623    0.2972    3.3045 O   0  0  0  0  0  0  0  0  0  0  0  0
    2.0301    0.2178    4.6500 C   0  0  0  0  0  0  0  0  0  0  0  0
    3.4679    0.5195    0.5177 C   0  0  0  0  0  0  0  0  0  0  0  0
    3.7293    0.6733   -0.6717 O   0  0  0  0  0  0  0  0  0  0  0  0
    4.4305    0.5084    1.4762 N   0  0  0  0  0  0  0  0  0  0  0  0
    5.8230    0.7637    1.1527 C   0  0  0  0  0  0  0  0  0  0  0  0
    6.2168    2.2162    1.3208 C   0  0  0  0  0  0  0  0  0  0  0  0
    7.0524    2.6446    2.3555 C   0  0  0  0  0  0  0  0  0  0  0  0
    7.3546    4.0032    2.4720 C   0  0  0  0  0  0  0  0  0  0  0  0
    6.8016    4.8866    1.5424 C   0  0  0  0  0  0  0  0  0  0  0  0
    6.0028    4.4944    0.5452 N   0  0  0  0  0  0  0  0  0  0  0  0
    5.7225    3.1956    0.4399 C   0  0  0  0  0  0  0  0  0  0  0  0
   -1.2841   -0.0572   -0.9478 C   0  0  0  0  0  0  0  0  0  0  0  0
   -2.4130   -0.4807   -0.7255 O   0  0  0  0  0  0  0  0  0  0  0  0
   -0.8863    0.3446   -2.1899 N   0  0  0  0  0  0  0  0  0  0  0  0
   -1.7978    0.3244   -3.3236 C   0  0  0  0  0  0  0  0  0  0  0  0
   -2.5817    1.6072   -3.4934 C   0  0  0  0  0  0  0  0  0  0  0  0
   -3.5829    1.9741   -2.5815 C   0  0  0  0  0  0  0  0  0  0  0  0
   -4.2575    3.1780   -2.7736 C   0  0  0  0  0  0  0  0  0  0  0  0
   -3.9109    3.9746   -3.8714 C   0  0  0  0  0  0  0  0  0  0  0  0
   -2.9638    3.6379   -4.7479 N   0  0  0  0  0  0  0  0  0  0  0  0
   -2.3217    2.4836   -4.5548 C   0  0  0  0  0  0  0  0  0  0  0  0
    1.5281    0.3046   -1.0851 H   0  0  0  0  0  0  0  0  0  0  0  0
   -0.1846   -0.0842    3.5457 H   0  0  0  0  0  0  0  0  0  0  0  0
   -1.7683   -0.2447    1.6412 H   0  0  0  0  0  0  0  0  0  0  0  0
    1.3181    1.0243    4.8918 H   0  0  0  0  0  0  0  0  0  0  0  0
    2.9288    0.3329    5.2692 H   0  0  0  0  0  0  0  0  0  0  0  0
    1.5632   -0.7575    4.8666 H   0  0  0  0  0  0  0  0  0  0  0  0
    4.1322    0.4772    2.4447 H   0  0  0  0  0  0  0  0  0  0  0  0
    5.9695    0.4541    0.1087 H   0  0  0  0  0  0  0  0  0  0  0  0
    6.4573    0.1295    1.7915 H   0  0  0  0  0  0  0  0  0  0  0  0
    7.4667    1.9199    3.0632 H   0  0  0  0  0  0  0  0  0  0  0  0
    8.0063    4.3720    3.2673 H   0  0  0  0  0  0  0  0  0  0  0  0
    7.0166    5.9599    1.6051 H   0  0  0  0  0  0  0  0  0  0  0  0
    5.0694    2.8898   -0.3856 H   0  0  0  0  0  0  0  0  0  0  0  0
   -0.0251    0.8683   -2.2819 H   0  0  0  0  0  0  0  0  0  0  0  0
   -2.4872   -0.5151   -3.1577 H   0  0  0  0  0  0  0  0  0  0  0  0
   -1.2171    0.1164   -4.2353 H   0  0  0  0  0  0  0  0  0  0  0  0
   -3.8131    1.3139   -1.7419 H   0  0  0  0  0  0  0  0  0  0  0  0
   -5.0449    3.4981   -2.0875 H   0  0  0  0  0  0  0  0  0  0  0  0
   -4.4256    4.9267   -4.0468 H   0  0  0  0  0  0  0  0  0  0  0  0
   -1.5482    2.2271   -5.2909 H   0  0  0  0  0  0  0  0  0  0  0  0
  1  2  2  0
  1  6  1  0
  1 19  1  0
  2  3  1  0
  2 29  1  0
  3  4  2  0
  3  9  1  0
  4  5  1  0
  4  7  1  0
  5  6  2  0
  5 30  1  0
  6 31  1  0
  7  8  1  0
  8 32  1  0
  8 33  1  0
  8 34  1  0
  9 10  2  0
  9 11  1  0
 11 12  1  0
 11 35  1  0
 12 13  1  0
 12 36  1  0
 12 37  1  0
 13 14  2  0
 13 18  1  0
 14 15  1  0
 14 38  1  0
 15 16  2  0
 15 39  1  0
 16 17  1  0
 16 40  1  0
 17 18  2  0
 18 41  1  0
 19 20  2  0
 19 21  1  0
 21 22  1  0
 21 42  1  0
 22 23  1  0
 22 43  1  0
 22 44  1  0
 23 24  2  0
 23 28  1  0
 24 25  1  0
 24 45  1  0
 25 26  2  0
 25 46  1  0
 26 27  1  0
 26 47  1  0
 27 28  2  0
 28 48  1  0
M  END

