rmsd163.gzmat
 OpenBabel08211713383D

 48 50  0  0  1  0  0  0  0  0999 V2000
    0.0000    0.0000    0.0000 C   0  0  0  0  0  0  0  0  0  0  0  0
    1.3941    0.0000    0.0000 C   0  0  0  0  0  0  0  0  0  0  0  0
    2.0844    0.0000    1.2074 C   0  0  0  0  0  0  0  0  0  0  0  0
    1.3593   -0.0266    2.4127 C   0  0  0  0  0  0  0  0  0  0  0  0
   -0.0374   -0.0627    2.4183 C   0  0  0  0  0  0  0  0  0  0  0  0
   -0.7112   -0.0521    1.2020 C   0  0  0  0  0  0  0  0  0  0  0  0
    2.1441    0.0017    3.5158 O   0  0  0  0  0  0  0  0  0  0  0  0
    1.5344   -0.2366    4.7793 C   0  0  0  0  0  0  0  0  0  0  0  0
    3.5683   -0.0546    1.1864 C   0  0  0  0  0  0  0  0  0  0  0  0
    4.1897   -0.8277    0.4875 O   0  0  0  0  0  0  0  0  0  0  0  0
    4.2173    0.8832    1.9742 N   0  0  0  0  0  0  0  0  0  0  0  0
    5.6560    0.7472    2.2272 C   0  0  0  0  0  0  0  0  0  0  0  0
    5.9163    0.4567    3.6786 C   0  0  1  0  0  0  0  0  0  0  0  0
    6.9146    1.1300    4.3804 C   0  0  0  0  0  0  0  0  0  0  0  0
    7.1007    0.8539    5.7337 C   0  0  0  0  0  0  0  0  0  0  0  0
    6.2644   -0.0859    6.3480 C   0  0  0  0  0  0  0  0  0  0  0  0
    5.3031   -0.7483    5.6756 N   0  0  0  0  0  0  0  0  0  0  0  0
    5.1436   -0.4942    4.3660 C   0  0  0  0  0  0  0  0  0  0  0  0
   -0.7738    0.0033   -1.2671 C   0  0  0  0  0  0  0  0  0  0  0  0
   -1.6756   -0.7755   -1.5025 O   0  0  0  0  0  0  0  0  0  0  0  0
   -0.4510    1.0078   -2.1624 N   0  0  0  0  0  0  0  0  0  0  0  0
   -1.1047    1.0533   -3.4735 C   0  0  0  0  0  0  0  0  0  0  0  0
   -0.2265    0.4421   -4.5285 C   0  0  2  0  0  0  0  0  0  0  0  0
   -0.0110   -0.9372   -4.5613 C   0  0  0  0  0  0  0  0  0  0  0  0
    0.8149   -1.4722   -5.5453 C   0  0  0  0  0  0  0  0  0  0  0  0
    1.4012   -0.6017   -6.4748 C   0  0  0  0  0  0  0  0  0  0  0  0
    1.1952    0.7279   -6.4528 N   0  0  0  0  0  0  0  0  0  0  0  0
    0.3970    1.2398   -5.4978 C   0  0  0  0  0  0  0  0  0  0  0  0
    1.9571   -0.0195   -0.9393 H   0  0  0  0  0  0  0  0  0  0  0  0
   -0.5952   -0.1000    3.3485 H   0  0  0  0  0  0  0  0  0  0  0  0
   -1.8045   -0.0905    1.1788 H   0  0  0  0  0  0  0  0  0  0  0  0
    0.8846    0.5980    5.0558 H   0  0  0  0  0  0  0  0  0  0  0  0
    2.4103   -0.2885    5.4480 H   0  0  0  0  0  0  0  0  0  0  0  0
    0.9995   -1.1917    4.7851 H   0  0  0  0  0  0  0  0  0  0  0  0
    3.6978    1.4322    2.6433 H   0  0  0  0  0  0  0  0  0  0  0  0
    6.1591    1.6896    1.9031 H   0  0  0  0  0  0  0  0  0  0  0  0
    6.0833   -0.0691    1.5842 H   0  0  0  0  0  0  0  0  0  0  0  0
    7.5438    1.8661    3.8808 H   0  0  0  0  0  0  0  0  0  0  0  0
    7.8758    1.3582    6.3029 H   0  0  0  0  0  0  0  0  0  0  0  0
    6.3543   -0.3306    7.4120 H   0  0  0  0  0  0  0  0  0  0  0  0
    4.3611   -1.0748    3.8565 H   0  0  0  0  0  0  0  0  0  0  0  0
    0.3482    1.6029   -2.0273 H   0  0  0  0  0  0  0  0  0  0  0  0
   -1.3573    2.1134   -3.7104 H   0  0  0  0  0  0  0  0  0  0  0  0
   -2.0842    0.5068   -3.4221 H   0  0  0  0  0  0  0  0  0  0  0  0
   -0.4897   -1.5824   -3.8187 H   0  0  0  0  0  0  0  0  0  0  0  0
    1.0022   -2.5409   -5.5979 H   0  0  0  0  0  0  0  0  0  0  0  0
    2.0603   -0.9662   -7.2713 H   0  0  0  0  0  0  0  0  0  0  0  0
    0.2626    2.3267   -5.5281 H   0  0  0  0  0  0  0  0  0  0  0  0
  1  2  2  0  0  0  0
  1  6  1  0  0  0  0
  2  3  1  0  0  0  0
  3  4  2  0  0  0  0
  4  5  1  0  0  0  0
  4  7  1  0  0  0  0
  5 30  1  0  0  0  0
  6  5  2  0  0  0  0
  7  8  1  0  0  0  0
  8 34  1  0  0  0  0
  8 32  1  0  0  0  0
  8 33  1  0  0  0  0
  9  3  1  0  0  0  0
  9 11  1  0  0  0  0
 10  9  2  0  0  0  0
 11 12  1  0  0  0  0
 11 35  1  0  0  0  0
 13 12  1  1  0  0  0
 13 18  1  0  0  0  0
 13 14  1  0  0  0  0
 14 15  2  0  0  0  0
 15 39  1  0  0  0  0
 15 16  1  0  0  0  0
 16 40  1  0  0  0  0
 17 16  2  0  0  0  0
 18 17  2  0  0  0  0
 19  1  1  0  0  0  0
 20 19  2  0  0  0  0
 21 42  1  0  0  0  0
 21 19  1  0  0  0  0
 22 44  1  0  0  0  0
 22 21  1  0  0  0  0
 23 22  1  1  0  0  0
 24 23  1  0  0  0  0
 24 45  1  0  0  0  0
 25 24  2  0  0  0  0
 26 27  2  0  0  0  0
 26 25  1  0  0  0  0
 27 28  2  0  0  0  0
 28 23  1  0  0  0  0
 29  2  1  0  0  0  0
 31  6  1  0  0  0  0
 36 12  1  0  0  0  0
 37 12  1  0  0  0  0
 38 14  1  0  0  0  0
 41 18  1  0  0  0  0
 43 22  1  0  0  0  0
 46 25  1  0  0  0  0
 47 26  1  0  0  0  0
 48 28  1  0  0  0  0
M  RAD  2  13   2  23   2
M  END
$$$$
