48
rmsd243.gzmat
C          0.00000        0.00000        0.00000
C          1.39650        0.00000        0.00000
C          2.08490        0.00000        1.20790
C          1.35730        0.00210        2.41220
C         -0.03950        0.00110        2.41660
C         -0.71230        0.00460        1.19890
O          2.14270        0.01840        3.51550
C          1.51660       -0.10750        4.78590
C          3.56760       -0.07450        1.19290
O          4.17690       -0.86540        0.50140
N          4.23430        0.86030        1.97370
C          5.66790        0.66270        2.22610
C          5.85340       -0.27710        3.38500
C          5.77140       -1.65780        3.19470
C          5.87410       -2.50240        4.29640
C          6.05250       -1.93120        5.56350
N          6.13570       -0.60150        5.75480
C          6.04310        0.20990        4.68510
C         -0.70140        0.04570       -1.30730
O         -0.48360        0.88800       -2.15390
N         -1.67110       -0.92700       -1.50230
C         -2.33200       -1.02490       -2.80860
C         -1.54630       -1.89750       -3.74630
C         -0.38380       -1.41810       -4.35370
C          0.33330       -2.25530       -5.20310
C         -0.14180       -3.55570       -5.42030
N         -1.26350       -4.02410       -4.84260
C         -1.95250       -3.21070       -4.02120
H          1.95220       -0.00280       -0.94600
H         -0.59880        0.00410        3.34640
H         -1.80430        0.01860        1.18500
H          0.88950        0.76420        4.99630
H          2.38330       -0.13580        5.46440
H          0.95150       -1.04260        4.85330
H          3.72480        1.37180        2.67990
H          6.13480        1.65640        2.41650
H          6.15370        0.25860        1.30030
H          5.61290       -2.06380        2.18980
H          5.81330       -3.58060        4.17960
H          6.13400       -2.54610        6.46680
H          6.12250        1.28180        4.89630
H         -1.72900       -1.73170       -0.90110
H         -2.44550        0.00420       -3.24090
H         -3.36570       -1.41260       -2.65470
H         -0.04340       -0.39590       -4.15550
H          1.24260       -1.91140       -5.68810
H          0.38200       -4.25990       -6.07700
H         -2.85710       -3.64210       -3.57890
