48

C          0.13380        0.17090       -0.10930
C          1.48420        0.34910        0.20820
C          1.93910        0.43960        1.52590
C          0.98310        0.35810        2.57070
C         -0.37640        0.19600        2.26380
C         -0.79360        0.10600        0.93730
O          1.42520        0.44200        3.85440
C          0.51640        0.31650        4.93170
C          3.43630        0.60220        1.68120
O          4.17200        0.50280        0.70520
N          3.91200        0.88590        2.92210
C          5.33860        1.00540        3.17300
C          5.99200       -0.30980        3.53840
C          6.17180       -1.32210        2.58380
C          6.75060       -2.52550        2.98240
C          7.13020       -2.67800        4.32120
N          6.96730       -1.72450        5.23960
C          6.41240       -0.57510        4.84790
C         -0.24260        0.09630       -1.55900
O          0.47870        0.54990       -2.43660
N         -1.44260       -0.50560       -1.83490
C         -1.89100       -0.69510       -3.20720
C         -1.41720       -1.99310       -3.82260
C         -0.06830       -2.19340       -4.15370
C          0.31530       -3.42020       -4.69140
C         -0.66060       -4.40580       -4.88110
N         -1.94650       -4.22940       -4.57370
C         -2.30470       -3.05100       -4.05890
H          2.22200        0.41630       -0.59140
H         -1.12010        0.15020        3.05750
H         -1.86200        0.01330        0.72970
H         -0.23220        1.12660        4.92510
H          1.11460        0.38590        5.84900
H         -0.00040       -0.65750        4.90950
H          3.26550        0.83320        3.70080
H          5.48990        1.73510        3.98320
H          5.79550        1.40820        2.25830
H          5.85410       -1.15130        1.55250
H          6.91060       -3.33680        2.26860
H          7.58730       -3.61460        4.66200
H          6.29260        0.19630        5.62050
H         -1.85670       -1.09420       -1.12260
H         -1.50350        0.15680       -3.78250
H         -2.99090       -0.65030       -3.22640
H          0.65280       -1.39040       -3.98390
H          1.35490       -3.61420       -4.96460
H         -0.38620       -5.38040       -5.30200
H         -3.36920       -2.92780       -3.81810
