48
rmsd242.gzmat
C          0.00000        0.00000        0.00000
C          1.39750        0.00000        0.00000
C          2.08500        0.00000        1.20730
C          1.35770       -0.00300        2.41250
C         -0.03880       -0.00060        2.41760
C         -0.71140        0.00670        1.19980
O          2.14560        0.00840        3.51320
C          1.52610       -0.14160        4.78500
C          3.56920       -0.06170        1.20960
O          4.20130       -0.87690        0.57120
N          4.20420        0.91600        1.96030
C          5.63230        0.78310        2.26890
C          5.82910        0.55970        3.74220
C          6.71270        1.34230        4.48290
C          6.83630        1.11870        5.85320
C          6.05340        0.11950        6.44340
N          5.19740       -0.64300        5.73530
C          5.09890       -0.43770        4.41120
C         -0.70080        0.04680       -1.30730
O         -0.40800        0.82330       -2.19360
N         -1.76410       -0.83170       -1.45450
C         -2.45880       -0.90470       -2.74460
C         -1.79590       -1.89230       -3.66260
C         -0.61490       -1.55710       -4.32830
C         -0.01740       -2.49540       -5.16430
C         -0.62740       -3.74920       -5.30780
N         -1.76560       -4.07970       -4.67020
C         -2.33840       -3.16870       -3.86190
H          1.95080        0.00000       -0.94760
H         -0.59770        0.00410        3.34750
H         -1.80350        0.02760        1.18740
H          0.93710        0.74620        5.03020
H          2.40010       -0.22830        5.45310
H          0.92780       -1.05650        4.82950
H          3.66960        1.50500        2.58200
H          6.15420        1.70580        1.91830
H          6.07590       -0.06550        1.68230
H          7.29980        2.12360        4.00030
H          7.52210        1.70860        6.45390
H          6.10120       -0.09250        7.51740
H          4.40080       -1.09480        3.87270
H         -1.89250       -1.60550       -0.82450
H         -2.46790        0.11440       -3.21430
H         -3.52520       -1.16960       -2.55710
H         -0.16710       -0.56800       -4.18420
H          0.90240       -2.26460       -5.69420
H         -0.20130       -4.52770       -5.95100
H         -3.26130       -3.49050       -3.36760
