48

C         -0.01520        0.12630       -0.11990
C          1.33520        0.44470        0.06040
C          1.92020        0.52550        1.32560
C          1.10600        0.27610        2.45920
C         -0.25210       -0.03190        2.29190
C         -0.80440       -0.10120        1.01400
O          1.68720        0.34360        3.68750
C          0.95420       -0.00430        4.84760
C          3.40160        0.83360        1.34240
O          4.07310        0.70570        0.32930
N          3.92250        1.28140        2.52040
C          5.33910        1.48210        2.70820
C          5.89540        0.72210        3.89380
C          7.10870        1.10230        4.48160
C          7.60830        0.36840        5.55560
C          6.86780       -0.72470        6.01850
N          5.70670       -1.09660        5.47820
C          5.24150       -0.39150        4.44320
C         -0.54440        0.08120       -1.52210
O          0.01260        0.66670       -2.44040
N         -1.68890       -0.65010       -1.70590
C         -2.26590       -0.82350       -3.03130
C         -1.72190       -2.02400       -3.77340
C         -0.40180       -2.05040       -4.24870
C          0.05380       -3.19490       -4.89980
C         -0.82410       -4.27430       -5.05560
N         -2.08190       -4.26280       -4.61190
C         -2.50930       -3.16240       -3.98870
H          1.96530        0.62940       -0.80980
H         -0.88910       -0.20910        3.15700
H         -1.87220       -0.30900        0.91550
H          0.11640        0.69220        5.02040
H          1.65990        0.05960        5.68540
H          0.56550       -1.03380        4.77970
H          3.30910        1.30450        3.32670
H          5.57500        2.55590        2.82520
H          5.82590        1.15710        1.77450
H          7.65530        1.96930        4.09860
H          8.55230        0.63920        6.03350
H          7.23070       -1.31990        6.86460
H          4.28510       -0.71780        4.02180
H         -1.94460       -1.32300       -0.99360
H         -2.04420        0.09600       -3.59030
H         -3.35910       -0.90860       -2.93060
H          0.24200       -1.18030       -4.10020
H          1.07390       -3.25390       -5.28590
H         -0.49140       -5.18720       -5.56360
H         -3.54930       -3.17490       -3.63590
