48

C         -0.04910       -0.76160        0.23030
C          1.32890       -0.55230        0.34540
C          2.01900       -0.73780        1.54590
C          1.27640       -1.12300        2.69150
C         -0.11100       -1.30770        2.59520
C         -0.76270       -1.13100        1.37610
O          1.94350       -1.29090        3.86530
C          1.23960       -1.63960        5.04220
C          3.50930       -0.47730        1.47780
O          4.01510       -0.05640        0.44310
N          4.24670       -0.74560        2.58700
C          5.67340       -0.47160        2.62760
C          5.99970        0.92730        3.10400
C          5.72600        2.04910        2.30690
C          6.01900        3.31590        2.80800
C          6.57540        3.42050        4.08830
N          6.84270        2.36360        4.85690
C          6.55870        1.15420        4.36810
C         -0.68500       -0.52220       -1.10790
O         -0.15830        0.19040       -1.95200
N         -1.87390       -1.15690       -1.33300
C         -2.63360       -0.93830       -2.55480
C         -3.61860        0.20460       -2.44740
C         -3.17880        1.53510       -2.37710
C         -4.12590        2.54910       -2.24940
C         -5.48070        2.20020       -2.19640
N         -5.91380        0.94060       -2.26420
C         -4.99910       -0.02400       -2.38660
H          1.89990       -0.23040       -0.52570
H         -0.69450       -1.58080        3.47270
H         -1.84810       -1.25430        1.34720
H          0.49280       -0.87240        5.30650
H          1.98860       -1.70310        5.84170
H          0.73780       -2.61620        4.93740
H          3.75340       -0.98670        3.43880
H          6.06050       -0.61870        1.60960
H          6.15160       -1.21130        3.28780
H          5.28820        1.91070        1.31550
H          5.82340        4.21370        2.21720
H          6.81520        4.40500        4.50710
H          6.79110        0.29920        5.01720
H         -2.27310       -1.74270       -0.61250
H         -3.16160       -1.86890       -2.81200
H         -1.90230       -0.72820       -3.34830
H         -2.10890        1.75240       -2.42210
H         -3.82420        3.59750       -2.19470
H         -6.24710        2.97780       -2.09570
H         -5.38010       -1.05250       -2.44510
