
     RDKit          3D

 48 50  0  0  0  0  0  0  0  0999 V2000
   -0.2654   -0.1316    0.3124 C   0  0  0  0  0  0  0  0  0  0  0  0
    1.0666   -0.5404    0.4154 C   0  0  0  0  0  0  0  0  0  0  0  0
    1.7480   -0.5782    1.6360 C   0  0  0  0  0  0  0  0  0  0  0  0
    1.0576   -0.1603    2.8004 C   0  0  0  0  0  0  0  0  0  0  0  0
   -0.2756    0.2701    2.7061 C   0  0  0  0  0  0  0  0  0  0  0  0
   -0.9249    0.2840    1.4760 C   0  0  0  0  0  0  0  0  0  0  0  0
    1.7296   -0.1811    3.9835 O   0  0  0  0  0  0  0  0  0  0  0  0
    1.1204    0.3164    5.1616 C   0  0  0  0  0  0  0  0  0  0  0  0
    3.1873   -1.0340    1.5530 C   0  0  0  0  0  0  0  0  0  0  0  0
    3.7341   -1.1646    0.4647 O   0  0  0  0  0  0  0  0  0  0  0  0
    3.8178   -1.3073    2.7282 N   0  0  0  0  0  0  0  0  0  0  0  0
    5.2200   -1.6412    2.7922 C   0  0  0  0  0  0  0  0  0  0  0  0
    5.9954   -0.7711    3.7586 C   0  0  0  0  0  0  0  0  0  0  0  0
    7.2354   -1.1892    4.2586 C   0  0  0  0  0  0  0  0  0  0  0  0
    7.9400   -0.3557    5.1245 C   0  0  0  0  0  0  0  0  0  0  0  0
    7.3735    0.8750    5.4738 C   0  0  0  0  0  0  0  0  0  0  0  0
    6.1906    1.2860    5.0159 N   0  0  0  0  0  0  0  0  0  0  0  0
    5.5270    0.4826    4.1801 C   0  0  0  0  0  0  0  0  0  0  0  0
   -1.0318   -0.0786   -0.9766 C   0  0  0  0  0  0  0  0  0  0  0  0
   -2.1061    0.5041   -1.0572 O   0  0  0  0  0  0  0  0  0  0  0  0
   -0.4631   -0.7134   -2.0448 N   0  0  0  0  0  0  0  0  0  0  0  0
   -1.1352   -0.7822   -3.3317 C   0  0  0  0  0  0  0  0  0  0  0  0
   -1.9637   -2.0367   -3.5100 C   0  0  0  0  0  0  0  0  0  0  0  0
   -1.5761   -3.0647   -4.3737 C   0  0  0  0  0  0  0  0  0  0  0  0
   -2.3698   -4.2096   -4.4721 C   0  0  0  0  0  0  0  0  0  0  0  0
   -3.5276   -4.2816   -3.6944 C   0  0  0  0  0  0  0  0  0  0  0  0
   -3.9148   -3.3075   -2.8653 N   0  0  0  0  0  0  0  0  0  0  0  0
   -3.1526   -2.2172   -2.7795 C   0  0  0  0  0  0  0  0  0  0  0  0
    1.6597   -0.8268   -0.4548 H   0  0  0  0  0  0  0  0  0  0  0  0
   -0.8124    0.5991    3.5944 H   0  0  0  0  0  0  0  0  0  0  0  0
   -1.9588    0.6221    1.3910 H   0  0  0  0  0  0  0  0  0  0  0  0
    0.8246    1.3716    5.0424 H   0  0  0  0  0  0  0  0  0  0  0  0
    1.8775    0.2412    5.9522 H   0  0  0  0  0  0  0  0  0  0  0  0
    0.2374   -0.2816    5.4423 H   0  0  0  0  0  0  0  0  0  0  0  0
    3.3011   -1.1488    3.5862 H   0  0  0  0  0  0  0  0  0  0  0  0
    5.6140   -1.5321    1.7692 H   0  0  0  0  0  0  0  0  0  0  0  0
    5.3620   -2.7023    3.0690 H   0  0  0  0  0  0  0  0  0  0  0  0
    7.6426   -2.1629    3.9701 H   0  0  0  0  0  0  0  0  0  0  0  0
    8.9097   -0.6532    5.5296 H   0  0  0  0  0  0  0  0  0  0  0  0
    7.9003    1.5526    6.1559 H   0  0  0  0  0  0  0  0  0  0  0  0
    4.5573    0.8446    3.8228 H   0  0  0  0  0  0  0  0  0  0  0  0
    0.3164   -1.3380   -1.8826 H   0  0  0  0  0  0  0  0  0  0  0  0
   -0.3809   -0.7145   -4.1311 H   0  0  0  0  0  0  0  0  0  0  0  0
   -1.7799    0.1053   -3.3924 H   0  0  0  0  0  0  0  0  0  0  0  0
   -0.6618   -2.9690   -4.9672 H   0  0  0  0  0  0  0  0  0  0  0  0
   -2.0977   -5.0312   -5.1383 H   0  0  0  0  0  0  0  0  0  0  0  0
   -4.1728   -5.1665   -3.7461 H   0  0  0  0  0  0  0  0  0  0  0  0
   -3.4848   -1.4257   -2.0979 H   0  0  0  0  0  0  0  0  0  0  0  0
  1  2  2  0
  1  6  1  0
  1 19  1  0
  2  3  1  0
  2 29  1  0
  3  4  2  0
  3  9  1  0
  4  5  1  0
  4  7  1  0
  5  6  2  0
  5 30  1  0
  6 31  1  0
  7  8  1  0
  8 32  1  0
  8 33  1  0
  8 34  1  0
  9 10  2  0
  9 11  1  0
 11 12  1  0
 11 35  1  0
 12 13  1  0
 12 36  1  0
 12 37  1  0
 13 14  2  0
 13 18  1  0
 14 15  1  0
 14 38  1  0
 15 16  2  0
 15 39  1  0
 16 17  1  0
 16 40  1  0
 17 18  2  0
 18 41  1  0
 19 20  2  0
 19 21  1  0
 21 22  1  0
 21 42  1  0
 22 23  1  0
 22 43  1  0
 22 44  1  0
 23 24  2  0
 23 28  1  0
 24 25  1  0
 24 45  1  0
 25 26  2  0
 25 46  1  0
 26 27  1  0
 26 47  1  0
 27 28  2  0
 28 48  1  0
M  END

