48
rmsd219.gzmat
C          0.00000        0.00000        0.00000
C          1.39160        0.00000        0.00000
C          2.10120        0.00000        1.20360
C          1.37500        0.00150        2.40740
C         -0.02420        0.02430        2.41540
C         -0.70680        0.03180        1.20610
O          2.14000       -0.02610        3.52460
C          1.48560        0.00700        4.78710
C          3.57960       -0.02660        1.07780
O          4.11970       -0.40740        0.05150
N          4.34280        0.40980        2.13780
C          5.79770        0.51060        1.99060
C          6.17790        1.88850        1.52490
C          6.67900        2.84480        2.40450
C          6.99470        4.11380        1.92140
C          6.79480        4.38120        0.56180
N          6.30970        3.46160       -0.29540
C          6.00510        2.24080        0.17480
C         -0.79270       -0.01090       -1.25380
O         -1.81690        0.62740       -1.39670
N         -0.30400       -0.80110       -2.28120
C         -1.11970       -0.98370       -3.48620
C         -2.17220       -2.03300       -3.25850
C         -1.94900       -3.37170       -3.57150
C         -2.94770       -4.30720       -3.30710
C         -4.14720       -3.86360       -2.73750
N         -4.37100       -2.57070       -2.43240
C         -3.40340       -1.67320       -2.68370
H          1.95370        0.00580       -0.94470
H         -0.58070        0.03810        3.34690
H         -1.80180        0.06480        1.18880
H          0.92060        0.93690        4.90910
H          2.33420       -0.02630        5.48490
H          0.85030       -0.87540        4.91890
H          3.93050        0.78320        2.97410
H          6.15300       -0.26040        1.25600
H          6.27720        0.25780        2.96420
H          6.82110        2.60900        3.45760
H          7.38480        4.88020        2.58350
H          7.02390        5.36050        0.12640
H          5.60140        1.52160       -0.55570
H          0.45130       -1.44890       -2.13140
H         -0.45100       -1.25180       -4.33640
H         -1.59430       -0.00410       -3.75710
H         -1.00580       -3.68820       -4.01420
H         -2.80190       -5.35870       -3.53300
H         -4.96790       -4.55300       -2.50960
H         -3.62330       -0.63080       -2.40300
