rmsd155.gzmat
 OpenBabel08211713383D

 48 50  0  0  1  0  0  0  0  0999 V2000
    0.0000    0.0000    0.0000 C   0  0  0  0  0  0  0  0  0  0  0  0
    1.3922    0.0000    0.0000 C   0  0  0  0  0  0  0  0  0  0  0  0
    2.0985    0.0000    1.2044 C   0  0  0  0  0  0  0  0  0  0  0  0
    1.3752   -0.0413    2.4088 C   0  0  0  0  0  0  0  0  0  0  0  0
   -0.0233   -0.0829    2.4157 C   0  0  0  0  0  0  0  0  0  0  0  0
   -0.7054   -0.0637    1.2058 C   0  0  0  0  0  0  0  0  0  0  0  0
    2.1474   -0.0353    3.5213 O   0  0  0  0  0  0  0  0  0  0  0  0
    1.5014   -0.1230    4.7854 C   0  0  0  0  0  0  0  0  0  0  0  0
    3.5772    0.0266    1.0884 C   0  0  0  0  0  0  0  0  0  0  0  0
    4.1473   -0.4122    0.1036 O   0  0  0  0  0  0  0  0  0  0  0  0
    4.3013    0.6147    2.1028 N   0  0  0  0  0  0  0  0  0  0  0  0
    5.7456    0.8082    1.9389 C   0  0  0  0  0  0  0  0  0  0  0  0
    6.0145    2.1176    1.2492 C   0  0  2  0  0  0  0  0  0  0  0  0
    6.4623    3.2361    1.9474 C   0  0  0  0  0  0  0  0  0  0  0  0
    6.6562    4.4336    1.2599 C   0  0  0  0  0  0  0  0  0  0  0  0
    6.3885    4.4683   -0.1139 C   0  0  0  0  0  0  0  0  0  0  0  0
    5.9576    3.3892   -0.7965 N   0  0  0  0  0  0  0  0  0  0  0  0
    5.7800    2.2357   -0.1323 C   0  0  0  0  0  0  0  0  0  0  0  0
   -0.7905    0.0364   -1.2553 C   0  0  0  0  0  0  0  0  0  0  0  0
   -1.8208   -0.5908   -1.4071 O   0  0  0  0  0  0  0  0  0  0  0  0
   -0.2894    0.8329   -2.2714 N   0  0  0  0  0  0  0  0  0  0  0  0
   -1.0858    1.0254   -3.4873 C   0  0  0  0  0  0  0  0  0  0  0  0
   -2.1358    2.0803   -3.2746 C   0  0  1  0  0  0  0  0  0  0  0  0
   -3.3623    1.7515   -2.6942 C   0  0  0  0  0  0  0  0  0  0  0  0
   -4.3059    2.7533   -2.4863 C   0  0  0  0  0  0  0  0  0  0  0  0
   -3.9858    4.0639   -2.8658 C   0  0  0  0  0  0  0  0  0  0  0  0
   -2.8055    4.3892   -3.4253 N   0  0  0  0  0  0  0  0  0  0  0  0
   -1.8984    3.4159   -3.6265 C   0  0  0  0  0  0  0  0  0  0  0  0
    1.9553   -0.0132   -0.9437 H   0  0  0  0  0  0  0  0  0  0  0  0
   -0.5791   -0.1325    3.3464 H   0  0  0  0  0  0  0  0  0  0  0  0
   -1.7999   -0.1031    1.1874 H   0  0  0  0  0  0  0  0  0  0  0  0
    0.8621    0.7487    4.9577 H   0  0  0  0  0  0  0  0  0  0  0  0
    2.3550   -0.1219    5.4786 H   0  0  0  0  0  0  0  0  0  0  0  0
    0.9425   -1.0608    4.8725 H   0  0  0  0  0  0  0  0  0  0  0  0
    3.8594    1.0217    2.9072 H   0  0  0  0  0  0  0  0  0  0  0  0
    6.1691   -0.0410    1.3386 H   0  0  0  0  0  0  0  0  0  0  0  0
    6.2338    0.7591    2.9388 H   0  0  0  0  0  0  0  0  0  0  0  0
    6.6580    3.1820    3.0174 H   0  0  0  0  0  0  0  0  0  0  0  0
    7.0048    5.3226    1.7762 H   0  0  0  0  0  0  0  0  0  0  0  0
    6.5160    5.3825   -0.7044 H   0  0  0  0  0  0  0  0  0  0  0  0
    5.4284    1.3787   -0.7303 H   0  0  0  0  0  0  0  0  0  0  0  0
    0.4695    1.4745   -2.1106 H   0  0  0  0  0  0  0  0  0  0  0  0
   -1.5636    0.0508   -3.7702 H   0  0  0  0  0  0  0  0  0  0  0  0
   -0.4013    1.2923   -4.3261 H   0  0  0  0  0  0  0  0  0  0  0  0
   -3.5678    0.7170   -2.3981 H   0  0  0  0  0  0  0  0  0  0  0  0
   -5.2698    2.5264   -2.0401 H   0  0  0  0  0  0  0  0  0  0  0  0
   -4.6878    4.8935   -2.7245 H   0  0  0  0  0  0  0  0  0  0  0  0
   -0.9555    3.7353   -4.0846 H   0  0  0  0  0  0  0  0  0  0  0  0
  1  6  1  0  0  0  0
  2  1  2  0  0  0  0
  2  3  1  0  0  0  0
  3  4  2  0  0  0  0
  4  5  1  0  0  0  0
  4  7  1  0  0  0  0
  5 30  1  0  0  0  0
  6  5  2  0  0  0  0
  7  8  1  0  0  0  0
  8 34  1  0  0  0  0
  8 32  1  0  0  0  0
  8 33  1  0  0  0  0
  9  3  1  0  0  0  0
  9 11  1  0  0  0  0
 10  9  2  0  0  0  0
 11 35  1  0  0  0  0
 12 11  1  0  0  0  0
 12 37  1  0  0  0  0
 13 12  1  1  0  0  0
 13 14  1  0  0  0  0
 14 38  1  0  0  0  0
 15 39  1  0  0  0  0
 15 14  2  0  0  0  0
 16 15  1  0  0  0  0
 17 18  2  0  0  0  0
 17 16  2  0  0  0  0
 18 13  1  0  0  0  0
 19  1  1  0  0  0  0
 20 19  2  0  0  0  0
 21 42  1  0  0  0  0
 21 19  1  0  0  0  0
 22 21  1  0  0  0  0
 23 22  1  1  0  0  0
 23 24  1  0  0  0  0
 24 25  2  0  0  0  0
 24 45  1  0  0  0  0
 25 46  1  0  0  0  0
 26 47  1  0  0  0  0
 26 25  1  0  0  0  0
 27 26  2  0  0  0  0
 28 27  2  0  0  0  0
 28 23  1  0  0  0  0
 29  2  1  0  0  0  0
 31  6  1  0  0  0  0
 36 12  1  0  0  0  0
 40 16  1  0  0  0  0
 41 18  1  0  0  0  0
 43 22  1  0  0  0  0
 44 22  1  0  0  0  0
 48 28  1  0  0  0  0
M  RAD  2  13   2  23   2
M  END
$$$$
