48
rmsd216.gzmat
C          0.00000        0.00000        0.00000
C          1.39570        0.00000        0.00000
C          2.08840        0.00000        1.20750
C          1.36130        0.05240        2.41050
C         -0.03560        0.09030        2.41420
C         -0.71080        0.05730        1.19870
O          2.14060        0.05100        3.51850
C          1.51200        0.25150        4.77820
C          3.57250        0.00620        1.16380
O          4.20030        0.67420        0.36670
N          4.21800       -0.87230        2.02190
C          5.67840       -0.78910        2.14750
C          6.05670        0.20810        3.20640
C          6.05900        1.57500        2.92220
C          6.37400        2.47730        3.93410
C          6.67490        1.97720        5.20810
N          6.67420        0.66110        5.49030
C          6.37320       -0.20690        4.50690
C         -0.71210       -0.00210       -1.30290
O         -0.52520        0.81910       -2.17640
N         -1.60110       -1.04780       -1.49190
C         -2.44310       -1.07080       -2.69190
C         -3.73080       -0.33450       -2.44840
C         -3.74880        1.06110       -2.40650
C         -4.94970        1.71760       -2.15520
C         -6.10500        0.94890       -1.95810
N         -6.09730       -0.39620       -2.00080
C         -4.93210       -1.02590       -2.24000
H          1.95130        0.00930       -0.94730
H         -0.59460        0.14640        3.34250
H         -1.80230        0.08970        1.18790
H          0.98210        1.20960        4.80210
H          2.37480        0.27510        5.46100
H          0.85010       -0.58570        5.01900
H          3.72180       -1.26310        2.80800
H          6.11810       -0.50120        1.15650
H          6.07010       -1.80700        2.37750
H          5.80510        1.92430        1.91580
H          6.38620        3.54660        3.74360
H          6.92860        2.64070        6.04250
H          6.39150       -1.26560        4.78750
H         -1.83890       -1.68300       -0.75120
H         -2.62270       -2.13070       -2.98560
H         -1.88400       -0.60150       -3.54520
H         -2.82330        1.62520       -2.56740
H         -4.99470        2.80210       -2.11520
H         -7.07870        1.41110       -1.75940
H         -4.98250       -2.12010       -2.26250
