
     RDKit          3D

 48 50  0  0  0  0  0  0  0  0999 V2000
    0.1338    0.1709   -0.1093 C   0  0  0  0  0  0  0  0  0  0  0  0
    1.4842    0.3491    0.2082 C   0  0  0  0  0  0  0  0  0  0  0  0
    1.9391    0.4396    1.5259 C   0  0  0  0  0  0  0  0  0  0  0  0
    0.9831    0.3581    2.5707 C   0  0  0  0  0  0  0  0  0  0  0  0
   -0.3764    0.1960    2.2638 C   0  0  0  0  0  0  0  0  0  0  0  0
   -0.7936    0.1060    0.9373 C   0  0  0  0  0  0  0  0  0  0  0  0
    1.4252    0.4420    3.8544 O   0  0  0  0  0  0  0  0  0  0  0  0
    0.5164    0.3165    4.9317 C   0  0  0  0  0  0  0  0  0  0  0  0
    3.4363    0.6022    1.6812 C   0  0  0  0  0  0  0  0  0  0  0  0
    4.1720    0.5028    0.7052 O   0  0  0  0  0  0  0  0  0  0  0  0
    3.9120    0.8859    2.9221 N   0  0  0  0  0  0  0  0  0  0  0  0
    5.3386    1.0054    3.1730 C   0  0  0  0  0  0  0  0  0  0  0  0
    5.9920   -0.3098    3.5384 C   0  0  0  0  0  0  0  0  0  0  0  0
    6.1718   -1.3221    2.5838 C   0  0  0  0  0  0  0  0  0  0  0  0
    6.7506   -2.5255    2.9824 C   0  0  0  0  0  0  0  0  0  0  0  0
    7.1302   -2.6780    4.3212 C   0  0  0  0  0  0  0  0  0  0  0  0
    6.9673   -1.7245    5.2396 N   0  0  0  0  0  0  0  0  0  0  0  0
    6.4124   -0.5751    4.8479 C   0  0  0  0  0  0  0  0  0  0  0  0
   -0.2426    0.0963   -1.5590 C   0  0  0  0  0  0  0  0  0  0  0  0
    0.4787    0.5499   -2.4366 O   0  0  0  0  0  0  0  0  0  0  0  0
   -1.4426   -0.5056   -1.8349 N   0  0  0  0  0  0  0  0  0  0  0  0
   -1.8910   -0.6951   -3.2072 C   0  0  0  0  0  0  0  0  0  0  0  0
   -1.4172   -1.9931   -3.8226 C   0  0  0  0  0  0  0  0  0  0  0  0
   -0.0683   -2.1934   -4.1537 C   0  0  0  0  0  0  0  0  0  0  0  0
    0.3153   -3.4202   -4.6914 C   0  0  0  0  0  0  0  0  0  0  0  0
   -0.6606   -4.4058   -4.8811 C   0  0  0  0  0  0  0  0  0  0  0  0
   -1.9465   -4.2294   -4.5737 N   0  0  0  0  0  0  0  0  0  0  0  0
   -2.3047   -3.0510   -4.0589 C   0  0  0  0  0  0  0  0  0  0  0  0
    2.2220    0.4163   -0.5914 H   0  0  0  0  0  0  0  0  0  0  0  0
   -1.1201    0.1502    3.0575 H   0  0  0  0  0  0  0  0  0  0  0  0
   -1.8620    0.0133    0.7297 H   0  0  0  0  0  0  0  0  0  0  0  0
   -0.2322    1.1266    4.9251 H   0  0  0  0  0  0  0  0  0  0  0  0
    1.1146    0.3859    5.8490 H   0  0  0  0  0  0  0  0  0  0  0  0
   -0.0004   -0.6575    4.9095 H   0  0  0  0  0  0  0  0  0  0  0  0
    3.2655    0.8332    3.7008 H   0  0  0  0  0  0  0  0  0  0  0  0
    5.4899    1.7351    3.9832 H   0  0  0  0  0  0  0  0  0  0  0  0
    5.7955    1.4082    2.2583 H   0  0  0  0  0  0  0  0  0  0  0  0
    5.8541   -1.1513    1.5525 H   0  0  0  0  0  0  0  0  0  0  0  0
    6.9106   -3.3368    2.2686 H   0  0  0  0  0  0  0  0  0  0  0  0
    7.5873   -3.6146    4.6620 H   0  0  0  0  0  0  0  0  0  0  0  0
    6.2926    0.1963    5.6205 H   0  0  0  0  0  0  0  0  0  0  0  0
   -1.8567   -1.0942   -1.1226 H   0  0  0  0  0  0  0  0  0  0  0  0
   -1.5035    0.1568   -3.7825 H   0  0  0  0  0  0  0  0  0  0  0  0
   -2.9909   -0.6503   -3.2264 H   0  0  0  0  0  0  0  0  0  0  0  0
    0.6528   -1.3904   -3.9839 H   0  0  0  0  0  0  0  0  0  0  0  0
    1.3549   -3.6142   -4.9646 H   0  0  0  0  0  0  0  0  0  0  0  0
   -0.3862   -5.3804   -5.3020 H   0  0  0  0  0  0  0  0  0  0  0  0
   -3.3692   -2.9278   -3.8181 H   0  0  0  0  0  0  0  0  0  0  0  0
  1  2  2  0
  1  6  1  0
  1 19  1  0
  2  3  1  0
  2 29  1  0
  3  4  2  0
  3  9  1  0
  4  5  1  0
  4  7  1  0
  5  6  2  0
  5 30  1  0
  6 31  1  0
  7  8  1  0
  8 32  1  0
  8 33  1  0
  8 34  1  0
  9 10  2  0
  9 11  1  0
 11 12  1  0
 11 35  1  0
 12 13  1  0
 12 36  1  0
 12 37  1  0
 13 14  2  0
 13 18  1  0
 14 15  1  0
 14 38  1  0
 15 16  2  0
 15 39  1  0
 16 17  1  0
 16 40  1  0
 17 18  2  0
 18 41  1  0
 19 20  2  0
 19 21  1  0
 21 22  1  0
 21 42  1  0
 22 23  1  0
 22 43  1  0
 22 44  1  0
 23 24  2  0
 23 28  1  0
 24 25  1  0
 24 45  1  0
 25 26  2  0
 25 46  1  0
 26 27  1  0
 26 47  1  0
 27 28  2  0
 28 48  1  0
M  END

