rmsd185.gzmat
 OpenBabel08211713383D

 48 50  0  0  1  0  0  0  0  0999 V2000
    0.0000    0.0000    0.0000 C   0  0  0  0  0  0  0  0  0  0  0  0
    1.3919    0.0000    0.0000 C   0  0  0  0  0  0  0  0  0  0  0  0
    2.0989    0.0000    1.2041 C   0  0  0  0  0  0  0  0  0  0  0  0
    1.3743   -0.0011    2.4086 C   0  0  0  0  0  0  0  0  0  0  0  0
   -0.0249   -0.0184    2.4165 C   0  0  0  0  0  0  0  0  0  0  0  0
   -0.7070   -0.0263    1.2065 C   0  0  0  0  0  0  0  0  0  0  0  0
    2.1455    0.0156    3.5217 O   0  0  0  0  0  0  0  0  0  0  0  0
    1.4955    0.0384    4.7864 C   0  0  0  0  0  0  0  0  0  0  0  0
    3.5773    0.0308    1.0848 C   0  0  0  0  0  0  0  0  0  0  0  0
    4.1232    0.4885    0.0941 O   0  0  0  0  0  0  0  0  0  0  0  0
    4.3301   -0.5055    2.1054 N   0  0  0  0  0  0  0  0  0  0  0  0
    5.7832   -0.6203    1.9493 C   0  0  0  0  0  0  0  0  0  0  0  0
    6.1377   -1.9457    1.3340 C   0  0  1  0  0  0  0  0  0  0  0  0
    6.6821   -2.9804    2.0900 C   0  0  0  0  0  0  0  0  0  0  0  0
    6.9736   -4.1948    1.4703 C   0  0  0  0  0  0  0  0  0  0  0  0
    6.7057   -4.3299    0.1029 C   0  0  0  0  0  0  0  0  0  0  0  0
    6.1784   -3.3335   -0.6354 N   0  0  0  0  0  0  0  0  0  0  0  0
    5.8996   -2.1653   -0.0344 C   0  0  0  0  0  0  0  0  0  0  0  0
   -0.7911    0.0072   -1.2547 C   0  0  0  0  0  0  0  0  0  0  0  0
   -1.8206   -0.6242   -1.3925 O   0  0  0  0  0  0  0  0  0  0  0  0
   -0.2942    0.7838   -2.2885 N   0  0  0  0  0  0  0  0  0  0  0  0
   -1.1048    0.9647   -3.4972 C   0  0  0  0  0  0  0  0  0  0  0  0
   -2.1014    2.0738   -3.3038 C   0  0  0  0  0  0  0  0  0  0  0  0
   -1.8668    3.3599   -3.7841 C   0  0  0  0  0  0  0  0  0  0  0  0
   -2.8092    4.3583   -3.5437 C   0  0  0  0  0  0  0  0  0  0  0  0
   -3.9630    4.0299   -2.8220 C   0  0  0  0  0  0  0  0  0  0  0  0
   -4.2002    2.7873   -2.3588 N   0  0  0  0  0  0  0  0  0  0  0  0
   -3.2909    1.8276   -2.5956 C   0  0  0  0  0  0  0  0  0  0  0  0
    1.9549   -0.0046   -0.9437 H   0  0  0  0  0  0  0  0  0  0  0  0
   -0.5819   -0.0292    3.3478 H   0  0  0  0  0  0  0  0  0  0  0  0
   -1.8023   -0.0554    1.1887 H   0  0  0  0  0  0  0  0  0  0  0  0
    0.8803    0.9380    4.8927 H   0  0  0  0  0  0  0  0  0  0  0  0
    2.3474    0.0755    5.4802 H   0  0  0  0  0  0  0  0  0  0  0  0
    0.9108   -0.8742    4.9401 H   0  0  0  0  0  0  0  0  0  0  0  0
    3.9097   -0.9301    2.9128 H   0  0  0  0  0  0  0  0  0  0  0  0
    6.2647   -0.4855    2.9449 H   0  0  0  0  0  0  0  0  0  0  0  0
    6.1563    0.2188    1.3031 H   0  0  0  0  0  0  0  0  0  0  0  0
    6.8768   -2.8487    3.1532 H   0  0  0  0  0  0  0  0  0  0  0  0
    7.3985   -5.0196    2.0329 H   0  0  0  0  0  0  0  0  0  0  0  0
    6.9128   -5.2611   -0.4363 H   0  0  0  0  0  0  0  0  0  0  0  0
    5.4650   -1.3794   -0.6733 H   0  0  0  0  0  0  0  0  0  0  0  0
    0.4670    1.4263   -2.1433 H   0  0  0  0  0  0  0  0  0  0  0  0
   -1.6318    0.0029   -3.7333 H   0  0  0  0  0  0  0  0  0  0  0  0
   -0.4255    1.1671   -4.3572 H   0  0  0  0  0  0  0  0  0  0  0  0
   -0.9587    3.5882   -4.3402 H   0  0  0  0  0  0  0  0  0  0  0  0
   -2.6538    5.3699   -3.9049 H   0  0  0  0  0  0  0  0  0  0  0  0
   -4.7353    4.7739   -2.5969 H   0  0  0  0  0  0  0  0  0  0  0  0
   -3.5238    0.8277   -2.1942 H   0  0  0  0  0  0  0  0  0  0  0  0
  1  2  2  0  0  0  0
  1  6  1  0  0  0  0
  2  3  1  0  0  0  0
  3  4  2  0  0  0  0
  4  5  1  0  0  0  0
  4  7  1  0  0  0  0
  5 30  1  0  0  0  0
  6  5  2  0  0  0  0
  7  8  1  0  0  0  0
  8 32  1  0  0  0  0
  8 34  1  0  0  0  0
  8 33  1  0  0  0  0
  9  3  1  0  0  0  0
  9 11  1  0  0  0  0
 10  9  2  0  0  0  0
 11 35  1  0  0  0  0
 12 11  1  0  0  0  0
 12 36  1  0  0  0  0
 13 12  1  1  0  0  0
 13 14  1  0  0  0  0
 14 38  1  0  0  0  0
 15 39  1  0  0  0  0
 15 14  2  0  0  0  0
 16 15  1  0  0  0  0
 17 18  2  0  0  0  0
 17 16  2  0  0  0  0
 18 13  1  0  0  0  0
 19  1  1  0  0  0  0
 20 19  2  0  0  0  0
 21 42  1  0  0  0  0
 21 19  1  0  0  0  0
 22 23  1  0  0  0  0
 22 21  1  0  0  0  0
 23 28  1  0  0  0  0
 24 25  1  0  0  0  0
 24 23  2  0  0  0  0
 25 26  1  0  0  0  0
 26 47  1  0  0  0  0
 26 27  2  0  0  0  0
 28 27  2  0  0  0  0
 28 48  1  0  0  0  0
 29  2  1  0  0  0  0
 31  6  1  0  0  0  0
 37 12  1  0  0  0  0
 40 16  1  0  0  0  0
 41 18  1  0  0  0  0
 43 22  1  0  0  0  0
 44 22  1  0  0  0  0
 45 24  1  0  0  0  0
 46 25  1  0  0  0  0
M  RAD  2  13   2  25   2
M  END
$$$$
