48
rmsd165.gzmat
C          0.00000        0.00000        0.00000
C          1.39480        0.00000        0.00000
C          2.07900        0.00000        1.20930
C          1.35180       -0.01580        2.41380
C         -0.04440       -0.05160        2.41740
C         -0.71430       -0.04830        1.19890
O          2.13800        0.03330        3.51490
C          1.53550       -0.24060        4.77530
C          3.56330       -0.06660        1.23500
O          4.20190       -0.97170        0.74280
N          4.18860        1.01750        1.83290
C          5.61710        0.94220        2.16190
C          5.81550        0.95930        3.65160
C          6.70430        1.84490        4.25790
C          6.81980        1.84970        5.64700
C          6.02190        0.97210        6.39080
N          5.17010        0.10260        5.81280
C          5.08400        0.08370        4.47220
C         -0.77350       -0.00620       -1.26770
O         -1.57840       -0.86750       -1.55780
N         -0.57440        1.08700       -2.09240
C         -1.24040        1.14310       -3.39710
C         -0.33780        0.63200       -4.48400
C          0.07810       -0.70130       -4.49090
C          0.92850       -1.14280       -5.49940
C          1.33390       -0.22840       -6.48150
N          0.92650        1.05400       -6.49070
C          0.10580        1.47610       -5.51100
H          1.95520       -0.01660       -0.93950
H         -0.60390       -0.08240        3.34660
H         -1.80710       -0.08780        1.17380
H          0.86480        0.57250        5.06520
H          2.41270       -0.27540        5.44470
H          1.02650       -1.20930        4.76640
H          3.64780        1.69470        2.34930
H          6.13610        1.79700        1.66590
H          6.06370        0.01090        1.72020
H          7.30320        2.52920        3.65750
H          7.51090        2.52300        6.14560
H          6.05500        0.94920        7.48590
H          4.39650       -0.66030        4.04400
H          0.15790        1.75370       -1.91970
H         -1.56370        2.19290       -3.58790
H         -2.18090        0.52980       -3.36220
H         -0.26680       -1.38540       -3.70930
H          1.27190       -2.17330       -5.52940
H          2.00760       -0.51850       -7.29570
H         -0.19700        2.52740       -5.56960
