50

O          0.27400        0.55250       -0.12750
C          1.47070        0.42620       -0.00330
N          2.22970        0.61980        1.14700
H          1.80000        0.89680        2.02080
C          3.58530        0.45480        0.91580
C          3.73020        0.12510       -0.40330
N          2.43060        0.08680       -0.98110
C          2.23240        0.27880       -2.39250
O          3.01410        0.97290       -3.00040
C          1.14470       -0.48850       -3.04930
C          0.39080       -1.47280       -2.39190
C         -0.51760       -2.25020       -3.10930
C         -0.68050       -2.05210       -4.48430
C          0.06490       -1.06820       -5.14420
C          0.97360       -0.29080       -4.42990
C          4.95770       -0.32020       -1.09340
O          6.06450        0.05920       -0.74260
C          4.78400       -1.27380       -2.23670
C          3.81630       -2.28750       -2.21010
C          3.60940       -3.09860       -3.32160
C          4.35490       -2.88730       -4.48850
C          5.35420       -1.90270       -4.50790
C          5.57730       -1.11680       -3.38100
N          4.05790       -3.64760       -5.64510
C          2.77500       -3.88080       -6.12790
C          2.93920       -4.68740       -7.22600
N          4.27080       -4.96780       -7.42170
C          4.92980       -4.33840       -6.47360
C          6.40910       -4.38670       -6.27740
C          4.59740        0.53170        2.00920
C          4.42560       -0.55940        3.07550
H          0.51330       -1.63440       -1.32290
H         -1.10110       -3.01600       -2.59380
H         -1.39090       -2.66610       -5.04330
H         -0.05920       -0.91380       -6.21820
H          1.58280        0.46630       -4.92510
H          3.20840       -2.43820       -1.31710
H          2.85540       -3.88640       -3.30040
H          5.92200       -1.72720       -5.42150
H          6.33350       -0.33020       -3.39250
H          1.90520       -3.42090       -5.66650
H          2.16790       -5.07800       -7.88860
H          6.68150       -4.48290       -5.21530
H          6.91190       -3.48690       -6.66950
H          6.79560       -5.25280       -6.82970
H          4.52510        1.52890        2.47960
H          5.58870        0.47500        1.54220
H          3.43640       -0.51320        3.55910
H          5.18670       -0.45140        3.86280
H          4.53440       -1.56060        2.63090
