50

O          0.21020        0.91230       -0.32400
C          1.37930        0.67650       -0.12610
N          2.08190        0.81970        1.06830
H          1.62490        1.13360        1.91560
C          3.42270        0.51160        0.92890
C          3.61870        0.15500       -0.37650
N          2.36270        0.22890       -1.03880
C          2.27730        0.42990       -2.45790
O          3.18470        0.99740       -3.02320
C          1.11960       -0.16080       -3.17070
C          0.25560       -1.09730       -2.58310
C         -0.73800       -1.70520       -3.34950
C         -0.87840       -1.38150       -4.70250
C         -0.02180       -0.44520       -5.29300
C          0.97480        0.15970       -4.53140
C          4.85310       -0.39060       -0.96010
O          5.94950       -0.09950       -0.50280
C          4.70730       -1.33770       -2.11240
C          3.68050       -2.29150       -2.14770
C          3.50890       -3.10430       -3.26590
C          4.36400       -2.96140       -4.36400
C          5.42140       -2.04270       -4.31640
C          5.59540       -1.24150       -3.19150
N          4.13600       -3.72810       -5.53650
C          4.12840       -5.11290       -5.62470
C          3.78690       -5.39290       -6.92570
N          3.56790       -4.23010       -7.62530
C          3.77950       -3.24190       -6.78300
C          3.60550       -1.78830       -7.07440
C          4.39590        0.58870        2.05760
C          5.11390        1.94600        2.11340
H          0.36280       -1.35580       -1.53120
H         -1.40610       -2.43670       -2.88980
H         -1.65630       -1.86220       -5.30040
H         -0.12960       -0.19430       -6.35040
H          1.66700        0.87870       -4.97190
H          2.99160       -2.38200       -1.30650
H          2.69050       -3.82430       -3.31410
H          6.09730       -1.96150       -5.16900
H          6.40400       -0.51030       -3.14520
H          4.39010       -5.73700       -4.77460
H          3.69090       -6.37150       -7.39440
H          4.56330       -1.24360       -7.09200
H          2.96390       -1.30030       -6.32310
H          3.13770       -1.69450       -8.06250
H          5.14680       -0.20280        1.92170
H          3.86570        0.39050        3.00460
H          5.70010        2.08660        1.19450
H          5.79870        1.98380        2.97430
H          4.39900        2.77870        2.20630
