
     RDKit          3D

 50 53  0  0  0  0  0  0  0  0999 V2000
    0.3092    0.6585   -0.1740 O   0  0  0  0  0  0  0  0  0  0  0  0
    1.5021    0.5136   -0.0214 C   0  0  0  0  0  0  0  0  0  0  0  0
    2.2400    0.7180    1.1422 N   0  0  0  0  0  0  0  0  0  0  0  0
    1.7971    1.0212    2.0007 H   0  0  0  0  0  0  0  0  0  0  0  0
    3.5951    0.5148    0.9455 C   0  0  0  0  0  0  0  0  0  0  0  0
    3.7582    0.1511   -0.3632 C   0  0  0  0  0  0  0  0  0  0  0  0
    2.4708    0.1317   -0.9665 N   0  0  0  0  0  0  0  0  0  0  0  0
    2.3181    0.2922   -2.3957 C   0  0  0  0  0  0  0  0  0  0  0  0
    3.0775    1.0329   -2.9740 O   0  0  0  0  0  0  0  0  0  0  0  0
    1.3517   -0.5940   -3.0898 C   0  0  0  0  0  0  0  0  0  0  0  0
    0.4769   -1.4645   -2.4213 C   0  0  0  0  0  0  0  0  0  0  0  0
   -0.2645   -2.3959   -3.1477 C   0  0  0  0  0  0  0  0  0  0  0  0
   -0.1297   -2.4752   -4.5379 C   0  0  0  0  0  0  0  0  0  0  0  0
    0.7297   -1.5991   -5.2100 C   0  0  0  0  0  0  0  0  0  0  0  0
    1.4579   -0.6559   -4.4902 C   0  0  0  0  0  0  0  0  0  0  0  0
    4.9807   -0.3486   -1.0229 C   0  0  0  0  0  0  0  0  0  0  0  0
    6.0964   -0.0064   -0.6635 O   0  0  0  0  0  0  0  0  0  0  0  0
    4.7791   -1.3108   -2.1575 C   0  0  0  0  0  0  0  0  0  0  0  0
    3.8260   -2.3352   -2.0864 C   0  0  0  0  0  0  0  0  0  0  0  0
    3.5601   -3.1398   -3.1914 C   0  0  0  0  0  0  0  0  0  0  0  0
    4.2480   -2.9224   -4.3895 C   0  0  0  0  0  0  0  0  0  0  0  0
    5.2482   -1.9382   -4.4501 C   0  0  0  0  0  0  0  0  0  0  0  0
    5.5146   -1.1443   -3.3388 C   0  0  0  0  0  0  0  0  0  0  0  0
    3.9058   -3.6458   -5.5576 N   0  0  0  0  0  0  0  0  0  0  0  0
    3.7275   -3.0784   -6.8140 C   0  0  0  0  0  0  0  0  0  0  0  0
    3.3903   -4.1184   -7.6435 C   0  0  0  0  0  0  0  0  0  0  0  0
    3.3689   -5.3009   -6.9434 N   0  0  0  0  0  0  0  0  0  0  0  0
    3.6737   -5.0059   -5.6983 C   0  0  0  0  0  0  0  0  0  0  0  0
    3.8012   -6.0002   -4.5918 C   0  0  0  0  0  0  0  0  0  0  0  0
    4.5878    0.5898    2.0567 C   0  0  0  0  0  0  0  0  0  0  0  0
    4.3671   -0.4713    3.1440 C   0  0  0  0  0  0  0  0  0  0  0  0
    0.3673   -1.4063   -1.3402 H   0  0  0  0  0  0  0  0  0  0  0  0
   -0.9466   -3.0704   -2.6253 H   0  0  0  0  0  0  0  0  0  0  0  0
   -0.6952   -3.2220   -5.1003 H   0  0  0  0  0  0  0  0  0  0  0  0
    0.8440   -1.6687   -6.2935 H   0  0  0  0  0  0  0  0  0  0  0  0
    2.1559    0.0194   -4.9864 H   0  0  0  0  0  0  0  0  0  0  0  0
    3.2454   -2.4753   -1.1733 H   0  0  0  0  0  0  0  0  0  0  0  0
    2.7644   -3.8818   -3.1465 H   0  0  0  0  0  0  0  0  0  0  0  0
    5.8035   -1.7949   -5.3784 H   0  0  0  0  0  0  0  0  0  0  0  0
    6.2714   -0.3595   -3.3844 H   0  0  0  0  0  0  0  0  0  0  0  0
    3.8287   -2.0089   -6.9724 H   0  0  0  0  0  0  0  0  0  0  0  0
    3.1629   -4.0770   -8.7079 H   0  0  0  0  0  0  0  0  0  0  0  0
    2.8941   -6.0465   -3.9662 H   0  0  0  0  0  0  0  0  0  0  0  0
    4.6512   -5.7747   -3.9304 H   0  0  0  0  0  0  0  0  0  0  0  0
    3.9458   -6.9905   -5.0425 H   0  0  0  0  0  0  0  0  0  0  0  0
    4.5341    1.5991    2.5032 H   0  0  0  0  0  0  0  0  0  0  0  0
    5.5857    0.4956    1.6102 H   0  0  0  0  0  0  0  0  0  0  0  0
    3.3707   -0.3874    3.6074 H   0  0  0  0  0  0  0  0  0  0  0  0
    5.1162   -0.3657    3.9430 H   0  0  0  0  0  0  0  0  0  0  0  0
    4.4566   -1.4851    2.7243 H   0  0  0  0  0  0  0  0  0  0  0  0
  1  2  2  0
  2  3  1  0
  2  7  1  0
  3  4  1  0
  3  5  1  0
  5  6  2  0
  5 30  1  0
  6  7  1  0
  6 16  1  0
  7  8  1  0
  8  9  2  0
  8 10  1  0
 10 11  2  0
 10 15  1  0
 11 12  1  0
 11 32  1  0
 12 13  2  0
 12 33  1  0
 13 14  1  0
 13 34  1  0
 14 15  2  0
 14 35  1  0
 15 36  1  0
 16 17  2  0
 16 18  1  0
 18 19  2  0
 18 23  1  0
 19 20  1  0
 19 37  1  0
 20 21  2  0
 20 38  1  0
 21 22  1  0
 21 24  1  0
 22 23  2  0
 22 39  1  0
 23 40  1  0
 24 25  1  0
 24 28  1  0
 25 26  2  0
 25 41  1  0
 26 27  1  0
 26 42  1  0
 27 28  2  0
 28 29  1  0
 29 43  1  0
 29 44  1  0
 29 45  1  0
 30 31  1  0
 30 46  1  0
 30 47  1  0
 31 48  1  0
 31 49  1  0
 31 50  1  0
M  END

