50
rmsd140.gzmat
O          0.00000        0.00000        0.00000
C          1.20270        0.00000        0.00000
N          2.03620        0.00000        1.14130
H          1.70310        0.02940        2.08210
C          3.38670        0.03860        0.74580
C          3.42610        0.01700       -0.62920
N          2.08490       -0.00680       -1.11830
C          1.73640        0.22910       -2.47570
O          2.61940        0.51030       -3.24430
C          0.31290        0.05760       -2.83390
C         -0.63360        1.00970       -2.45850
C         -1.96370        0.83450       -2.83540
C         -2.33640       -0.28650       -3.57540
C         -1.38190       -1.23170       -3.95100
C         -0.04900       -1.06080       -3.58480
C          4.62660       -0.00260       -1.48110
O          5.55290        0.73560       -1.23640
C          4.70110       -0.99800       -2.57620
C          4.08340       -2.24490       -2.46260
C          4.19710       -3.17350       -3.49010
C          4.93600       -2.84340       -4.63600
C          5.55740       -1.59390       -4.75430
C          5.43390       -0.67250       -3.71930
N          5.06080       -3.79510       -5.67550
C          5.31260       -5.16170       -5.47410
C          5.36910       -5.73430       -6.73890
N          5.14810       -4.75760       -7.70300
C          4.96580       -3.59090       -7.06640
C          4.68060       -2.29400       -7.70730
C          4.48900        0.09150        1.73060
C          4.82560        1.55140        2.04740
H         -0.34230        1.87500       -1.86320
H         -2.71090        1.56860       -2.54000
H         -3.37840       -0.42610       -3.85920
H         -1.67840       -2.10480       -4.52860
H          0.70220       -1.79310       -3.88160
H          3.50750       -2.49360       -1.56860
H          3.71090       -4.14440       -3.41150
H          6.14590       -1.34970       -5.63680
H          5.91180        0.30890       -3.79460
H          5.44250       -5.58650       -4.50280
H          5.54740       -6.75300       -7.02520
H          5.60940       -1.75480       -7.95960
H          4.06020       -1.63420       -7.08090
H          4.14060       -2.44490       -8.66160
H          5.39590       -0.41440        1.32120
H          4.23630       -0.46060        2.65960
H          5.15260        2.08170        1.13830
H          5.64250        1.62290        2.77420
H          3.96610        2.09390        2.45460
