50
rmsd95.gzmat
O          0.00000        0.00000        0.00000
C          1.20330        0.00000        0.00000
N          2.03450        0.00000        1.14410
H          1.69970       -0.01030        2.08470
C          3.38600        0.01920        0.75200
C          3.42680        0.01240       -0.62280
N          2.08570       -0.00020       -1.11490
C          1.75880        0.25320       -2.47800
O          2.62890        0.68560       -3.18860
C          0.40300       -0.12060       -2.92910
C         -0.72170        0.60700       -2.54840
C         -1.97230        0.23410       -3.03990
C         -2.08830       -0.85810       -3.89760
C         -0.95580       -1.57930       -4.27770
C          0.29700       -1.20870       -3.79800
C          4.62160       -0.05550       -1.47800
O          5.59890        0.60920       -1.22590
C          4.60740       -1.02900       -2.59700
C          3.97810       -2.26720       -2.45270
C          3.99240       -3.18030       -3.49940
C          4.64580       -2.84190       -4.69340
C          5.26530       -1.59610       -4.84800
C          5.24750       -0.69200       -3.78990
N          4.68030       -3.78200       -5.75080
C          3.57780       -4.53030       -6.19020
C          4.05420       -5.36140       -7.19740
N          5.41650       -5.14770       -7.37380
C          5.79480       -4.19790       -6.50530
C          7.16280       -3.67390       -6.33640
C          4.49410        0.00200        1.73050
C          4.83340       -1.43480        2.13130
H         -0.63170        1.45190       -1.86380
H         -2.85750        0.79460       -2.74420
H         -3.06790       -1.14980       -4.27350
H         -1.05000       -2.42910       -4.95090
H          1.18830       -1.75870       -4.10140
H          3.47640       -2.52260       -1.51700
H          3.51560       -4.15320       -3.39090
H          5.74180       -1.33050       -5.79010
H          5.72550        0.28690       -3.89130
H          2.59720       -4.40150       -5.78640
H          3.53470       -6.08340       -7.79700
H          7.40170       -3.43440       -5.28910
H          7.32790       -2.76720       -6.94230
H          7.90670       -4.41870       -6.68060
H          4.25120        0.60900        2.62810
H          5.39600        0.49460        1.28700
H          3.96550       -1.96130        2.54410
H          5.62580       -1.45530        2.88960
H          5.19500       -2.01680        1.27340
