50
rmsd98.gzmat
O          0.00000        0.00000        0.00000
C          1.20230        0.00000        0.00000
N          2.03870        0.00000        1.14060
H          1.70820        0.01380        2.08290
C          3.38820       -0.01690        0.74350
C          3.42570       -0.04820       -0.63180
N          2.08100       -0.03560       -1.12140
C          1.74210        0.37460       -2.44360
O          2.61360        0.85250       -3.12600
C          0.35410        0.15770       -2.89120
C         -0.25470        1.17600       -3.62880
C         -1.55340        0.99960       -4.09790
C         -2.22990       -0.19370       -3.84320
C         -1.61210       -1.21290       -3.12000
C         -0.31750       -1.03810       -2.63530
C          4.60890       -0.18460       -1.49290
O          5.65700        0.33930       -1.20060
C          4.45350       -1.05150       -2.68750
C          3.95670       -2.34770       -2.54280
C          3.73490       -3.13340       -3.66730
C          4.00870       -2.60120       -4.93460
C          4.54930       -1.31800       -5.08010
C          4.77520       -0.54350       -3.94590
N          3.71340       -3.36980       -6.08650
C          4.07960       -4.70880       -6.28140
C          3.54150       -5.07780       -7.50960
N          2.84520       -4.00580       -8.05620
C          2.94660       -2.97730       -7.20030
C          2.34260       -1.64190       -7.36160
C          4.49430       -0.03110        1.72430
C          4.66630       -1.42420        2.33080
H          0.28660        2.10120       -3.83330
H         -2.04050        1.79280       -4.66150
H         -3.24660       -0.32930       -4.21000
H         -2.14290       -2.14280       -2.92410
H          0.16110       -1.82700       -2.05410
H          3.72630       -2.73940       -1.55110
H          3.33220       -4.14000       -3.56990
H          4.78850       -0.92960       -6.06860
H          5.17970        0.46800       -4.03830
H          4.67430       -5.25190       -5.57950
H          3.59960       -6.01350       -8.03080
H          3.05280       -0.92430       -7.80520
H          1.98690       -1.21830       -6.40860
H          1.47360       -1.68920       -8.04460
H          4.32840        0.72410        2.52250
H          5.44510        0.28600        1.22530
H          3.76810       -1.75640        2.86200
H          5.49810       -1.44150        3.04600
H          4.89000       -2.17230        1.55930
