
     RDKit          3D

 50 53  0  0  0  0  0  0  0  0999 V2000
    0.2261    0.4466   -0.0623 O   0  0  0  0  0  0  0  0  0  0  0  0
    1.4285    0.3254   -0.0256 C   0  0  0  0  0  0  0  0  0  0  0  0
    2.2594    0.4500    1.0839 N   0  0  0  0  0  0  0  0  0  0  0  0
    1.8849    0.6627    2.0002 H   0  0  0  0  0  0  0  0  0  0  0  0
    3.5988    0.3197    0.7549 C   0  0  0  0  0  0  0  0  0  0  0  0
    3.6602    0.0819   -0.5896 C   0  0  0  0  0  0  0  0  0  0  0  0
    2.3274    0.0654   -1.0858 N   0  0  0  0  0  0  0  0  0  0  0  0
    2.0411    0.3569   -2.4617 C   0  0  0  0  0  0  0  0  0  0  0  0
    2.8080    1.0598   -3.0806 O   0  0  0  0  0  0  0  0  0  0  0  0
    0.8695   -0.3074   -3.0811 C   0  0  0  0  0  0  0  0  0  0  0  0
    0.1824   -1.3704   -2.4756 C   0  0  0  0  0  0  0  0  0  0  0  0
   -0.8289   -2.0325   -3.1706 C   0  0  0  0  0  0  0  0  0  0  0  0
   -1.1632   -1.6379   -4.4697 C   0  0  0  0  0  0  0  0  0  0  0  0
   -0.4845   -0.5753   -5.0770 C   0  0  0  0  0  0  0  0  0  0  0  0
    0.5293    0.0847   -4.3871 C   0  0  0  0  0  0  0  0  0  0  0  0
    4.8413   -0.3034   -1.3870 C   0  0  0  0  0  0  0  0  0  0  0  0
    5.9654    0.0739   -1.0961 O   0  0  0  0  0  0  0  0  0  0  0  0
    4.5981   -1.2068   -2.5597 C   0  0  0  0  0  0  0  0  0  0  0  0
    3.6774   -2.2616   -2.4914 C   0  0  0  0  0  0  0  0  0  0  0  0
    3.4072   -3.0386   -3.6155 C   0  0  0  0  0  0  0  0  0  0  0  0
    4.0542   -2.7579   -4.8240 C   0  0  0  0  0  0  0  0  0  0  0  0
    5.0104   -1.7348   -4.8871 C   0  0  0  0  0  0  0  0  0  0  0  0
    5.2853   -0.9700   -3.7573 C   0  0  0  0  0  0  0  0  0  0  0  0
    3.7171   -3.4950   -5.9884 N   0  0  0  0  0  0  0  0  0  0  0  0
    3.7863   -4.8735   -6.1338 C   0  0  0  0  0  0  0  0  0  0  0  0
    3.2854   -5.1337   -7.3861 C   0  0  0  0  0  0  0  0  0  0  0  0
    2.8961   -3.9665   -7.9991 N   0  0  0  0  0  0  0  0  0  0  0  0
    3.1591   -2.9941   -7.1530 C   0  0  0  0  0  0  0  0  0  0  0  0
    2.8519   -1.5480   -7.3598 C   0  0  0  0  0  0  0  0  0  0  0  0
    4.6802    0.3364    1.7824 C   0  0  0  0  0  0  0  0  0  0  0  0
    4.5852   -0.8219    2.7855 C   0  0  0  0  0  0  0  0  0  0  0  0
    0.4409   -1.6850   -1.4663 H   0  0  0  0  0  0  0  0  0  0  0  0
   -1.3584   -2.8623   -2.6975 H   0  0  0  0  0  0  0  0  0  0  0  0
   -1.9537   -2.1616   -5.0124 H   0  0  0  0  0  0  0  0  0  0  0  0
   -0.7437   -0.2685   -6.0926 H   0  0  0  0  0  0  0  0  0  0  0  0
    1.0866    0.9031   -4.8451 H   0  0  0  0  0  0  0  0  0  0  0  0
    3.1456   -2.4611   -1.5598 H   0  0  0  0  0  0  0  0  0  0  0  0
    2.6653   -3.8377   -3.5777 H   0  0  0  0  0  0  0  0  0  0  0  0
    5.5294   -1.5453   -5.8278 H   0  0  0  0  0  0  0  0  0  0  0  0
    6.0156   -0.1602   -3.7946 H   0  0  0  0  0  0  0  0  0  0  0  0
    4.2049   -5.5057   -5.3555 H   0  0  0  0  0  0  0  0  0  0  0  0
    3.1886   -6.1005   -7.8785 H   0  0  0  0  0  0  0  0  0  0  0  0
    3.7587   -0.9420   -7.5180 H   0  0  0  0  0  0  0  0  0  0  0  0
    2.3164   -1.1214   -6.4968 H   0  0  0  0  0  0  0  0  0  0  0  0
    2.2214   -1.4609   -8.2536 H   0  0  0  0  0  0  0  0  0  0  0  0
    4.6338    1.3008    2.3195 H   0  0  0  0  0  0  0  0  0  0  0  0
    5.6389    0.3197    1.2488 H   0  0  0  0  0  0  0  0  0  0  0  0
    3.6299   -0.8160    3.3349 H   0  0  0  0  0  0  0  0  0  0  0  0
    5.3960   -0.7568    3.5265 H   0  0  0  0  0  0  0  0  0  0  0  0
    4.6699   -1.7918    2.2717 H   0  0  0  0  0  0  0  0  0  0  0  0
  1  2  2  0
  2  3  1  0
  2  7  1  0
  3  4  1  0
  3  5  1  0
  5  6  2  0
  5 30  1  0
  6  7  1  0
  6 16  1  0
  7  8  1  0
  8  9  2  0
  8 10  1  0
 10 11  2  0
 10 15  1  0
 11 12  1  0
 11 32  1  0
 12 13  2  0
 12 33  1  0
 13 14  1  0
 13 34  1  0
 14 15  2  0
 14 35  1  0
 15 36  1  0
 16 17  2  0
 16 18  1  0
 18 19  2  0
 18 23  1  0
 19 20  1  0
 19 37  1  0
 20 21  2  0
 20 38  1  0
 21 22  1  0
 21 24  1  0
 22 23  2  0
 22 39  1  0
 23 40  1  0
 24 25  1  0
 24 28  1  0
 25 26  2  0
 25 41  1  0
 26 27  1  0
 26 42  1  0
 27 28  2  0
 28 29  1  0
 29 43  1  0
 29 44  1  0
 29 45  1  0
 30 31  1  0
 30 46  1  0
 30 47  1  0
 31 48  1  0
 31 49  1  0
 31 50  1  0
M  END

