rmsd24.gzmat
 OpenBabel08211713413D

 50 53  0  0  0  0  0  0  0  0999 V2000
    0.0000    0.0000    0.0000 O   0  0  0  0  0  0  0  0  0  0  0  0
    1.2032    0.0000    0.0000 C   0  0  0  0  0  0  0  0  0  0  0  0
    2.0342    0.0000    1.1442 N   0  0  0  0  0  0  0  0  0  0  0  0
    1.6990   -0.0148    2.0843 H   0  0  0  0  0  0  0  0  0  0  0  0
    3.3854    0.0256    0.7527 C   0  0  0  0  0  0  0  0  0  0  0  0
    3.4275    0.0189   -0.6224 C   0  0  0  0  0  0  0  0  0  0  0  0
    2.0865    0.0027   -1.1144 N   0  0  0  0  0  0  0  0  0  0  0  0
    1.7468    0.2540   -2.4744 C   0  0  0  0  0  0  0  0  0  0  0  0
    2.6105    0.6723   -3.2006 O   0  0  0  0  0  0  0  0  0  0  0  0
    0.3747   -0.0965   -2.8954 C   0  0  0  0  0  0  0  0  0  0  0  0
   -0.7187    0.6825   -2.5238 C   0  0  0  0  0  0  0  0  0  0  0  0
   -1.9898    0.3327   -2.9774 C   0  0  0  0  0  0  0  0  0  0  0  0
   -2.1567   -0.7868   -3.7903 C   0  0  0  0  0  0  0  0  0  0  0  0
   -1.0556   -1.5596   -4.1607 C   0  0  0  0  0  0  0  0  0  0  0  0
    0.2178   -1.2146   -3.7164 C   0  0  0  0  0  0  0  0  0  0  0  0
    4.6223   -0.0496   -1.4775 C   0  0  0  0  0  0  0  0  0  0  0  0
    5.6072    0.5994   -1.2164 O   0  0  0  0  0  0  0  0  0  0  0  0
    4.5882   -1.0048   -2.6118 C   0  0  0  0  0  0  0  0  0  0  0  0
    3.9929   -2.2576   -2.4603 C   0  0  0  0  0  0  0  0  0  0  0  0
    3.9626   -3.1476   -3.5274 C   0  0  0  0  0  0  0  0  0  0  0  0
    4.5461   -2.7749   -4.7458 C   0  0  0  0  0  0  0  0  0  0  0  0
    5.1390   -1.5149   -4.9041 C   0  0  0  0  0  0  0  0  0  0  0  0
    5.1604   -0.6320   -3.8292 C   0  0  0  0  0  0  0  0  0  0  0  0
    4.5407   -3.6802   -5.8329 N   0  0  0  0  0  0  0  0  0  0  0  0
    4.2909   -3.3232   -7.1672 C   0  0  0  0  0  0  0  0  0  0  0  0
    4.4389   -4.4866   -7.9126 C   0  0  0  0  0  0  0  0  0  0  0  0
    4.7826   -5.5388   -7.0711 N   0  0  0  0  0  0  0  0  0  0  0  0
    4.8453   -5.0560   -5.8213 C   0  0  0  0  0  0  0  0  0  0  0  0
    5.1996   -5.8296   -4.6168 C   0  0  0  0  0  0  0  0  0  0  0  0
    4.4901    0.0178    1.7352 C   0  0  0  0  0  0  0  0  0  0  0  0
    4.8612   -1.4174    2.1130 C   0  0  0  0  0  0  0  0  0  0  0  0
   -0.5881    1.5486   -1.8741 H   0  0  0  0  0  0  0  0  0  0  0  0
   -2.8513    0.9314   -2.6873 H   0  0  0  0  0  0  0  0  0  0  0  0
   -3.1524   -1.0594   -4.1375 H   0  0  0  0  0  0  0  0  0  0  0  0
   -1.1916   -2.4315   -4.7977 H   0  0  0  0  0  0  0  0  0  0  0  0
    1.0845   -1.8096   -4.0070 H   0  0  0  0  0  0  0  0  0  0  0  0
    3.5422   -2.5396   -1.5068 H   0  0  0  0  0  0  0  0  0  0  0  0
    3.4755   -4.1147   -3.4213 H   0  0  0  0  0  0  0  0  0  0  0  0
    5.5853   -1.2317   -5.8563 H   0  0  0  0  0  0  0  0  0  0  0  0
    5.6181    0.3560   -3.9339 H   0  0  0  0  0  0  0  0  0  0  0  0
    4.0239   -2.3290   -7.4554 H   0  0  0  0  0  0  0  0  0  0  0  0
    4.3297   -4.6468   -8.9680 H   0  0  0  0  0  0  0  0  0  0  0  0
    4.3058   -6.2594   -4.1346 H   0  0  0  0  0  0  0  0  0  0  0  0
    5.7412   -5.2321   -3.8683 H   0  0  0  0  0  0  0  0  0  0  0  0
    5.8500   -6.6844   -4.8866 H   0  0  0  0  0  0  0  0  0  0  0  0
    4.2295    0.6025    2.6425 H   0  0  0  0  0  0  0  0  0  0  0  0
    5.3805    0.5389    1.3025 H   0  0  0  0  0  0  0  0  0  0  0  0
    4.0146   -1.9579    2.5502 H   0  0  0  0  0  0  0  0  0  0  0  0
    5.6778   -1.4333    2.8452 H   0  0  0  0  0  0  0  0  0  0  0  0
    5.2003   -1.9870    1.2383 H   0  0  0  0  0  0  0  0  0  0  0  0
  1  2  2  0  0  0  0
  2  3  1  0  0  0  0
  3  4  1  0  0  0  0
  5  3  1  0  0  0  0
  5 30  1  0  0  0  0
  6  5  2  0  0  0  0
  7  6  1  0  0  0  0
  7  2  1  0  0  0  0
  8  7  1  0  0  0  0
  9  8  2  0  0  0  0
 10 11  1  0  0  0  0
 10  8  1  0  0  0  0
 11 32  1  0  0  0  0
 12 33  1  0  0  0  0
 12 11  2  0  0  0  0
 13 12  1  0  0  0  0
 14 13  2  0  0  0  0
 14 15  1  0  0  0  0
 15 10  2  0  0  0  0
 16 17  2  0  0  0  0
 16  6  1  0  0  0  0
 18 19  1  0  0  0  0
 18 16  1  0  0  0  0
 19 37  1  0  0  0  0
 20 38  1  0  0  0  0
 20 19  2  0  0  0  0
 21 20  1  0  0  0  0
 22 21  2  0  0  0  0
 22 23  1  0  0  0  0
 23 18  2  0  0  0  0
 24 28  1  0  0  0  0
 24 21  1  0  0  0  0
 25 24  1  0  0  0  0
 26 25  1  0  0  0  0
 26 27  2  0  0  0  0
 27 28  2  0  0  0  0
 28 29  1  0  0  0  0
 29 43  1  0  0  0  0
 29 44  1  0  0  0  0
 30 31  1  0  0  0  0
 30 46  1  0  0  0  0
 31 48  1  0  0  0  0
 31 49  1  0  0  0  0
 34 13  1  0  0  0  0
 35 14  1  0  0  0  0
 36 15  1  0  0  0  0
 39 22  1  0  0  0  0
 40 23  1  0  0  0  0
 41 25  1  0  0  0  0
 42 26  1  0  0  0  0
 45 29  1  0  0  0  0
 47 30  1  0  0  0  0
 50 31  1  0  0  0  0
M  RAD  1  25   2
M  END
$$$$
