50
rmsd24.gzmat
O          0.00000        0.00000        0.00000
C          1.20320        0.00000        0.00000
N          2.03420        0.00000        1.14420
H          1.69900       -0.01480        2.08430
C          3.38540        0.02560        0.75270
C          3.42750        0.01890       -0.62240
N          2.08650        0.00270       -1.11440
C          1.74680        0.25400       -2.47440
O          2.61050        0.67230       -3.20060
C          0.37470       -0.09650       -2.89540
C         -0.71870        0.68250       -2.52380
C         -1.98980        0.33270       -2.97740
C         -2.15670       -0.78680       -3.79030
C         -1.05560       -1.55960       -4.16070
C          0.21780       -1.21460       -3.71640
C          4.62230       -0.04960       -1.47750
O          5.60720        0.59940       -1.21640
C          4.58820       -1.00480       -2.61180
C          3.99290       -2.25760       -2.46030
C          3.96260       -3.14760       -3.52740
C          4.54610       -2.77490       -4.74580
C          5.13900       -1.51490       -4.90410
C          5.16040       -0.63200       -3.82920
N          4.54070       -3.68020       -5.83290
C          4.29090       -3.32320       -7.16720
C          4.43890       -4.48660       -7.91260
N          4.78260       -5.53880       -7.07110
C          4.84530       -5.05600       -5.82130
C          5.19960       -5.82960       -4.61680
C          4.49010        0.01780        1.73520
C          4.86120       -1.41740        2.11300
H         -0.58810        1.54860       -1.87410
H         -2.85130        0.93140       -2.68730
H         -3.15240       -1.05940       -4.13750
H         -1.19160       -2.43150       -4.79770
H          1.08450       -1.80960       -4.00700
H          3.54220       -2.53960       -1.50680
H          3.47550       -4.11470       -3.42130
H          5.58530       -1.23170       -5.85630
H          5.61810        0.35600       -3.93390
H          4.02390       -2.32900       -7.45540
H          4.32970       -4.64680       -8.96800
H          4.30580       -6.25940       -4.13460
H          5.74120       -5.23210       -3.86830
H          5.85000       -6.68440       -4.88660
H          4.22950        0.60250        2.64250
H          5.38050        0.53890        1.30250
H          4.01460       -1.95790        2.55020
H          5.67780       -1.43330        2.84520
H          5.20030       -1.98700        1.23830
