
     RDKit          3D

 50 53  0  0  0  0  0  0  0  0999 V2000
    0.2102    0.9123   -0.3240 O   0  0  0  0  0  0  0  0  0  0  0  0
    1.3793    0.6765   -0.1261 C   0  0  0  0  0  0  0  0  0  0  0  0
    2.0819    0.8197    1.0683 N   0  0  0  0  0  0  0  0  0  0  0  0
    1.6249    1.1336    1.9156 H   0  0  0  0  0  0  0  0  0  0  0  0
    3.4227    0.5116    0.9289 C   0  0  0  0  0  0  0  0  0  0  0  0
    3.6187    0.1550   -0.3765 C   0  0  0  0  0  0  0  0  0  0  0  0
    2.3627    0.2289   -1.0388 N   0  0  0  0  0  0  0  0  0  0  0  0
    2.2773    0.4299   -2.4579 C   0  0  0  0  0  0  0  0  0  0  0  0
    3.1847    0.9974   -3.0232 O   0  0  0  0  0  0  0  0  0  0  0  0
    1.1196   -0.1608   -3.1707 C   0  0  0  0  0  0  0  0  0  0  0  0
    0.2556   -1.0973   -2.5831 C   0  0  0  0  0  0  0  0  0  0  0  0
   -0.7380   -1.7052   -3.3495 C   0  0  0  0  0  0  0  0  0  0  0  0
   -0.8784   -1.3815   -4.7025 C   0  0  0  0  0  0  0  0  0  0  0  0
   -0.0218   -0.4452   -5.2930 C   0  0  0  0  0  0  0  0  0  0  0  0
    0.9748    0.1597   -4.5314 C   0  0  0  0  0  0  0  0  0  0  0  0
    4.8531   -0.3906   -0.9601 C   0  0  0  0  0  0  0  0  0  0  0  0
    5.9495   -0.0995   -0.5028 O   0  0  0  0  0  0  0  0  0  0  0  0
    4.7073   -1.3377   -2.1124 C   0  0  0  0  0  0  0  0  0  0  0  0
    3.6805   -2.2915   -2.1477 C   0  0  0  0  0  0  0  0  0  0  0  0
    3.5089   -3.1043   -3.2659 C   0  0  0  0  0  0  0  0  0  0  0  0
    4.3640   -2.9614   -4.3640 C   0  0  0  0  0  0  0  0  0  0  0  0
    5.4214   -2.0427   -4.3164 C   0  0  0  0  0  0  0  0  0  0  0  0
    5.5954   -1.2415   -3.1915 C   0  0  0  0  0  0  0  0  0  0  0  0
    4.1360   -3.7281   -5.5365 N   0  0  0  0  0  0  0  0  0  0  0  0
    4.1284   -5.1129   -5.6247 C   0  0  0  0  0  0  0  0  0  0  0  0
    3.7869   -5.3929   -6.9257 C   0  0  0  0  0  0  0  0  0  0  0  0
    3.5679   -4.2301   -7.6253 N   0  0  0  0  0  0  0  0  0  0  0  0
    3.7795   -3.2419   -6.7830 C   0  0  0  0  0  0  0  0  0  0  0  0
    3.6055   -1.7883   -7.0744 C   0  0  0  0  0  0  0  0  0  0  0  0
    4.3959    0.5887    2.0576 C   0  0  0  0  0  0  0  0  0  0  0  0
    5.1139    1.9460    2.1134 C   0  0  0  0  0  0  0  0  0  0  0  0
    0.3628   -1.3558   -1.5312 H   0  0  0  0  0  0  0  0  0  0  0  0
   -1.4061   -2.4367   -2.8898 H   0  0  0  0  0  0  0  0  0  0  0  0
   -1.6563   -1.8622   -5.3004 H   0  0  0  0  0  0  0  0  0  0  0  0
   -0.1296   -0.1943   -6.3504 H   0  0  0  0  0  0  0  0  0  0  0  0
    1.6670    0.8787   -4.9719 H   0  0  0  0  0  0  0  0  0  0  0  0
    2.9916   -2.3820   -1.3065 H   0  0  0  0  0  0  0  0  0  0  0  0
    2.6905   -3.8243   -3.3141 H   0  0  0  0  0  0  0  0  0  0  0  0
    6.0973   -1.9615   -5.1690 H   0  0  0  0  0  0  0  0  0  0  0  0
    6.4040   -0.5103   -3.1452 H   0  0  0  0  0  0  0  0  0  0  0  0
    4.3901   -5.7370   -4.7746 H   0  0  0  0  0  0  0  0  0  0  0  0
    3.6909   -6.3715   -7.3944 H   0  0  0  0  0  0  0  0  0  0  0  0
    4.5633   -1.2436   -7.0920 H   0  0  0  0  0  0  0  0  0  0  0  0
    2.9639   -1.3003   -6.3231 H   0  0  0  0  0  0  0  0  0  0  0  0
    3.1377   -1.6945   -8.0625 H   0  0  0  0  0  0  0  0  0  0  0  0
    5.1468   -0.2028    1.9217 H   0  0  0  0  0  0  0  0  0  0  0  0
    3.8657    0.3905    3.0046 H   0  0  0  0  0  0  0  0  0  0  0  0
    5.7001    2.0866    1.1945 H   0  0  0  0  0  0  0  0  0  0  0  0
    5.7987    1.9838    2.9743 H   0  0  0  0  0  0  0  0  0  0  0  0
    4.3990    2.7787    2.2063 H   0  0  0  0  0  0  0  0  0  0  0  0
  1  2  2  0
  2  3  1  0
  2  7  1  0
  3  4  1  0
  3  5  1  0
  5  6  2  0
  5 30  1  0
  6  7  1  0
  6 16  1  0
  7  8  1  0
  8  9  2  0
  8 10  1  0
 10 11  2  0
 10 15  1  0
 11 12  1  0
 11 32  1  0
 12 13  2  0
 12 33  1  0
 13 14  1  0
 13 34  1  0
 14 15  2  0
 14 35  1  0
 15 36  1  0
 16 17  2  0
 16 18  1  0
 18 19  2  0
 18 23  1  0
 19 20  1  0
 19 37  1  0
 20 21  2  0
 20 38  1  0
 21 22  1  0
 21 24  1  0
 22 23  2  0
 22 39  1  0
 23 40  1  0
 24 25  1  0
 24 28  1  0
 25 26  2  0
 25 41  1  0
 26 27  1  0
 26 42  1  0
 27 28  2  0
 28 29  1  0
 29 43  1  0
 29 44  1  0
 29 45  1  0
 30 31  1  0
 30 46  1  0
 30 47  1  0
 31 48  1  0
 31 49  1  0
 31 50  1  0
M  END

