rmsd62.gzmat
 OpenBabel08211713413D

 50 53  0  0  0  0  0  0  0  0999 V2000
    0.0000    0.0000    0.0000 O   0  0  0  0  0  0  0  0  0  0  0  0
    1.2030    0.0000    0.0000 C   0  0  0  0  0  0  0  0  0  0  0  0
    2.0377    0.0000    1.1413 N   0  0  0  0  0  0  0  0  0  0  0  0
    1.7064   -0.0193    2.0828 H   0  0  0  0  0  0  0  0  0  0  0  0
    3.3879    0.0300    0.7455 C   0  0  0  0  0  0  0  0  0  0  0  0
    3.4250    0.0258   -0.6292 C   0  0  0  0  0  0  0  0  0  0  0  0
    2.0832    0.0078   -1.1177 N   0  0  0  0  0  0  0  0  0  0  0  0
    1.7462    0.2298   -2.4802 C   0  0  0  0  0  0  0  0  0  0  0  0
    2.6187    0.6141   -3.2170 O   0  0  0  0  0  0  0  0  0  0  0  0
    0.3703   -0.0960   -2.9087 C   0  0  0  0  0  0  0  0  0  0  0  0
   -0.7119    0.7011   -2.5429 C   0  0  0  0  0  0  0  0  0  0  0  0
   -1.9827    0.3873   -3.0234 C   0  0  0  0  0  0  0  0  0  0  0  0
   -2.1610   -0.7143   -3.8580 C   0  0  0  0  0  0  0  0  0  0  0  0
   -1.0720   -1.5082   -4.2191 C   0  0  0  0  0  0  0  0  0  0  0  0
    0.2007   -1.2001   -3.7463 C   0  0  0  0  0  0  0  0  0  0  0  0
    4.6187   -0.0376   -1.4879 C   0  0  0  0  0  0  0  0  0  0  0  0
    5.5880    0.6436   -1.2572 O   0  0  0  0  0  0  0  0  0  0  0  0
    4.5912   -1.0354   -2.5857 C   0  0  0  0  0  0  0  0  0  0  0  0
    4.1882   -2.3457   -2.3243 C   0  0  0  0  0  0  0  0  0  0  0  0
    4.1477   -3.2763   -3.3556 C   0  0  0  0  0  0  0  0  0  0  0  0
    4.5078   -2.8757   -4.6496 C   0  0  0  0  0  0  0  0  0  0  0  0
    4.9196   -1.5640   -4.9140 C   0  0  0  0  0  0  0  0  0  0  0  0
    4.9650   -0.6434   -3.8713 C   0  0  0  0  0  0  0  0  0  0  0  0
    4.4499   -3.8176   -5.7054 N   0  0  0  0  0  0  0  0  0  0  0  0
    5.0298   -5.0935   -5.6721 C   0  0  0  0  0  0  0  0  0  0  0  0
    4.7416   -5.6777   -6.9005 C   0  0  0  0  0  0  0  0  0  0  0  0
    3.9931   -4.7968   -7.6721 N   0  0  0  0  0  0  0  0  0  0  0  0
    3.8182   -3.6761   -6.9547 C   0  0  0  0  0  0  0  0  0  0  0  0
    3.0603   -2.4822   -7.3719 C   0  0  0  0  0  0  0  0  0  0  0  0
    4.5002    0.0304    1.7198 C   0  0  0  0  0  0  0  0  0  0  0  0
    4.8506   -1.3971    2.1431 C   0  0  0  0  0  0  0  0  0  0  0  0
   -0.5734    1.5545   -1.8778 H   0  0  0  0  0  0  0  0  0  0  0  0
   -2.8351    1.0011   -2.7375 H   0  0  0  0  0  0  0  0  0  0  0  0
   -3.1558   -0.9575   -4.2289 H   0  0  0  0  0  0  0  0  0  0  0  0
   -1.2168   -2.3681   -4.8707 H   0  0  0  0  0  0  0  0  0  0  0  0
    1.0562   -1.8145   -4.0270 H   0  0  0  0  0  0  0  0  0  0  0  0
    3.8958   -2.6395   -1.3150 H   0  0  0  0  0  0  0  0  0  0  0  0
    3.8280   -4.2997   -3.1661 H   0  0  0  0  0  0  0  0  0  0  0  0
    5.2092   -1.2694   -5.9215 H   0  0  0  0  0  0  0  0  0  0  0  0
    5.2777    0.3881   -4.0565 H   0  0  0  0  0  0  0  0  0  0  0  0
    5.5822   -5.4532   -4.8318 H   0  0  0  0  0  0  0  0  0  0  0  0
    5.0093   -6.6448   -7.2801 H   0  0  0  0  0  0  0  0  0  0  0  0
    3.7043   -1.7509   -7.8882 H   0  0  0  0  0  0  0  0  0  0  0  0
    2.5762   -1.9664   -6.5287 H   0  0  0  0  0  0  0  0  0  0  0  0
    2.2665   -2.7608   -8.0901 H   0  0  0  0  0  0  0  0  0  0  0  0
    4.2574    0.6503    2.6087 H   0  0  0  0  0  0  0  0  0  0  0  0
    5.3972    0.5212    1.2645 H   0  0  0  0  0  0  0  0  0  0  0  0
    3.9972   -1.9115    2.5986 H   0  0  0  0  0  0  0  0  0  0  0  0
    5.6681   -1.4009    2.8752 H   0  0  0  0  0  0  0  0  0  0  0  0
    5.1824   -2.0000    1.2879 H   0  0  0  0  0  0  0  0  0  0  0  0
  1  2  2  0  0  0  0
  2  3  1  0  0  0  0
  3  4  1  0  0  0  0
  5  3  1  0  0  0  0
  5 30  1  0  0  0  0
  6  5  2  0  0  0  0
  7  6  1  0  0  0  0
  7  2  1  0  0  0  0
  8  7  1  0  0  0  0
  9  8  2  0  0  0  0
 10 11  1  0  0  0  0
 10  8  1  0  0  0  0
 11 32  1  0  0  0  0
 12 33  1  0  0  0  0
 12 11  2  0  0  0  0
 13 12  1  0  0  0  0
 14 13  2  0  0  0  0
 14 15  1  0  0  0  0
 15 10  2  0  0  0  0
 16 17  2  0  0  0  0
 16  6  1  0  0  0  0
 18 19  1  0  0  0  0
 18 16  1  0  0  0  0
 19 37  1  0  0  0  0
 20 38  1  0  0  0  0
 20 19  2  0  0  0  0
 21 20  1  0  0  0  0
 22 21  2  0  0  0  0
 22 23  1  0  0  0  0
 23 18  2  0  0  0  0
 24 25  1  0  0  0  0
 24 21  1  0  0  0  0
 25 41  1  0  0  0  0
 26 25  1  0  0  0  0
 27 28  2  0  0  0  0
 27 26  2  0  0  0  0
 28 24  1  0  0  0  0
 29 28  1  0  0  0  0
 29 44  1  0  0  0  0
 30 31  1  0  0  0  0
 30 46  1  0  0  0  0
 31 48  1  0  0  0  0
 31 49  1  0  0  0  0
 34 13  1  0  0  0  0
 35 14  1  0  0  0  0
 36 15  1  0  0  0  0
 39 22  1  0  0  0  0
 40 23  1  0  0  0  0
 42 26  1  0  0  0  0
 43 29  1  0  0  0  0
 45 29  1  0  0  0  0
 47 30  1  0  0  0  0
 50 31  1  0  0  0  0
M  RAD  1  25   2
M  END
$$$$
