50

O          0.30920        0.65850       -0.17400
C          1.50210        0.51360       -0.02140
N          2.24000        0.71800        1.14220
H          1.79710        1.02120        2.00070
C          3.59510        0.51480        0.94550
C          3.75820        0.15110       -0.36320
N          2.47080        0.13170       -0.96650
C          2.31810        0.29220       -2.39570
O          3.07750        1.03290       -2.97400
C          1.35170       -0.59400       -3.08980
C          0.47690       -1.46450       -2.42130
C         -0.26450       -2.39590       -3.14770
C         -0.12970       -2.47520       -4.53790
C          0.72970       -1.59910       -5.21000
C          1.45790       -0.65590       -4.49020
C          4.98070       -0.34860       -1.02290
O          6.09640       -0.00640       -0.66350
C          4.77910       -1.31080       -2.15750
C          3.82600       -2.33520       -2.08640
C          3.56010       -3.13980       -3.19140
C          4.24800       -2.92240       -4.38950
C          5.24820       -1.93820       -4.45010
C          5.51460       -1.14430       -3.33880
N          3.90580       -3.64580       -5.55760
C          3.72750       -3.07840       -6.81400
C          3.39030       -4.11840       -7.64350
N          3.36890       -5.30090       -6.94340
C          3.67370       -5.00590       -5.69830
C          3.80120       -6.00020       -4.59180
C          4.58780        0.58980        2.05670
C          4.36710       -0.47130        3.14400
H          0.36730       -1.40630       -1.34020
H         -0.94660       -3.07040       -2.62530
H         -0.69520       -3.22200       -5.10030
H          0.84400       -1.66870       -6.29350
H          2.15590        0.01940       -4.98640
H          3.24540       -2.47530       -1.17330
H          2.76440       -3.88180       -3.14650
H          5.80350       -1.79490       -5.37840
H          6.27140       -0.35950       -3.38440
H          3.82870       -2.00890       -6.97240
H          3.16290       -4.07700       -8.70790
H          2.89410       -6.04650       -3.96620
H          4.65120       -5.77470       -3.93040
H          3.94580       -6.99050       -5.04250
H          4.53410        1.59910        2.50320
H          5.58570        0.49560        1.61020
H          3.37070       -0.38740        3.60740
H          5.11620       -0.36570        3.94300
H          4.45660       -1.48510        2.72430
