rmsd29.gzmat
 OpenBabel08211713413D

 50 53  0  0  0  0  0  0  0  0999 V2000
    0.0000    0.0000    0.0000 O   0  0  0  0  0  0  0  0  0  0  0  0
    1.2033    0.0000    0.0000 C   0  0  0  0  0  0  0  0  0  0  0  0
    2.0358    0.0000    1.1420 N   0  0  0  0  0  0  0  0  0  0  0  0
    1.7033   -0.0114    2.0829 H   0  0  0  0  0  0  0  0  0  0  0  0
    3.3872    0.0194    0.7471 C   0  0  0  0  0  0  0  0  0  0  0  0
    3.4253    0.0119   -0.6268 C   0  0  0  0  0  0  0  0  0  0  0  0
    2.0851   -0.0012   -1.1166 N   0  0  0  0  0  0  0  0  0  0  0  0
    1.7578    0.2058   -2.4851 C   0  0  0  0  0  0  0  0  0  0  0  0
    2.6486    0.5351   -3.2255 O   0  0  0  0  0  0  0  0  0  0  0  0
    0.3698   -0.0778   -2.9023 C   0  0  0  0  0  0  0  0  0  0  0  0
   -0.6951    0.7270   -2.5036 C   0  0  0  0  0  0  0  0  0  0  0  0
   -1.9788    0.4349   -2.9628 C   0  0  0  0  0  0  0  0  0  0  0  0
   -2.1868   -0.6507   -3.8115 C   0  0  0  0  0  0  0  0  0  0  0  0
   -1.1145   -1.4496   -4.2095 C   0  0  0  0  0  0  0  0  0  0  0  0
    0.1704   -1.1642   -3.7572 C   0  0  0  0  0  0  0  0  0  0  0  0
    4.6222   -0.0345   -1.4847 C   0  0  0  0  0  0  0  0  0  0  0  0
    5.5467    0.7177   -1.2857 O   0  0  0  0  0  0  0  0  0  0  0  0
    4.6823   -1.0893   -2.5241 C   0  0  0  0  0  0  0  0  0  0  0  0
    4.0285   -2.3093   -2.3469 C   0  0  0  0  0  0  0  0  0  0  0  0
    4.1191   -3.2974   -3.3200 C   0  0  0  0  0  0  0  0  0  0  0  0
    4.8827   -3.0587   -4.4711 C   0  0  0  0  0  0  0  0  0  0  0  0
    5.5266   -1.8278   -4.6617 C   0  0  0  0  0  0  0  0  0  0  0  0
    5.4236   -0.8458   -3.6824 C   0  0  0  0  0  0  0  0  0  0  0  0
    5.0105   -4.0664   -5.4549 N   0  0  0  0  0  0  0  0  0  0  0  0
    5.0252   -3.8292   -6.8390 C   0  0  0  0  0  0  0  0  0  0  0  0
    5.2271   -5.0642   -7.4419 C   0  0  0  0  0  0  0  0  0  0  0  0
    5.3487   -6.0454   -6.4642 N   0  0  0  0  0  0  0  0  0  0  0  0
    5.2206   -5.4485   -5.2702 C   0  0  0  0  0  0  0  0  0  0  0  0
    5.3073   -6.1239   -3.9619 C   0  0  0  0  0  0  0  0  0  0  0  0
    4.5010    0.0046    1.7193 C   0  0  0  0  0  0  0  0  0  0  0  0
    4.8656   -1.4324    2.0965 C   0  0  0  0  0  0  0  0  0  0  0  0
   -0.5349    1.5698   -1.8297 H   0  0  0  0  0  0  0  0  0  0  0  0
   -2.8182    1.0523   -2.6482 H   0  0  0  0  0  0  0  0  0  0  0  0
   -3.1914   -0.8770   -4.1656 H   0  0  0  0  0  0  0  0  0  0  0  0
   -1.2815   -2.2946   -4.8748 H   0  0  0  0  0  0  0  0  0  0  0  0
    1.0148   -1.7801   -4.0693 H   0  0  0  0  0  0  0  0  0  0  0  0
    3.4375   -2.4912   -1.4466 H   0  0  0  0  0  0  0  0  0  0  0  0
    3.5871   -4.2382   -3.1952 H   0  0  0  0  0  0  0  0  0  0  0  0
    6.1112   -1.6443   -5.5621 H   0  0  0  0  0  0  0  0  0  0  0  0
    5.9218    0.1200   -3.8129 H   0  0  0  0  0  0  0  0  0  0  0  0
    4.8797   -2.8567   -7.2577 H   0  0  0  0  0  0  0  0  0  0  0  0
    5.2961   -5.3192   -8.4821 H   0  0  0  0  0  0  0  0  0  0  0  0
    4.3176   -6.4668   -3.6170 H   0  0  0  0  0  0  0  0  0  0  0  0
    5.7448   -5.4874   -3.1784 H   0  0  0  0  0  0  0  0  0  0  0  0
    5.9397   -7.0298   -4.0385 H   0  0  0  0  0  0  0  0  0  0  0  0
    4.2554    0.5936    2.6280 H   0  0  0  0  0  0  0  0  0  0  0  0
    5.3912    0.5177    1.2762 H   0  0  0  0  0  0  0  0  0  0  0  0
    4.0336   -1.9495    2.5875 H   0  0  0  0  0  0  0  0  0  0  0  0
    5.7207   -1.4543    2.7833 H   0  0  0  0  0  0  0  0  0  0  0  0
    5.1472   -2.0211    1.2138 H   0  0  0  0  0  0  0  0  0  0  0  0
  1  2  2  0  0  0  0
  2  3  1  0  0  0  0
  3  4  1  0  0  0  0
  5  3  1  0  0  0  0
  5 30  1  0  0  0  0
  6  5  2  0  0  0  0
  7  6  1  0  0  0  0
  7  2  1  0  0  0  0
  8  7  1  0  0  0  0
  9  8  2  0  0  0  0
 10 11  1  0  0  0  0
 10  8  1  0  0  0  0
 11 32  1  0  0  0  0
 12 33  1  0  0  0  0
 12 11  2  0  0  0  0
 13 12  1  0  0  0  0
 14 13  2  0  0  0  0
 14 15  1  0  0  0  0
 15 10  2  0  0  0  0
 16 17  2  0  0  0  0
 16  6  1  0  0  0  0
 18 19  1  0  0  0  0
 18 16  1  0  0  0  0
 19 37  1  0  0  0  0
 20 38  1  0  0  0  0
 20 19  2  0  0  0  0
 21 20  1  0  0  0  0
 22 21  2  0  0  0  0
 22 23  1  0  0  0  0
 23 18  2  0  0  0  0
 24 28  1  0  0  0  0
 24 21  1  0  0  0  0
 25 24  1  0  0  0  0
 26 25  1  0  0  0  0
 26 27  2  0  0  0  0
 27 28  2  0  0  0  0
 28 29  1  0  0  0  0
 29 43  1  0  0  0  0
 29 44  1  0  0  0  0
 30 31  1  0  0  0  0
 30 46  1  0  0  0  0
 31 48  1  0  0  0  0
 31 49  1  0  0  0  0
 34 13  1  0  0  0  0
 35 14  1  0  0  0  0
 36 15  1  0  0  0  0
 39 22  1  0  0  0  0
 40 23  1  0  0  0  0
 41 25  1  0  0  0  0
 42 26  1  0  0  0  0
 45 29  1  0  0  0  0
 47 30  1  0  0  0  0
 50 31  1  0  0  0  0
M  RAD  1  25   2
M  END
$$$$
