28

O         -0.01930        0.06930        0.28980
C          1.02440        0.60170       -0.00990
O          1.43950        1.75210        0.54770
C          2.00230        0.10250       -1.05190
C          2.14480        1.06010       -2.24650
C          0.85760        1.19470       -3.07540
N         -0.29500        1.64500       -2.31790
C         -0.43770        2.89980       -1.78560
C         -1.39310        3.11170       -0.75860
C         -1.57340        4.36680       -0.20130
C         -0.79720        5.43950       -0.65560
N         -0.97880        6.76180       -0.06390
O         -0.28480        7.67690       -0.48720
O         -1.81430        6.87920        0.82310
C          0.15220        5.25890       -1.66420
C          0.33510        4.00170       -2.22340
H          0.72830        2.06740        1.13240
H          1.66010       -0.89120       -1.37480
H          2.98380       -0.01240       -0.56450
H          2.95020        0.69720       -2.90570
H          2.45710        2.04930       -1.87700
H          0.59520        0.21800       -3.51140
H          1.03220        1.87210       -3.92690
H         -0.83060        0.91880       -1.85770
H         -1.98350        2.26450       -0.40190
H         -2.30390        4.54010        0.58820
H          0.73900        6.11570       -1.99370
H          1.08120        3.87320       -3.00700
