28
rmsd125.gzmat
O          0.00000        0.00000        0.00000
C          1.20620        0.00000        0.00000
O          1.88990        0.00000        1.16760
C          2.15150        0.03400       -1.16060
C          1.99700       -1.19660       -2.05790
C          0.74930       -1.13670       -2.96490
N         -0.47180       -1.58020       -2.28750
C         -0.71390       -2.92080       -2.05850
C         -0.01700       -3.95130       -2.73030
C         -0.36900       -5.27320       -2.52510
C         -1.40780       -5.59100       -1.64110
N         -1.76240       -6.97000       -1.42440
O         -2.67580       -7.22400       -0.65190
O         -1.13540       -7.83400       -2.02190
C         -2.10650       -4.57930       -0.96170
C         -1.76360       -3.25890       -1.16320
H          1.31120       -0.01980        1.97360
H          3.20410        0.10360       -0.79550
H          1.97920        0.96970       -1.73840
H          1.97650       -2.12370       -1.44810
H          2.90090       -1.29330       -2.69450
H          0.91310       -1.74430       -3.88460
H          0.57450       -0.09390       -3.32150
H         -0.80410       -0.91830       -1.58110
H          0.79190       -3.71270       -3.41290
H          0.16370       -6.07610       -3.04820
H         -2.91670       -4.84740       -0.27270
H         -2.29820       -2.46820       -0.64060
