rmsd10.gzmat
 OpenBabel08211713403D

 28 28  0  0  0  0  0  0  0  0999 V2000
    0.0000    0.0000    0.0000 O   0  0  0  0  0  0  0  0  0  0  0  0
    1.2062    0.0000    0.0000 C   0  0  0  0  0  0  0  0  0  0  0  0
    1.8883    0.0000    1.1687 O   0  0  0  0  0  0  0  0  0  0  0  0
    2.1550   -0.0331   -1.1576 C   0  0  0  0  0  0  0  0  0  0  0  0
    1.9594    1.1652   -2.0897 C   0  0  0  0  0  0  0  0  0  0  0  0
    0.7174    1.0349   -2.9966 C   0  0  0  0  0  0  0  0  0  0  0  0
   -0.5131    1.4916   -2.3464 N   0  0  0  0  0  0  0  0  0  0  0  0
   -0.8130    2.8342   -2.2378 C   0  0  0  0  0  0  0  0  0  0  0  0
   -0.1567    3.8305   -2.9972 C   0  0  0  0  0  0  0  0  0  0  0  0
   -0.5707    5.1477   -2.9175 C   0  0  0  0  0  0  0  0  0  0  0  0
   -1.6364    5.4958   -2.0779 C   0  0  0  0  0  0  0  0  0  0  0  0
   -2.0622    6.8691   -1.9973 N   0  0  0  0  0  0  0  0  0  0  0  0
   -3.0179    7.1434   -1.2855 O   0  0  0  0  0  0  0  0  0  0  0  0
   -1.4503    7.7083   -2.6438 O   0  0  0  0  0  0  0  0  0  0  0  0
   -2.2934    4.5197   -1.3107 C   0  0  0  0  0  0  0  0  0  0  0  0
   -1.8836    3.2051   -1.3801 C   0  0  0  0  0  0  0  0  0  0  0  0
    1.3084    0.0215    1.9738 H   0  0  0  0  0  0  0  0  0  0  0  0
    2.0200   -0.9908   -1.7079 H   0  0  0  0  0  0  0  0  0  0  0  0
    3.2080   -0.0541   -0.7882 H   0  0  0  0  0  0  0  0  0  0  0  0
    2.8611    1.2763   -2.7271 H   0  0  0  0  0  0  0  0  0  0  0  0
    1.9044    2.1066   -1.5051 H   0  0  0  0  0  0  0  0  0  0  0  0
    0.5614   -0.0281   -3.2982 H   0  0  0  0  0  0  0  0  0  0  0  0
    0.8750    1.5941   -3.9473 H   0  0  0  0  0  0  0  0  0  0  0  0
   -0.8239    0.8753   -1.5917 H   0  0  0  0  0  0  0  0  0  0  0  0
    0.6697    3.5680   -3.6491 H   0  0  0  0  0  0  0  0  0  0  0  0
   -0.0671    5.9238   -3.5057 H   0  0  0  0  0  0  0  0  0  0  0  0
   -3.1262    4.8125   -0.6599 H   0  0  0  0  0  0  0  0  0  0  0  0
   -2.3821    2.4434   -0.7837 H   0  0  0  0  0  0  0  0  0  0  0  0
  2  1  2  0  0  0  0
  2  3  1  0  0  0  0
  3 17  1  0  0  0  0
  4 19  1  0  0  0  0
  4  2  1  0  0  0  0
  5 21  1  0  0  0  0
  5  4  1  0  0  0  0
  6  7  1  0  0  0  0
  6  5  1  0  0  0  0
  7  8  1  0  0  0  0
  7 24  1  0  0  0  0
  8 16  2  0  0  0  0
  9 10  2  0  0  0  0
  9  8  1  0  0  0  0
 10 11  1  0  0  0  0
 11 12  1  0  0  0  0
 11 15  2  0  0  0  0
 12 13  2  0  0  0  0
 14 12  2  0  0  0  0
 15 27  1  0  0  0  0
 16 15  1  0  0  0  0
 16 28  1  0  0  0  0
 18  4  1  0  0  0  0
 20  5  1  0  0  0  0
 22  6  1  0  0  0  0
 23  6  1  0  0  0  0
 25  9  1  0  0  0  0
 26 10  1  0  0  0  0
M  END
$$$$
