rmsd33.gzmat
 OpenBabel08211713403D

 28 28  0  0  0  0  0  0  0  0999 V2000
    0.0000    0.0000    0.0000 O   0  0  0  0  0  0  0  0  0  0  0  0
    1.2064    0.0000    0.0000 C   0  0  0  0  0  0  0  0  0  0  0  0
    1.8948    0.0000    1.1635 O   0  0  0  0  0  0  0  0  0  0  0  0
    2.1411   -0.0208   -1.1699 C   0  0  0  0  0  0  0  0  0  0  0  0
    2.2477    1.3617   -1.8194 C   0  0  0  0  0  0  0  0  0  0  0  0
    1.0258    1.7226   -2.6901 C   0  0  0  0  0  0  0  0  0  0  0  0
   -0.1468    2.1092   -1.9003 N   0  0  0  0  0  0  0  0  0  0  0  0
   -0.1755    3.3133   -1.2199 C   0  0  0  0  0  0  0  0  0  0  0  0
   -1.1397    3.4684   -0.1896 C   0  0  0  0  0  0  0  0  0  0  0  0
   -1.2698    4.6757    0.4642 C   0  0  0  0  0  0  0  0  0  0  0  0
   -0.4393    5.7509    0.1093 C   0  0  0  0  0  0  0  0  0  0  0  0
   -0.5704    7.0085    0.8001 N   0  0  0  0  0  0  0  0  0  0  0  0
    0.1479    7.9380    0.4598 O   0  0  0  0  0  0  0  0  0  0  0  0
   -1.3918    7.0964    1.7012 O   0  0  0  0  0  0  0  0  0  0  0  0
    0.5180    5.6123   -0.9035 C   0  0  0  0  0  0  0  0  0  0  0  0
    0.6590    4.4021   -1.5595 C   0  0  0  0  0  0  0  0  0  0  0  0
    1.3183    0.0222    1.9710 H   0  0  0  0  0  0  0  0  0  0  0  0
    1.7913   -0.7789   -1.9042 H   0  0  0  0  0  0  0  0  0  0  0  0
    3.1521   -0.3607   -0.8439 H   0  0  0  0  0  0  0  0  0  0  0  0
    3.1611    1.3960   -2.4486 H   0  0  0  0  0  0  0  0  0  0  0  0
    2.4037    2.1421   -1.0454 H   0  0  0  0  0  0  0  0  0  0  0  0
    0.7319    0.8572   -3.3295 H   0  0  0  0  0  0  0  0  0  0  0  0
    1.2901    2.5436   -3.3962 H   0  0  0  0  0  0  0  0  0  0  0  0
   -0.6151    1.3172   -1.4534 H   0  0  0  0  0  0  0  0  0  0  0  0
   -1.7739    2.6266    0.0829 H   0  0  0  0  0  0  0  0  0  0  0  0
   -2.0113    4.8023    1.2622 H   0  0  0  0  0  0  0  0  0  0  0  0
    1.1545    6.4642   -1.1694 H   0  0  0  0  0  0  0  0  0  0  0  0
    1.4062    4.2997   -2.3398 H   0  0  0  0  0  0  0  0  0  0  0  0
  1  2  2  0  0  0  0
  2  3  1  0  0  0  0
  3 17  1  0  0  0  0
  4 19  1  0  0  0  0
  4  2  1  0  0  0  0
  5  4  1  0  0  0  0
  5 21  1  0  0  0  0
  6  7  1  0  0  0  0
  6  5  1  0  0  0  0
  7 24  1  0  0  0  0
  7  8  1  0  0  0  0
  8  9  1  0  0  0  0
  9 25  1  0  0  0  0
  9 10  2  0  0  0  0
 10 26  1  0  0  0  0
 11 10  1  0  0  0  0
 11 12  1  0  0  0  0
 12 14  2  0  0  0  0
 13 12  2  0  0  0  0
 15 11  2  0  0  0  0
 16  8  2  0  0  0  0
 16 15  1  0  0  0  0
 18  4  1  0  0  0  0
 20  5  1  0  0  0  0
 22  6  1  0  0  0  0
 23  6  1  0  0  0  0
 27 15  1  0  0  0  0
 28 16  1  0  0  0  0
M  END
$$$$
