rmsd98.gzmat
 OpenBabel08211713403D

 28 28  0  0  0  0  0  0  0  0999 V2000
    0.0000    0.0000    0.0000 O   0  0  0  0  0  0  0  0  0  0  0  0
    1.2061    0.0000    0.0000 C   0  0  0  0  0  0  0  0  0  0  0  0
    1.8972    0.0000    1.1616 O   0  0  0  0  0  0  0  0  0  0  0  0
    2.1388    0.0184   -1.1720 C   0  0  0  0  0  0  0  0  0  0  0  0
    2.2599   -1.3723   -1.8013 C   0  0  0  0  0  0  0  0  0  0  0  0
    1.0688   -1.7301   -2.7149 C   0  0  0  0  0  0  0  0  0  0  0  0
   -0.1509   -2.0511   -1.9689 N   0  0  0  0  0  0  0  0  0  0  0  0
   -0.2584   -3.2402   -1.2686 C   0  0  0  0  0  0  0  0  0  0  0  0
    0.5422   -4.3689   -1.5539 C   0  0  0  0  0  0  0  0  0  0  0  0
    0.3280   -5.5574   -0.8784 C   0  0  0  0  0  0  0  0  0  0  0  0
   -0.6766   -5.6367    0.0940 C   0  0  0  0  0  0  0  0  0  0  0  0
   -0.8885   -6.8741    0.8010 N   0  0  0  0  0  0  0  0  0  0  0  0
   -1.7522   -6.9119    1.6658 O   0  0  0  0  0  0  0  0  0  0  0  0
   -0.1952   -7.8381    0.5082 O   0  0  0  0  0  0  0  0  0  0  0  0
   -1.4793   -4.5230    0.3902 C   0  0  0  0  0  0  0  0  0  0  0  0
   -1.2717   -3.3352   -0.2792 C   0  0  0  0  0  0  0  0  0  0  0  0
    1.3241   -0.0245    1.9717 H   0  0  0  0  0  0  0  0  0  0  0  0
    3.1450    0.3770   -0.8523 H   0  0  0  0  0  0  0  0  0  0  0  0
    1.7774    0.7606   -1.9169 H   0  0  0  0  0  0  0  0  0  0  0  0
    2.3790   -2.1463   -1.0142 H   0  0  0  0  0  0  0  0  0  0  0  0
    3.1960   -1.4211   -2.3948 H   0  0  0  0  0  0  0  0  0  0  0  0
    1.3407   -2.5838   -3.3781 H   0  0  0  0  0  0  0  0  0  0  0  0
    0.8318   -0.8820   -3.3998 H   0  0  0  0  0  0  0  0  0  0  0  0
   -0.5973   -1.2326   -1.5473 H   0  0  0  0  0  0  0  0  0  0  0  0
    1.3182   -4.3148   -2.3102 H   0  0  0  0  0  0  0  0  0  0  0  0
    0.9431   -6.4380   -1.0976 H   0  0  0  0  0  0  0  0  0  0  0  0
   -2.2612   -4.6039    1.1551 H   0  0  0  0  0  0  0  0  0  0  0  0
   -1.8820   -2.4628   -0.0508 H   0  0  0  0  0  0  0  0  0  0  0  0
  1  2  2  0  0  0  0
  2  3  1  0  0  0  0
  3 17  1  0  0  0  0
  4 18  1  0  0  0  0
  4  2  1  0  0  0  0
  5  4  1  0  0  0  0
  5 20  1  0  0  0  0
  6  7  1  0  0  0  0
  6  5  1  0  0  0  0
  7 24  1  0  0  0  0
  7  8  1  0  0  0  0
  8 16  1  0  0  0  0
  9  8  2  0  0  0  0
  9 10  1  0  0  0  0
 10 11  2  0  0  0  0
 11 15  1  0  0  0  0
 11 12  1  0  0  0  0
 12 13  2  0  0  0  0
 14 12  2  0  0  0  0
 15 27  1  0  0  0  0
 16 28  1  0  0  0  0
 16 15  2  0  0  0  0
 19  4  1  0  0  0  0
 21  5  1  0  0  0  0
 22  6  1  0  0  0  0
 23  6  1  0  0  0  0
 25  9  1  0  0  0  0
 26 10  1  0  0  0  0
M  END
$$$$
