28
rmsd144.gzmat
O          0.00000        0.00000        0.00000
C          1.20620        0.00000        0.00000
O          1.89260        0.00000        1.16580
C          2.14880        0.03020       -1.16310
C          2.05840       -1.25160       -1.99480
C          0.82120       -1.29260       -2.91610
N         -0.39650       -1.71370       -2.21850
C         -0.59600       -3.03600       -1.87120
C          0.14640       -4.09620       -2.43970
C         -0.17120       -5.40660       -2.13100
C         -1.21820       -5.68100       -1.24240
N         -1.53870       -7.04800       -0.92140
O         -2.45930       -7.26600       -0.14710
O         -0.87560       -7.93790       -1.43600
C         -1.95790       -4.63860       -0.66020
C         -1.64940       -3.32950       -0.96480
H          1.31640       -0.02100        1.97330
H          3.19560        0.17140       -0.80360
H          1.92650        0.92450       -1.78620
H          2.06870       -2.14350       -1.33380
H          2.97360       -1.34390       -2.61510
H          1.01090       -1.96520       -3.78430
H          0.62460       -0.28590       -3.35540
H         -0.76300       -1.00420       -1.57920
H          0.96050       -3.89020       -3.12640
H          0.39290       -6.23390       -2.57740
H         -2.77400       -4.87380        0.03390
H         -2.21510       -2.51470       -0.51730
