rmsd88.gzmat
 OpenBabel08211713403D

 28 28  0  0  0  0  0  0  0  0999 V2000
    0.0000    0.0000    0.0000 O   0  0  0  0  0  0  0  0  0  0  0  0
    1.2064    0.0000    0.0000 C   0  0  0  0  0  0  0  0  0  0  0  0
    1.8919    0.0000    1.1661 O   0  0  0  0  0  0  0  0  0  0  0  0
    2.1483    0.0295   -1.1637 C   0  0  0  0  0  0  0  0  0  0  0  0
    2.0762   -1.2631   -1.9810 C   0  0  0  0  0  0  0  0  0  0  0  0
    0.8262   -1.3469   -2.8822 C   0  0  0  0  0  0  0  0  0  0  0  0
   -0.3713   -1.7915   -2.1644 N   0  0  0  0  0  0  0  0  0  0  0  0
   -0.5270   -3.1120   -1.7884 C   0  0  0  0  0  0  0  0  0  0  0  0
   -1.5586   -3.4186   -0.8615 C   0  0  0  0  0  0  0  0  0  0  0  0
   -1.8076   -4.7279   -0.5078 C   0  0  0  0  0  0  0  0  0  0  0  0
   -1.0312   -5.7586   -1.0626 C   0  0  0  0  0  0  0  0  0  0  0  0
   -1.2838   -7.1244   -0.6812 N   0  0  0  0  0  0  0  0  0  0  0  0
   -0.5961   -8.0053   -1.1789 O   0  0  0  0  0  0  0  0  0  0  0  0
   -2.1741   -7.3505    0.1258 O   0  0  0  0  0  0  0  0  0  0  0  0
   -0.0137   -5.4720   -1.9812 C   0  0  0  0  0  0  0  0  0  0  0  0
    0.2420   -4.1611   -2.3417 C   0  0  0  0  0  0  0  0  0  0  0  0
    1.3156   -0.0283    1.9741 H   0  0  0  0  0  0  0  0  0  0  0  0
    3.1935    0.1887   -0.8070 H   0  0  0  0  0  0  0  0  0  0  0  0
    1.9143    0.9132   -1.7975 H   0  0  0  0  0  0  0  0  0  0  0  0
    2.1211   -2.1488   -1.3134 H   0  0  0  0  0  0  0  0  0  0  0  0
    2.9838   -1.3372   -2.6157 H   0  0  0  0  0  0  0  0  0  0  0  0
    1.0205   -2.0253   -3.7448 H   0  0  0  0  0  0  0  0  0  0  0  0
    0.5982   -0.3500   -3.3287 H   0  0  0  0  0  0  0  0  0  0  0  0
   -0.7538   -1.0807   -1.5366 H   0  0  0  0  0  0  0  0  0  0  0  0
   -2.1544   -2.6134   -0.4359 H   0  0  0  0  0  0  0  0  0  0  0  0
   -2.6043   -4.9727    0.2052 H   0  0  0  0  0  0  0  0  0  0  0  0
    0.5796   -6.2896   -2.4072 H   0  0  0  0  0  0  0  0  0  0  0  0
    1.0303   -3.9472   -3.0557 H   0  0  0  0  0  0  0  0  0  0  0  0
  1  2  2  0  0  0  0
  2  3  1  0  0  0  0
  3 17  1  0  0  0  0
  4 18  1  0  0  0  0
  4  2  1  0  0  0  0
  5 20  1  0  0  0  0
  5  4  1  0  0  0  0
  6  7  1  0  0  0  0
  6  5  1  0  0  0  0
  7  8  1  0  0  0  0
  7 24  1  0  0  0  0
  8  9  2  0  0  0  0
  9 10  1  0  0  0  0
  9 25  1  0  0  0  0
 10 26  1  0  0  0  0
 11 12  1  0  0  0  0
 11 10  2  0  0  0  0
 12 14  2  0  0  0  0
 13 12  2  0  0  0  0
 15 11  1  0  0  0  0
 16 15  2  0  0  0  0
 16  8  1  0  0  0  0
 19  4  1  0  0  0  0
 21  5  1  0  0  0  0
 22  6  1  0  0  0  0
 23  6  1  0  0  0  0
 27 15  1  0  0  0  0
 28 16  1  0  0  0  0
M  END
$$$$
