
     RDKit          3D

 28 28  0  0  0  0  0  0  0  0999 V2000
   -0.1002    0.1833    0.2307 O   0  0  0  0  0  0  0  0  0  0  0  0
    0.8876    0.7805   -0.1300 C   0  0  0  0  0  0  0  0  0  0  0  0
    1.1384    2.0521    0.2263 O   0  0  0  0  0  0  0  0  0  0  0  0
    1.9662    0.2335   -1.0403 C   0  0  0  0  0  0  0  0  0  0  0  0
    2.0558    0.9822   -2.3803 C   0  0  0  0  0  0  0  0  0  0  0  0
    0.8037    0.8145   -3.2557 C   0  0  0  0  0  0  0  0  0  0  0  0
   -0.4289    1.2430   -2.6216 N   0  0  0  0  0  0  0  0  0  0  0  0
   -0.7425    2.5433   -2.3231 C   0  0  0  0  0  0  0  0  0  0  0  0
   -0.0825    3.6402   -2.9263 C   0  0  0  0  0  0  0  0  0  0  0  0
   -0.4378    4.9426   -2.6032 C   0  0  0  0  0  0  0  0  0  0  0  0
   -1.4505    5.1754   -1.6695 C   0  0  0  0  0  0  0  0  0  0  0  0
   -1.8138    6.5470   -1.3262 N   0  0  0  0  0  0  0  0  0  0  0  0
   -2.7001    6.7114   -0.4978 O   0  0  0  0  0  0  0  0  0  0  0  0
   -1.2112    7.4543   -1.8848 O   0  0  0  0  0  0  0  0  0  0  0  0
   -2.1178    4.1094   -1.0550 C   0  0  0  0  0  0  0  0  0  0  0  0
   -1.7654    2.8091   -1.3767 C   0  0  0  0  0  0  0  0  0  0  0  0
    0.3679    2.3733    0.7266 H   0  0  0  0  0  0  0  0  0  0  0  0
    1.7572   -0.8352   -1.1926 H   0  0  0  0  0  0  0  0  0  0  0  0
    2.9293    0.3244   -0.5129 H   0  0  0  0  0  0  0  0  0  0  0  0
    2.9288    0.6125   -2.9424 H   0  0  0  0  0  0  0  0  0  0  0  0
    2.2339    2.0506   -2.1821 H   0  0  0  0  0  0  0  0  0  0  0  0
    0.6778   -0.2470   -3.5207 H   0  0  0  0  0  0  0  0  0  0  0  0
    0.9402    1.3527   -4.2077 H   0  0  0  0  0  0  0  0  0  0  0  0
   -0.8991    0.5461   -2.0566 H   0  0  0  0  0  0  0  0  0  0  0  0
    0.7112    3.4720   -3.6536 H   0  0  0  0  0  0  0  0  0  0  0  0
    0.0608    5.7957   -3.0620 H   0  0  0  0  0  0  0  0  0  0  0  0
   -2.9015    4.3244   -0.3293 H   0  0  0  0  0  0  0  0  0  0  0  0
   -2.2699    1.9695   -0.8927 H   0  0  0  0  0  0  0  0  0  0  0  0
  1  2  2  0
  2  3  1  0
  2  4  1  0
  3 17  1  0
  4  5  1  0
  4 18  1  0
  4 19  1  0
  5  6  1  0
  5 20  1  0
  5 21  1  0
  6  7  1  0
  6 22  1  0
  6 23  1  0
  7  8  1  0
  7 24  1  0
  8  9  2  0
  8 16  1  0
  9 10  1  0
  9 25  1  0
 10 11  2  0
 10 26  1  0
 11 12  1  0
 11 15  1  0
 12 13  1  0
 12 14  2  0
 15 16  2  0
 15 27  1  0
 16 28  1  0
M  CHG  2  12   1  13  -1
M  END

