28

O         -0.09890       -0.09720        0.23300
C          0.95050       -0.63990       -0.02510
O          1.32790       -1.79870        0.54190
C          1.97820       -0.14560       -1.02050
C          2.16210       -1.09730       -2.21420
C          0.91030       -1.21360       -3.09840
N         -0.27850       -1.65560       -2.39380
C         -0.45760       -2.91180       -1.87600
C         -1.45860       -3.11900       -0.89240
C         -1.67630       -4.37520       -0.35120
C         -0.89290       -5.45380       -0.77820
N         -1.11420       -6.77730       -0.20330
O         -0.41240       -7.69760       -0.60180
O         -1.98860       -6.89060        0.64610
C          0.10110       -5.27790       -1.74380
C          0.32150       -4.01960       -2.28680
H          0.58840       -2.10930        1.09320
H          2.93880       -0.04460       -0.49030
H          1.66130        0.85390       -1.35140
H          2.44860       -2.09190       -1.83830
H          2.99850       -0.73860       -2.83590
H          1.11430       -1.88830       -3.94550
H          0.67710       -0.23180       -3.53960
H         -0.82600       -0.92620       -1.95300
H         -2.05470       -2.26730       -0.55620
H         -2.44210       -4.54500        0.40500
H          0.69230       -6.13920       -2.05300
H          1.10200       -3.89480       -3.03670
