rmsd144.gzmat
 OpenBabel08211713403D

 28 28  0  0  0  0  0  0  0  0999 V2000
    0.0000    0.0000    0.0000 O   0  0  0  0  0  0  0  0  0  0  0  0
    1.2062    0.0000    0.0000 C   0  0  0  0  0  0  0  0  0  0  0  0
    1.8926    0.0000    1.1658 O   0  0  0  0  0  0  0  0  0  0  0  0
    2.1488    0.0302   -1.1631 C   0  0  0  0  0  0  0  0  0  0  0  0
    2.0584   -1.2516   -1.9948 C   0  0  0  0  0  0  0  0  0  0  0  0
    0.8212   -1.2926   -2.9161 C   0  0  0  0  0  0  0  0  0  0  0  0
   -0.3965   -1.7137   -2.2185 N   0  0  0  0  0  0  0  0  0  0  0  0
   -0.5960   -3.0360   -1.8712 C   0  0  0  0  0  0  0  0  0  0  0  0
    0.1464   -4.0962   -2.4397 C   0  0  0  0  0  0  0  0  0  0  0  0
   -0.1712   -5.4066   -2.1310 C   0  0  0  0  0  0  0  0  0  0  0  0
   -1.2182   -5.6810   -1.2424 C   0  0  0  0  0  0  0  0  0  0  0  0
   -1.5387   -7.0480   -0.9214 N   0  0  0  0  0  0  0  0  0  0  0  0
   -2.4593   -7.2660   -0.1471 O   0  0  0  0  0  0  0  0  0  0  0  0
   -0.8756   -7.9379   -1.4360 O   0  0  0  0  0  0  0  0  0  0  0  0
   -1.9579   -4.6386   -0.6602 C   0  0  0  0  0  0  0  0  0  0  0  0
   -1.6494   -3.3295   -0.9648 C   0  0  0  0  0  0  0  0  0  0  0  0
    1.3164   -0.0210    1.9733 H   0  0  0  0  0  0  0  0  0  0  0  0
    3.1956    0.1714   -0.8036 H   0  0  0  0  0  0  0  0  0  0  0  0
    1.9265    0.9245   -1.7862 H   0  0  0  0  0  0  0  0  0  0  0  0
    2.0687   -2.1435   -1.3338 H   0  0  0  0  0  0  0  0  0  0  0  0
    2.9736   -1.3439   -2.6151 H   0  0  0  0  0  0  0  0  0  0  0  0
    1.0109   -1.9652   -3.7843 H   0  0  0  0  0  0  0  0  0  0  0  0
    0.6246   -0.2859   -3.3554 H   0  0  0  0  0  0  0  0  0  0  0  0
   -0.7630   -1.0042   -1.5792 H   0  0  0  0  0  0  0  0  0  0  0  0
    0.9605   -3.8902   -3.1264 H   0  0  0  0  0  0  0  0  0  0  0  0
    0.3929   -6.2339   -2.5774 H   0  0  0  0  0  0  0  0  0  0  0  0
   -2.7740   -4.8738    0.0339 H   0  0  0  0  0  0  0  0  0  0  0  0
   -2.2151   -2.5147   -0.5173 H   0  0  0  0  0  0  0  0  0  0  0  0
  2  1  2  0  0  0  0
  2  3  1  0  0  0  0
  3 17  1  0  0  0  0
  4 18  1  0  0  0  0
  4  2  1  0  0  0  0
  5 20  1  0  0  0  0
  5  4  1  0  0  0  0
  6  7  1  0  0  0  0
  6  5  1  0  0  0  0
  7  8  1  0  0  0  0
  7 24  1  0  0  0  0
  8 16  2  0  0  0  0
  9 10  2  0  0  0  0
  9  8  1  0  0  0  0
 10 11  1  0  0  0  0
 11 12  1  0  0  0  0
 11 15  2  0  0  0  0
 12 13  2  0  0  0  0
 14 12  2  0  0  0  0
 15 27  1  0  0  0  0
 16 15  1  0  0  0  0
 16 28  1  0  0  0  0
 19  4  1  0  0  0  0
 21  5  1  0  0  0  0
 22  6  1  0  0  0  0
 23  6  1  0  0  0  0
 25  9  1  0  0  0  0
 26 10  1  0  0  0  0
M  END
$$$$
