rmsd125.gzmat
 OpenBabel08211713403D

 28 28  0  0  0  0  0  0  0  0999 V2000
    0.0000    0.0000    0.0000 O   0  0  0  0  0  0  0  0  0  0  0  0
    1.2062    0.0000    0.0000 C   0  0  0  0  0  0  0  0  0  0  0  0
    1.8899    0.0000    1.1676 O   0  0  0  0  0  0  0  0  0  0  0  0
    2.1515    0.0340   -1.1606 C   0  0  0  0  0  0  0  0  0  0  0  0
    1.9970   -1.1966   -2.0579 C   0  0  0  0  0  0  0  0  0  0  0  0
    0.7493   -1.1367   -2.9649 C   0  0  0  0  0  0  0  0  0  0  0  0
   -0.4718   -1.5802   -2.2875 N   0  0  0  0  0  0  0  0  0  0  0  0
   -0.7139   -2.9208   -2.0585 C   0  0  0  0  0  0  0  0  0  0  0  0
   -0.0170   -3.9513   -2.7303 C   0  0  0  0  0  0  0  0  0  0  0  0
   -0.3690   -5.2732   -2.5251 C   0  0  0  0  0  0  0  0  0  0  0  0
   -1.4078   -5.5910   -1.6411 C   0  0  0  0  0  0  0  0  0  0  0  0
   -1.7624   -6.9700   -1.4244 N   0  0  0  0  0  0  0  0  0  0  0  0
   -2.6758   -7.2240   -0.6519 O   0  0  0  0  0  0  0  0  0  0  0  0
   -1.1354   -7.8340   -2.0219 O   0  0  0  0  0  0  0  0  0  0  0  0
   -2.1065   -4.5793   -0.9617 C   0  0  0  0  0  0  0  0  0  0  0  0
   -1.7636   -3.2589   -1.1632 C   0  0  0  0  0  0  0  0  0  0  0  0
    1.3112   -0.0198    1.9736 H   0  0  0  0  0  0  0  0  0  0  0  0
    3.2041    0.1036   -0.7955 H   0  0  0  0  0  0  0  0  0  0  0  0
    1.9792    0.9697   -1.7384 H   0  0  0  0  0  0  0  0  0  0  0  0
    1.9765   -2.1237   -1.4481 H   0  0  0  0  0  0  0  0  0  0  0  0
    2.9009   -1.2933   -2.6945 H   0  0  0  0  0  0  0  0  0  0  0  0
    0.9131   -1.7443   -3.8846 H   0  0  0  0  0  0  0  0  0  0  0  0
    0.5745   -0.0939   -3.3215 H   0  0  0  0  0  0  0  0  0  0  0  0
   -0.8041   -0.9183   -1.5811 H   0  0  0  0  0  0  0  0  0  0  0  0
    0.7919   -3.7127   -3.4129 H   0  0  0  0  0  0  0  0  0  0  0  0
    0.1637   -6.0761   -3.0482 H   0  0  0  0  0  0  0  0  0  0  0  0
   -2.9167   -4.8474   -0.2727 H   0  0  0  0  0  0  0  0  0  0  0  0
   -2.2982   -2.4682   -0.6406 H   0  0  0  0  0  0  0  0  0  0  0  0
  2  1  2  0  0  0  0
  2  3  1  0  0  0  0
  3 17  1  0  0  0  0
  4 18  1  0  0  0  0
  4  2  1  0  0  0  0
  5 20  1  0  0  0  0
  5  4  1  0  0  0  0
  6  7  1  0  0  0  0
  6  5  1  0  0  0  0
  7  8  1  0  0  0  0
  7 24  1  0  0  0  0
  8 16  2  0  0  0  0
  9 10  2  0  0  0  0
  9  8  1  0  0  0  0
 10 11  1  0  0  0  0
 11 12  1  0  0  0  0
 11 15  2  0  0  0  0
 12 13  2  0  0  0  0
 14 12  2  0  0  0  0
 15 27  1  0  0  0  0
 16 15  1  0  0  0  0
 16 28  1  0  0  0  0
 19  4  1  0  0  0  0
 21  5  1  0  0  0  0
 22  6  1  0  0  0  0
 23  6  1  0  0  0  0
 25  9  1  0  0  0  0
 26 10  1  0  0  0  0
M  END
$$$$
