rmsd166.gzmat
 OpenBabel08211713403D

 59 61  0  0  0  0  0  0  0  0999 V2000
    0.0000    0.0000    0.0000 N   0  0  0  0  0  0  0  0  0  0  0  0
    1.3629    0.0000    0.0000 C   0  0  0  0  0  0  0  0  0  0  0  0
    2.1433    0.0000    1.1381 N   0  0  0  0  0  0  0  0  0  0  0  0
    1.4706    0.0175    2.3225 C   0  0  0  0  0  0  0  0  0  0  0  0
    0.0964    0.0215    2.4314 N   0  0  0  0  0  0  0  0  0  0  0  0
   -0.5841    0.0064    1.2459 C   0  0  0  0  0  0  0  0  0  0  0  0
   -1.9468    0.0112    1.2943 N   0  0  0  0  0  0  0  0  0  0  0  0
    2.1236    0.0172    3.5312 N   0  0  0  0  0  0  0  0  0  0  0  0
    3.5215    0.1279    3.7300 C   0  0  0  0  0  0  0  0  0  0  0  0
    4.4702   -0.2854    2.7922 C   0  0  0  0  0  0  0  0  0  0  0  0
    5.8261   -0.1551    3.0817 C   0  0  0  0  0  0  0  0  0  0  0  0
    6.2589    0.3684    4.2994 C   0  0  0  0  0  0  0  0  0  0  0  0
    5.2964    0.7518    5.2423 C   0  0  0  0  0  0  0  0  0  0  0  0
    3.9404    0.6421    4.9703 C   0  0  0  0  0  0  0  0  0  0  0  0
    7.7264    0.5262    4.6405 C   0  0  0  0  0  0  0  0  0  0  0  0
    7.9959    1.9881    5.0449 C   0  0  0  0  0  0  0  0  0  0  0  0
    8.0585   -0.4171    5.8118 C   0  0  0  0  0  0  0  0  0  0  0  0
    8.6514    0.1816    3.4603 C   0  0  0  0  0  0  0  0  0  0  0  0
    2.0853    0.0024   -1.1674 N   0  0  0  0  0  0  0  0  0  0  0  0
    1.5417   -0.1137   -2.4719 C   0  0  0  0  0  0  0  0  0  0  0  0
    0.3081    0.4403   -2.8313 C   0  0  0  0  0  0  0  0  0  0  0  0
   -0.1379    0.3162   -4.1406 C   0  0  0  0  0  0  0  0  0  0  0  0
    0.6235   -0.3463   -5.1114 C   0  0  0  0  0  0  0  0  0  0  0  0
    1.8585   -0.8796   -4.7405 C   0  0  0  0  0  0  0  0  0  0  0  0
    2.3232   -0.7700   -3.4336 C   0  0  0  0  0  0  0  0  0  0  0  0
    0.0780   -0.4572   -6.5207 C   0  0  0  0  0  0  0  0  0  0  0  0
    1.0100   -1.2378   -7.4628 C   0  0  0  0  0  0  0  0  0  0  0  0
   -1.2770   -1.1890   -6.4736 C   0  0  0  0  0  0  0  0  0  0  0  0
   -0.1098    0.9602   -7.0942 C   0  0  0  0  0  0  0  0  0  0  0  0
   -2.4790   -0.0341    0.4484 H   0  0  0  0  0  0  0  0  0  0  0  0
   -2.4167   -0.0095    2.1765 H   0  0  0  0  0  0  0  0  0  0  0  0
    1.5267    0.0821    4.3601 H   0  0  0  0  0  0  0  0  0  0  0  0
    4.1631   -0.7069    1.8325 H   0  0  0  0  0  0  0  0  0  0  0  0
    6.5445   -0.4759    2.3282 H   0  0  0  0  0  0  0  0  0  0  0  0
    5.6128    1.1480    6.2069 H   0  0  0  0  0  0  0  0  0  0  0  0
    3.2115    0.9602    5.7112 H   0  0  0  0  0  0  0  0  0  0  0  0
    7.6654    2.6774    4.2594 H   0  0  0  0  0  0  0  0  0  0  0  0
    9.0625    2.1624    5.2172 H   0  0  0  0  0  0  0  0  0  0  0  0
    7.4700    2.2628    5.9642 H   0  0  0  0  0  0  0  0  0  0  0  0
    7.8232   -1.4566    5.5570 H   0  0  0  0  0  0  0  0  0  0  0  0
    7.4875   -0.1641    6.7104 H   0  0  0  0  0  0  0  0  0  0  0  0
    9.1201   -0.3690    6.0718 H   0  0  0  0  0  0  0  0  0  0  0  0
    8.5529   -0.8677    3.1633 H   0  0  0  0  0  0  0  0  0  0  0  0
    9.7020    0.3428    3.7254 H   0  0  0  0  0  0  0  0  0  0  0  0
    8.4380    0.8089    2.5878 H   0  0  0  0  0  0  0  0  0  0  0  0
    3.1011   -0.0676   -1.0719 H   0  0  0  0  0  0  0  0  0  0  0  0
   -0.3047    0.9608   -2.0921 H   0  0  0  0  0  0  0  0  0  0  0  0
   -1.1020    0.7471   -4.4095 H   0  0  0  0  0  0  0  0  0  0  0  0
    2.4807   -1.3966   -5.4695 H   0  0  0  0  0  0  0  0  0  0  0  0
    3.2842   -1.2029   -3.1658 H   0  0  0  0  0  0  0  0  0  0  0  0
    1.9823   -0.7447   -7.5680 H   0  0  0  0  0  0  0  0  0  0  0  0
    0.5761   -1.3143   -8.4662 H   0  0  0  0  0  0  0  0  0  0  0  0
    1.1786   -2.2594   -7.1055 H   0  0  0  0  0  0  0  0  0  0  0  0
   -2.0161   -0.6400   -5.8819 H   0  0  0  0  0  0  0  0  0  0  0  0
   -1.1705   -2.1830   -6.0247 H   0  0  0  0  0  0  0  0  0  0  0  0
   -1.6926   -1.3190   -7.4776 H   0  0  0  0  0  0  0  0  0  0  0  0
   -0.8392    1.5392   -6.5191 H   0  0  0  0  0  0  0  0  0  0  0  0
   -0.4632    0.9253   -8.1295 H   0  0  0  0  0  0  0  0  0  0  0  0
    0.8341    1.5163   -7.0836 H   0  0  0  0  0  0  0  0  0  0  0  0
  1  2  2  0  0  0  0
  1  6  2  0  0  0  0
  2  3  2  0  0  0  0
  3  4  2  0  0  0  0
  4  5  2  0  0  0  0
  4  8  1  0  0  0  0
  6  7  1  0  0  0  0
  6  5  2  0  0  0  0
  7 31  1  0  0  0  0
  8  9  1  0  0  0  0
  8 32  1  0  0  0  0
  9 14  2  0  0  0  0
 10 11  2  0  0  0  0
 10  9  1  0  0  0  0
 11 12  1  0  0  0  0
 12 15  1  0  0  0  0
 12 13  2  0  0  0  0
 13 35  1  0  0  0  0
 14 13  1  0  0  0  0
 14 36  1  0  0  0  0
 15 16  1  0  0  0  0
 15 17  1  0  0  0  0
 16 38  1  0  0  0  0
 16 39  1  0  0  0  0
 17 42  1  0  0  0  0
 17 41  1  0  0  0  0
 18 44  1  0  0  0  0
 18 15  1  0  0  0  0
 19 46  1  0  0  0  0
 19  2  1  0  0  0  0
 20 19  1  0  0  0  0
 21 20  1  0  0  0  0
 21 47  1  0  0  0  0
 22 21  2  0  0  0  0
 23 24  2  0  0  0  0
 23 22  1  0  0  0  0
 24 25  1  0  0  0  0
 25 50  1  0  0  0  0
 25 20  2  0  0  0  0
 26 28  1  0  0  0  0
 26 23  1  0  0  0  0
 27 53  1  0  0  0  0
 27 26  1  0  0  0  0
 28 55  1  0  0  0  0
 28 54  1  0  0  0  0
 29 59  1  0  0  0  0
 29 26  1  0  0  0  0
 29 57  1  0  0  0  0
 30  7  1  0  0  0  0
 33 10  1  0  0  0  0
 34 11  1  0  0  0  0
 37 16  1  0  0  0  0
 40 17  1  0  0  0  0
 43 18  1  0  0  0  0
 45 18  1  0  0  0  0
 48 22  1  0  0  0  0
 49 24  1  0  0  0  0
 51 27  1  0  0  0  0
 52 27  1  0  0  0  0
 56 28  1  0  0  0  0
 58 29  1  0  0  0  0
M  END
$$$$
