59

N          0.11600        0.14350       -0.00650
C          1.45340        0.02860        0.10440
N          2.12460       -0.06220        1.25300
C          1.35520       -0.03200        2.36180
N          0.02740        0.07780        2.37710
C         -0.53980        0.16260        1.15700
N         -1.88650        0.27610        1.11520
N          2.06130       -0.12610        3.52760
C          1.66610       -0.13500        4.87130
C          0.33900       -0.04380        5.31460
C          0.05670       -0.06330        6.68340
C          1.05600       -0.17190        7.65900
C          2.38040       -0.26210        7.19440
C          2.68350       -0.24470        5.83840
C          0.76610       -0.19550        9.16670
C          1.28530       -1.51910        9.76700
C          1.48310        0.99130        9.84450
C         -0.73640       -0.08640        9.46810
N          2.10940        0.01000       -1.09480
C          3.46440       -0.09380       -1.43080
C          3.79280       -0.07960       -2.79630
C          5.11710       -0.17820       -3.22030
C          6.17380       -0.29540       -2.30610
C          5.82700       -0.30790       -0.94460
C          4.51060       -0.21060       -0.49900
C          7.64530       -0.40660       -2.73050
C          8.44110        0.77240       -2.13180
C          8.22900       -1.73690       -2.20950
C          7.81020       -0.37330       -4.25760
H         -2.34870        0.34330        0.22010
H         -2.41110        0.29480        1.97740
H          3.05800       -0.20270        3.36020
H         -0.45710        0.04150        4.58090
H         -0.98970        0.01010        6.98000
H          3.20410       -0.34880        7.90620
H          3.72670       -0.31710        5.51650
H          0.78720       -2.38260        9.29890
H          1.08970       -1.55510       10.85130
H          2.36920       -1.63650        9.61840
H          1.12860        1.94910        9.43270
H          2.57280        0.94640        9.69800
H          1.29050        0.99080       10.92990
H         -1.16220        0.85360        9.08460
H         -0.90080       -0.10680       10.55660
H         -1.30210       -0.92320        9.03020
H          1.46410        0.08750       -1.87290
H          2.99540        0.01040       -3.53990
H          5.31290       -0.16190       -4.29220
H          6.61160       -0.39710       -0.18950
H          4.27430       -0.22320        0.56070
H          8.04340        1.73470       -2.49030
H          9.50280        0.70930       -2.42170
H          8.39350        0.77900       -1.03260
H          7.67730       -2.59500       -2.62400
H          8.17560       -1.80270       -1.11250
H          9.28770       -1.83520       -2.50060
H          7.28310       -1.20890       -4.74340
H          8.87650       -0.45550       -4.51990
H          7.43360        0.56730       -4.68840
