
     RDKit          3D

 59 61  0  0  0  0  0  0  0  0999 V2000
    0.1160    0.1435   -0.0065 N   0  0  0  0  0  0  0  0  0  0  0  0
    1.4534    0.0286    0.1044 C   0  0  0  0  0  0  0  0  0  0  0  0
    2.1246   -0.0622    1.2530 N   0  0  0  0  0  0  0  0  0  0  0  0
    1.3552   -0.0320    2.3618 C   0  0  0  0  0  0  0  0  0  0  0  0
    0.0274    0.0778    2.3771 N   0  0  0  0  0  0  0  0  0  0  0  0
   -0.5398    0.1626    1.1570 C   0  0  0  0  0  0  0  0  0  0  0  0
   -1.8865    0.2761    1.1152 N   0  0  0  0  0  0  0  0  0  0  0  0
    2.0613   -0.1261    3.5276 N   0  0  0  0  0  0  0  0  0  0  0  0
    1.6661   -0.1350    4.8713 C   0  0  0  0  0  0  0  0  0  0  0  0
    0.3390   -0.0438    5.3146 C   0  0  0  0  0  0  0  0  0  0  0  0
    0.0567   -0.0633    6.6834 C   0  0  0  0  0  0  0  0  0  0  0  0
    1.0560   -0.1719    7.6590 C   0  0  0  0  0  0  0  0  0  0  0  0
    2.3804   -0.2621    7.1944 C   0  0  0  0  0  0  0  0  0  0  0  0
    2.6835   -0.2447    5.8384 C   0  0  0  0  0  0  0  0  0  0  0  0
    0.7661   -0.1955    9.1667 C   0  0  0  0  0  0  0  0  0  0  0  0
    1.2853   -1.5191    9.7670 C   0  0  0  0  0  0  0  0  0  0  0  0
    1.4831    0.9913    9.8445 C   0  0  0  0  0  0  0  0  0  0  0  0
   -0.7364   -0.0864    9.4681 C   0  0  0  0  0  0  0  0  0  0  0  0
    2.1094    0.0100   -1.0948 N   0  0  0  0  0  0  0  0  0  0  0  0
    3.4644   -0.0938   -1.4308 C   0  0  0  0  0  0  0  0  0  0  0  0
    3.7928   -0.0796   -2.7963 C   0  0  0  0  0  0  0  0  0  0  0  0
    5.1171   -0.1782   -3.2203 C   0  0  0  0  0  0  0  0  0  0  0  0
    6.1738   -0.2954   -2.3061 C   0  0  0  0  0  0  0  0  0  0  0  0
    5.8270   -0.3079   -0.9446 C   0  0  0  0  0  0  0  0  0  0  0  0
    4.5106   -0.2106   -0.4990 C   0  0  0  0  0  0  0  0  0  0  0  0
    7.6453   -0.4066   -2.7305 C   0  0  0  0  0  0  0  0  0  0  0  0
    8.4411    0.7724   -2.1318 C   0  0  0  0  0  0  0  0  0  0  0  0
    8.2290   -1.7369   -2.2095 C   0  0  0  0  0  0  0  0  0  0  0  0
    7.8102   -0.3733   -4.2576 C   0  0  0  0  0  0  0  0  0  0  0  0
   -2.3487    0.3433    0.2201 H   0  0  0  0  0  0  0  0  0  0  0  0
   -2.4111    0.2948    1.9774 H   0  0  0  0  0  0  0  0  0  0  0  0
    3.0580   -0.2027    3.3602 H   0  0  0  0  0  0  0  0  0  0  0  0
   -0.4571    0.0415    4.5809 H   0  0  0  0  0  0  0  0  0  0  0  0
   -0.9897    0.0101    6.9800 H   0  0  0  0  0  0  0  0  0  0  0  0
    3.2041   -0.3488    7.9062 H   0  0  0  0  0  0  0  0  0  0  0  0
    3.7267   -0.3171    5.5165 H   0  0  0  0  0  0  0  0  0  0  0  0
    0.7872   -2.3826    9.2989 H   0  0  0  0  0  0  0  0  0  0  0  0
    1.0897   -1.5551   10.8513 H   0  0  0  0  0  0  0  0  0  0  0  0
    2.3692   -1.6365    9.6184 H   0  0  0  0  0  0  0  0  0  0  0  0
    1.1286    1.9491    9.4327 H   0  0  0  0  0  0  0  0  0  0  0  0
    2.5728    0.9464    9.6980 H   0  0  0  0  0  0  0  0  0  0  0  0
    1.2905    0.9908   10.9299 H   0  0  0  0  0  0  0  0  0  0  0  0
   -1.1622    0.8536    9.0846 H   0  0  0  0  0  0  0  0  0  0  0  0
   -0.9008   -0.1068   10.5566 H   0  0  0  0  0  0  0  0  0  0  0  0
   -1.3021   -0.9232    9.0302 H   0  0  0  0  0  0  0  0  0  0  0  0
    1.4641    0.0875   -1.8729 H   0  0  0  0  0  0  0  0  0  0  0  0
    2.9954    0.0104   -3.5399 H   0  0  0  0  0  0  0  0  0  0  0  0
    5.3129   -0.1619   -4.2922 H   0  0  0  0  0  0  0  0  0  0  0  0
    6.6116   -0.3971   -0.1895 H   0  0  0  0  0  0  0  0  0  0  0  0
    4.2743   -0.2232    0.5607 H   0  0  0  0  0  0  0  0  0  0  0  0
    8.0434    1.7347   -2.4903 H   0  0  0  0  0  0  0  0  0  0  0  0
    9.5028    0.7093   -2.4217 H   0  0  0  0  0  0  0  0  0  0  0  0
    8.3935    0.7790   -1.0326 H   0  0  0  0  0  0  0  0  0  0  0  0
    7.6773   -2.5950   -2.6240 H   0  0  0  0  0  0  0  0  0  0  0  0
    8.1756   -1.8027   -1.1125 H   0  0  0  0  0  0  0  0  0  0  0  0
    9.2877   -1.8352   -2.5006 H   0  0  0  0  0  0  0  0  0  0  0  0
    7.2831   -1.2089   -4.7434 H   0  0  0  0  0  0  0  0  0  0  0  0
    8.8765   -0.4555   -4.5199 H   0  0  0  0  0  0  0  0  0  0  0  0
    7.4336    0.5673   -4.6884 H   0  0  0  0  0  0  0  0  0  0  0  0
  1  2  2  0
  1  6  1  0
  2  3  1  0
  2 19  1  0
  3  4  2  0
  4  5  1  0
  4  8  1  0
  5  6  2  0
  6  7  1  0
  7 30  1  0
  7 31  1  0
  8  9  1  0
  8 32  1  0
  9 10  2  0
  9 14  1  0
 10 11  1  0
 10 33  1  0
 11 12  2  0
 11 34  1  0
 12 13  1  0
 12 15  1  0
 13 14  2  0
 13 35  1  0
 14 36  1  0
 15 16  1  0
 15 17  1  0
 15 18  1  0
 16 37  1  0
 16 38  1  0
 16 39  1  0
 17 40  1  0
 17 41  1  0
 17 42  1  0
 18 43  1  0
 18 44  1  0
 18 45  1  0
 19 20  1  0
 19 46  1  0
 20 21  2  0
 20 25  1  0
 21 22  1  0
 21 47  1  0
 22 23  2  0
 22 48  1  0
 23 24  1  0
 23 26  1  0
 24 25  2  0
 24 49  1  0
 25 50  1  0
 26 27  1  0
 26 28  1  0
 26 29  1  0
 27 51  1  0
 27 52  1  0
 27 53  1  0
 28 54  1  0
 28 55  1  0
 28 56  1  0
 29 57  1  0
 29 58  1  0
 29 59  1  0
M  END

