rmsd161.gzmat
 OpenBabel08211713403D

 59 61  0  0  0  0  0  0  0  0999 V2000
    0.0000    0.0000    0.0000 N   0  0  0  0  0  0  0  0  0  0  0  0
    1.3625    0.0000    0.0000 C   0  0  0  0  0  0  0  0  0  0  0  0
    2.1431    0.0000    1.1380 N   0  0  0  0  0  0  0  0  0  0  0  0
    1.4703   -0.0021    2.3225 C   0  0  0  0  0  0  0  0  0  0  0  0
    0.0963   -0.0257    2.4319 N   0  0  0  0  0  0  0  0  0  0  0  0
   -0.5838   -0.0177    1.2460 C   0  0  0  0  0  0  0  0  0  0  0  0
   -1.9465   -0.0229    1.2922 N   0  0  0  0  0  0  0  0  0  0  0  0
    2.1265    0.0198    3.5289 N   0  0  0  0  0  0  0  0  0  0  0  0
    3.5291   -0.0446    3.7180 C   0  0  0  0  0  0  0  0  0  0  0  0
    4.4535    0.4292    2.7843 C   0  0  0  0  0  0  0  0  0  0  0  0
    5.8154    0.3519    3.0642 C   0  0  0  0  0  0  0  0  0  0  0  0
    6.2771   -0.1799    4.2677 C   0  0  0  0  0  0  0  0  0  0  0  0
    5.3378   -0.6294    5.2048 C   0  0  0  0  0  0  0  0  0  0  0  0
    3.9766   -0.5709    4.9430 C   0  0  0  0  0  0  0  0  0  0  0  0
    7.7516   -0.2785    4.6005 C   0  0  0  0  0  0  0  0  0  0  0  0
    8.0481    0.6576    5.7870 C   0  0  0  0  0  0  0  0  0  0  0  0
    8.0875   -1.7344    4.9761 C   0  0  0  0  0  0  0  0  0  0  0  0
    8.6566    0.1284    3.4248 C   0  0  0  0  0  0  0  0  0  0  0  0
    2.0864    0.0035   -1.1662 N   0  0  0  0  0  0  0  0  0  0  0  0
    1.5490   -0.0564   -2.4763 C   0  0  0  0  0  0  0  0  0  0  0  0
    0.3245    0.5173   -2.8260 C   0  0  0  0  0  0  0  0  0  0  0  0
   -0.1046    0.4692   -4.1504 C   0  0  0  0  0  0  0  0  0  0  0  0
    0.6701   -0.1376   -5.1386 C   0  0  0  0  0  0  0  0  0  0  0  0
    1.8936   -0.7129   -4.7709 C   0  0  0  0  0  0  0  0  0  0  0  0
    2.3402   -0.6778   -3.4579 C   0  0  0  0  0  0  0  0  0  0  0  0
    0.2408   -0.2026   -6.5902 C   0  0  0  0  0  0  0  0  0  0  0  0
    1.3244    0.4577   -7.4644 C   0  0  0  0  0  0  0  0  0  0  0  0
    0.0722   -1.6813   -6.9873 C   0  0  0  0  0  0  0  0  0  0  0  0
   -1.0901    0.5220   -6.8542 C   0  0  0  0  0  0  0  0  0  0  0  0
   -2.4758   -0.0619    0.4441 H   0  0  0  0  0  0  0  0  0  0  0  0
   -2.4184   -0.0621    2.1728 H   0  0  0  0  0  0  0  0  0  0  0  0
    1.5365   -0.0594    4.3610 H   0  0  0  0  0  0  0  0  0  0  0  0
    4.1218    0.8575    1.8357 H   0  0  0  0  0  0  0  0  0  0  0  0
    6.5145    0.7216    2.3150 H   0  0  0  0  0  0  0  0  0  0  0  0
    5.6768   -1.0371    6.1568 H   0  0  0  0  0  0  0  0  0  0  0  0
    3.2666   -0.9373    5.6798 H   0  0  0  0  0  0  0  0  0  0  0  0
    7.8032    1.6962    5.5368 H   0  0  0  0  0  0  0  0  0  0  0  0
    9.1054    0.6211    6.0668 H   0  0  0  0  0  0  0  0  0  0  0  0
    7.4639    0.3887    6.6724 H   0  0  0  0  0  0  0  0  0  0  0  0
    7.7689   -2.4243    4.1861 H   0  0  0  0  0  0  0  0  0  0  0  0
    7.5940   -2.0434    5.9024 H   0  0  0  0  0  0  0  0  0  0  0  0
    9.1637   -1.8684    5.1220 H   0  0  0  0  0  0  0  0  0  0  0  0
    8.4749   -0.4968    2.5439 H   0  0  0  0  0  0  0  0  0  0  0  0
    9.7141    0.0167    3.6885 H   0  0  0  0  0  0  0  0  0  0  0  0
    8.5062    1.1757    3.1422 H   0  0  0  0  0  0  0  0  0  0  0  0
    3.0995   -0.0987   -1.0684 H   0  0  0  0  0  0  0  0  0  0  0  0
   -0.3007    0.9979   -2.0703 H   0  0  0  0  0  0  0  0  0  0  0  0
   -1.0648    0.9210   -4.3964 H   0  0  0  0  0  0  0  0  0  0  0  0
    2.5091   -1.2013   -5.5258 H   0  0  0  0  0  0  0  0  0  0  0  0
    3.2908   -1.1354   -3.1953 H   0  0  0  0  0  0  0  0  0  0  0  0
    1.4965    1.4954   -7.1575 H   0  0  0  0  0  0  0  0  0  0  0  0
    1.0322    0.4662   -8.5191 H   0  0  0  0  0  0  0  0  0  0  0  0
    2.2815   -0.0683   -7.3969 H   0  0  0  0  0  0  0  0  0  0  0  0
   -0.6660   -2.1772   -6.3467 H   0  0  0  0  0  0  0  0  0  0  0  0
    1.0105   -2.2371   -6.8949 H   0  0  0  0  0  0  0  0  0  0  0  0
   -0.2667   -1.7774   -8.0234 H   0  0  0  0  0  0  0  0  0  0  0  0
   -1.9145    0.0686   -6.2940 H   0  0  0  0  0  0  0  0  0  0  0  0
   -1.3577    0.4721   -7.9157 H   0  0  0  0  0  0  0  0  0  0  0  0
   -1.0322    1.5819   -6.5851 H   0  0  0  0  0  0  0  0  0  0  0  0
  1  2  2  0  0  0  0
  1  6  2  0  0  0  0
  2  3  2  0  0  0  0
  3  4  2  0  0  0  0
  4  5  2  0  0  0  0
  4  8  1  0  0  0  0
  6  7  1  0  0  0  0
  6  5  2  0  0  0  0
  7 31  1  0  0  0  0
  8  9  1  0  0  0  0
  8 32  1  0  0  0  0
  9 14  2  0  0  0  0
 10 11  2  0  0  0  0
 10  9  1  0  0  0  0
 11 12  1  0  0  0  0
 12 15  1  0  0  0  0
 12 13  2  0  0  0  0
 13 35  1  0  0  0  0
 14 13  1  0  0  0  0
 14 36  1  0  0  0  0
 15 17  1  0  0  0  0
 15 16  1  0  0  0  0
 16 38  1  0  0  0  0
 16 39  1  0  0  0  0
 17 42  1  0  0  0  0
 17 41  1  0  0  0  0
 18 44  1  0  0  0  0
 18 15  1  0  0  0  0
 19 46  1  0  0  0  0
 19  2  1  0  0  0  0
 20 19  1  0  0  0  0
 21 20  1  0  0  0  0
 21 47  1  0  0  0  0
 22 21  2  0  0  0  0
 23 24  2  0  0  0  0
 23 22  1  0  0  0  0
 24 25  1  0  0  0  0
 25 50  1  0  0  0  0
 25 20  2  0  0  0  0
 26 23  1  0  0  0  0
 27 53  1  0  0  0  0
 27 51  1  0  0  0  0
 27 26  1  0  0  0  0
 28 55  1  0  0  0  0
 28 26  1  0  0  0  0
 28 54  1  0  0  0  0
 29 26  1  0  0  0  0
 29 59  1  0  0  0  0
 29 57  1  0  0  0  0
 30  7  1  0  0  0  0
 33 10  1  0  0  0  0
 34 11  1  0  0  0  0
 37 16  1  0  0  0  0
 40 17  1  0  0  0  0
 43 18  1  0  0  0  0
 45 18  1  0  0  0  0
 48 22  1  0  0  0  0
 49 24  1  0  0  0  0
 52 27  1  0  0  0  0
 56 28  1  0  0  0  0
 58 29  1  0  0  0  0
M  END
$$$$
