
     RDKit          3D

 59 61  0  0  0  0  0  0  0  0999 V2000
    0.1155   -0.0632    0.0046 N   0  0  0  0  0  0  0  0  0  0  0  0
    1.4567   -0.1288    0.1107 C   0  0  0  0  0  0  0  0  0  0  0  0
    2.1354   -0.1858    1.2569 N   0  0  0  0  0  0  0  0  0  0  0  0
    1.3699   -0.1732    2.3688 C   0  0  0  0  0  0  0  0  0  0  0  0
    0.0391   -0.1113    2.3890 N   0  0  0  0  0  0  0  0  0  0  0  0
   -0.5358   -0.0581    1.1707 C   0  0  0  0  0  0  0  0  0  0  0  0
   -1.8859    0.0058    1.1338 N   0  0  0  0  0  0  0  0  0  0  0  0
    2.0838   -0.2307    3.5322 N   0  0  0  0  0  0  0  0  0  0  0  0
    1.6948   -0.2383    4.8778 C   0  0  0  0  0  0  0  0  0  0  0  0
    0.3672   -0.1883    5.3261 C   0  0  0  0  0  0  0  0  0  0  0  0
    0.0915   -0.2013    6.6964 C   0  0  0  0  0  0  0  0  0  0  0  0
    1.0981   -0.2633    7.6686 C   0  0  0  0  0  0  0  0  0  0  0  0
    2.4229   -0.3129    7.1988 C   0  0  0  0  0  0  0  0  0  0  0  0
    2.7195   -0.3011    5.8414 C   0  0  0  0  0  0  0  0  0  0  0  0
    0.8155   -0.2784    9.1777 C   0  0  0  0  0  0  0  0  0  0  0  0
    1.3833   -1.5754    9.7918 C   0  0  0  0  0  0  0  0  0  0  0  0
    1.4932    0.9411    9.8376 C   0  0  0  0  0  0  0  0  0  0  0  0
   -0.6887   -0.2183    9.4846 C   0  0  0  0  0  0  0  0  0  0  0  0
    2.1084   -0.1328   -1.0909 N   0  0  0  0  0  0  0  0  0  0  0  0
    3.4654   -0.1895   -1.4300 C   0  0  0  0  0  0  0  0  0  0  0  0
    3.7868   -0.1635   -2.8007 C   0  0  0  0  0  0  0  0  0  0  0  0
    5.1089   -0.2167   -3.2252 C   0  0  0  0  0  0  0  0  0  0  0  0
    6.1774   -0.2984   -2.3143 C   0  0  0  0  0  0  0  0  0  0  0  0
    5.8399   -0.3233   -0.9550 C   0  0  0  0  0  0  0  0  0  0  0  0
    4.5173   -0.2707   -0.5062 C   0  0  0  0  0  0  0  0  0  0  0  0
    7.6236   -0.3544   -2.8272 C   0  0  0  0  0  0  0  0  0  0  0  0
    8.6405   -0.4475   -1.6794 C   0  0  0  0  0  0  0  0  0  0  0  0
    7.7993   -1.5932   -3.7307 C   0  0  0  0  0  0  0  0  0  0  0  0
    7.9274    0.9214   -3.6409 C   0  0  0  0  0  0  0  0  0  0  0  0
   -2.3541    0.0472    0.2402 H   0  0  0  0  0  0  0  0  0  0  0  0
   -2.4075    0.0117    1.9981 H   0  0  0  0  0  0  0  0  0  0  0  0
    3.0819   -0.2726    3.3611 H   0  0  0  0  0  0  0  0  0  0  0  0
   -0.4345   -0.1396    4.5951 H   0  0  0  0  0  0  0  0  0  0  0  0
   -0.9555   -0.1609    6.9968 H   0  0  0  0  0  0  0  0  0  0  0  0
    3.2521   -0.3624    7.9078 H   0  0  0  0  0  0  0  0  0  0  0  0
    3.7631   -0.3409    5.5156 H   0  0  0  0  0  0  0  0  0  0  0  0
    0.9138   -2.4616    9.3368 H   0  0  0  0  0  0  0  0  0  0  0  0
    1.1937   -1.6047   10.8774 H   0  0  0  0  0  0  0  0  0  0  0  0
    2.4700   -1.6566    9.6396 H   0  0  0  0  0  0  0  0  0  0  0  0
    1.1037    1.8807    9.4156 H   0  0  0  0  0  0  0  0  0  0  0  0
    2.5831    0.9326    9.6869 H   0  0  0  0  0  0  0  0  0  0  0  0
    1.3050    0.9475   10.9238 H   0  0  0  0  0  0  0  0  0  0  0  0
   -1.1488    0.7014    9.0917 H   0  0  0  0  0  0  0  0  0  0  0  0
   -0.8478   -0.2310   10.5741 H   0  0  0  0  0  0  0  0  0  0  0  0
   -1.2264   -1.0798    9.0596 H   0  0  0  0  0  0  0  0  0  0  0  0
    1.4580   -0.0831   -1.8670 H   0  0  0  0  0  0  0  0  0  0  0  0
    2.9831   -0.1004   -3.5403 H   0  0  0  0  0  0  0  0  0  0  0  0
    5.3074   -0.1934   -4.2989 H   0  0  0  0  0  0  0  0  0  0  0  0
    6.6231   -0.3862   -0.1994 H   0  0  0  0  0  0  0  0  0  0  0  0
    4.2871   -0.2915    0.5547 H   0  0  0  0  0  0  0  0  0  0  0  0
    8.5831    0.4256   -1.0114 H   0  0  0  0  0  0  0  0  0  0  0  0
    9.6621   -0.4870   -2.0884 H   0  0  0  0  0  0  0  0  0  0  0  0
    8.4892   -1.3539   -1.0731 H   0  0  0  0  0  0  0  0  0  0  0  0
    7.1229   -1.5643   -4.5982 H   0  0  0  0  0  0  0  0  0  0  0  0
    7.5882   -2.5180   -3.1715 H   0  0  0  0  0  0  0  0  0  0  0  0
    8.8318   -1.6500   -4.1127 H   0  0  0  0  0  0  0  0  0  0  0  0
    7.2537    1.0233   -4.5048 H   0  0  0  0  0  0  0  0  0  0  0  0
    8.9614    0.9000   -4.0225 H   0  0  0  0  0  0  0  0  0  0  0  0
    7.8099    1.8206   -3.0162 H   0  0  0  0  0  0  0  0  0  0  0  0
  1  2  2  0
  1  6  1  0
  2  3  1  0
  2 19  1  0
  3  4  2  0
  4  5  1  0
  4  8  1  0
  5  6  2  0
  6  7  1  0
  7 30  1  0
  7 31  1  0
  8  9  1  0
  8 32  1  0
  9 10  2  0
  9 14  1  0
 10 11  1  0
 10 33  1  0
 11 12  2  0
 11 34  1  0
 12 13  1  0
 12 15  1  0
 13 14  2  0
 13 35  1  0
 14 36  1  0
 15 16  1  0
 15 17  1  0
 15 18  1  0
 16 37  1  0
 16 38  1  0
 16 39  1  0
 17 40  1  0
 17 41  1  0
 17 42  1  0
 18 43  1  0
 18 44  1  0
 18 45  1  0
 19 20  1  0
 19 46  1  0
 20 21  2  0
 20 25  1  0
 21 22  1  0
 21 47  1  0
 22 23  2  0
 22 48  1  0
 23 24  1  0
 23 26  1  0
 24 25  2  0
 24 49  1  0
 25 50  1  0
 26 27  1  0
 26 28  1  0
 26 29  1  0
 27 51  1  0
 27 52  1  0
 27 53  1  0
 28 54  1  0
 28 55  1  0
 28 56  1  0
 29 57  1  0
 29 58  1  0
 29 59  1  0
M  END

