59

N          0.02070       -0.08440       -0.08920
C          1.35940        0.02230        0.01500
N          2.03810        0.09310        1.16060
C          1.27550        0.05090        2.27370
N         -0.05280       -0.05240        2.29560
C         -0.62790       -0.11690        1.07800
N         -1.97540       -0.22310        1.04280
N          1.98960        0.12450        3.43600
C          1.60460        0.11510        4.78270
C          0.27540        0.02660        5.23180
C          0.00580        0.02650        6.59860
C          1.01300        0.11200        7.57450
C          2.33210        0.19960        7.10730
C          2.62460        0.20140        5.74430
C          0.64740        0.10660        9.06590
C          1.88870        0.20650        9.96560
C         -0.27040        1.30900        9.37190
C         -0.09300       -1.20390        9.40650
N          2.00800        0.05500       -1.18780
C          3.36130        0.15720       -1.53080
C          4.41400        0.25450       -0.60410
C          5.72800        0.35210       -1.05660
C          6.06610        0.35880       -2.42040
C          5.00310        0.26070       -3.32950
C          3.68100        0.16210       -2.89850
C          7.53540        0.46940       -2.85250
C          7.69040        0.45850       -4.38100
C          8.12880        1.78890       -2.31520
C          8.32930       -0.72220       -2.27690
H         -2.44340       -0.27600        0.14970
H         -2.49490       -0.25250        1.90790
H          2.98570        0.19770        3.26330
H         -0.52460       -0.04100        4.50050
H         -1.03960       -0.04360        6.90820
H          3.16350        0.26850        7.80830
H          3.66670        0.27110        5.41840
H          2.57400       -0.64110        9.81070
H          1.58440        0.19890       11.02370
H          2.44830        1.13770        9.78730
H         -1.19960        1.27170        8.78370
H          0.23680        2.25790        9.13740
H         -0.54840        1.32180       10.43860
H         -1.01710       -1.31380        8.81950
H         -0.36850       -1.22640       10.47370
H          0.54300       -2.07820        9.19710
H          1.35740       -0.00780       -1.96290
H          4.18450        0.25220        0.45720
H          6.51780        0.42590       -0.30540
H          5.19200        0.25980       -4.40270
H          2.87840        0.08740       -3.63820
H          7.30630       -0.47360       -4.82350
H          8.75540        0.53950       -4.64880
H          7.16440        1.30400       -4.85070
H          8.08270        1.83840       -1.21710
H          7.57850        2.65580       -2.71320
H          9.18600        1.88670       -2.61180
H          8.28850       -0.74540       -1.17770
H          9.38950       -0.65970       -2.57240
H          7.92480       -1.67710       -2.64750
