59
rmsd179.gzmat
N          0.00000        0.00000        0.00000
C          1.37780        0.00000        0.00000
N          2.14350        0.00000        1.12750
C          1.45790        0.01710        2.32410
N          0.09950        0.04300        2.43290
C         -0.58220        0.03310        1.23730
N         -1.94420        0.06570        1.29920
N          2.27800        0.01410        3.42600
C          1.85290       -0.06470        4.77540
C          0.66440        0.50830        5.23370
C          0.34280        0.43290        6.58660
C          1.18920       -0.19970        7.49730
C          2.37730       -0.76950        7.02220
C          2.71780       -0.70640        5.67850
C          0.85690       -0.31180        8.97120
C          0.56040       -1.79000        9.28650
C          2.05520        0.17670        9.80740
C         -0.36950        0.52640        9.37090
N          1.94770       -0.00330       -1.24940
C          3.34050       -0.06570       -1.51230
C          3.74680       -0.73410       -2.67590
C          5.09910       -0.79010       -3.00070
C          6.06060       -0.19260       -2.18480
C          5.63560        0.47900       -1.03190
C          4.29120        0.55260       -0.69180
C          7.54370       -0.26020       -2.48830
C          8.12090        1.16740       -2.53690
C          8.23020       -1.06420       -1.36740
C          7.84920       -0.94150       -3.83310
H         -2.48630        0.03220        0.45940
H         -2.40570        0.04640        2.18670
H          3.27770       -0.10460        3.24110
H         -0.01700        1.00750        4.54100
H         -0.59260        0.88160        6.91870
H          3.04820       -1.27790        7.71420
H          3.64230       -1.16140        5.33170
H         -0.28140       -2.15710        8.68810
H          0.30480       -1.92660       10.34180
H          1.41980       -2.43130        9.06740
H          2.34810        1.19160        9.51670
H          2.93040       -0.46830        9.68450
H          1.81310        0.19230       10.87480
H         -0.22520        1.58530        9.13130
H         -0.55480        0.45960       10.44890
H         -1.27850        0.17850        8.86900
H          1.31020       -0.10690       -2.04040
H          3.01680       -1.21890       -3.31910
H          5.39160       -1.31900       -3.90650
H          6.36800        0.95710       -0.38150
H          3.98460        1.08270        0.21240
H          7.59920        1.77580       -3.28370
H          9.18400        1.15510       -2.79870
H          8.02980        1.67870       -1.57360
H          7.80770       -2.07260       -1.29230
H          8.10620       -0.58500       -0.39080
H          9.30400       -1.16390       -1.55170
H          7.51780       -1.98520       -3.84320
H          8.92660       -0.94500       -4.03370
H          7.36630       -0.41950       -4.66620
