59
rmsd190.gzmat
N          0.00000        0.00000        0.00000
C          1.36300        0.00000        0.00000
N          2.14420        0.00000        1.13700
C          1.47000       -0.00150        2.32140
N          0.09600        0.01460        2.43100
C         -0.58440        0.00730        1.24520
N         -1.94730        0.00020        1.29190
N          2.12590       -0.01880        3.52800
C          3.52790        0.06440        3.71780
C          3.96910        0.63220        4.92300
C          5.33110        0.69700        5.19670
C          6.27170        0.20660        4.28950
C          5.81400       -0.35270        3.09060
C          4.45770       -0.43530        2.79990
C          7.76260        0.27630        4.55140
C          8.38610       -1.11840        4.35060
C          8.38220        1.27560        3.55640
C          8.09270        0.73850        5.98110
N          2.08050       -0.01180       -1.17040
C          1.52270        0.09980       -2.46980
C          0.30850       -0.49250       -2.82480
C         -0.15130       -0.38460       -4.13490
C          0.58530        0.29680       -5.10420
C          1.80270        0.88210       -4.73260
C          2.27700        0.79160       -3.43170
C          0.11420        0.43840       -6.53720
C         -0.15230        1.92920       -6.81910
C          1.20820       -0.09050       -7.48430
C         -1.17910       -0.34380       -6.82100
H         -2.47770        0.04150        0.44430
H         -2.41910        0.03960        2.17250
H          1.53550        0.05770        4.36000
H          3.25620        1.02960        5.64120
H          5.64870        1.14500        6.13720
H          6.52950       -0.73660        2.36370
H          4.12770       -0.88470        1.86060
H          7.88040       -1.86650        4.97130
H          9.44610       -1.12190        4.62350
H          8.31890       -1.45160        3.31040
H          7.94300        2.27240        3.67510
H          8.21570        0.96690        2.51930
H          9.46230        1.36690        3.70650
H          7.72790        1.75300        6.17410
H          9.17530        0.75100        6.14920
H          7.65480        0.06740        6.72790
H          3.09370        0.09070       -1.08250
H         -0.28390       -1.03150       -2.08220
H         -1.10510       -0.84780       -4.38510
H          2.39050        1.42430       -5.47260
H          3.21890        1.26270       -3.16260
H         -0.92270        2.32310       -6.14620
H         -0.49630        2.08310       -7.84640
H          0.74720        2.53660       -6.67810
H          1.47030       -1.12580       -7.23940
H          2.12460        0.50420       -7.42400
H          0.87580       -0.06720       -8.52680
H         -1.05550       -1.41290       -6.61920
H         -1.47180       -0.24480       -7.87240
H         -2.01420        0.02800       -6.21820
