
     RDKit          3D

 59 61  0  0  0  0  0  0  0  0999 V2000
   -0.1225   -0.0756    0.1272 N   0  0  0  0  0  0  0  0  0  0  0  0
    1.2009    0.0564    0.0466 C   0  0  0  0  0  0  0  0  0  0  0  0
    2.0503    0.0746    1.0957 N   0  0  0  0  0  0  0  0  0  0  0  0
    1.4681   -0.0538    2.2884 C   0  0  0  0  0  0  0  0  0  0  0  0
    0.1445   -0.1937    2.4954 N   0  0  0  0  0  0  0  0  0  0  0  0
   -0.5958   -0.1973    1.3837 C   0  0  0  0  0  0  0  0  0  0  0  0
   -1.9338   -0.3342    1.5226 N   0  0  0  0  0  0  0  0  0  0  0  0
    2.2114   -0.0521    3.4357 N   0  0  0  0  0  0  0  0  0  0  0  0
    3.5861    0.0654    3.6725 C   0  0  0  0  0  0  0  0  0  0  0  0
    4.0161    0.0211    5.0089 C   0  0  0  0  0  0  0  0  0  0  0  0
    5.3668    0.1305    5.3355 C   0  0  0  0  0  0  0  0  0  0  0  0
    6.3502    0.2889    4.3486 C   0  0  0  0  0  0  0  0  0  0  0  0
    5.9022    0.3313    3.0175 C   0  0  0  0  0  0  0  0  0  0  0  0
    4.5577    0.2238    2.6689 C   0  0  0  0  0  0  0  0  0  0  0  0
    7.8476    0.4128    4.6651 C   0  0  0  0  0  0  0  0  0  0  0  0
    8.6129   -0.7376    3.9774 C   0  0  0  0  0  0  0  0  0  0  0  0
    8.3720    1.7652    4.1380 C   0  0  0  0  0  0  0  0  0  0  0  0
    8.1270    0.3428    6.1742 C   0  0  0  0  0  0  0  0  0  0  0  0
    1.8166    0.1888   -1.1657 N   0  0  0  0  0  0  0  0  0  0  0  0
    1.3224    0.2197   -2.4759 C   0  0  0  0  0  0  0  0  0  0  0  0
   -0.0320    0.1105   -2.8221 C   0  0  0  0  0  0  0  0  0  0  0  0
   -0.4156    0.1544   -4.1655 C   0  0  0  0  0  0  0  0  0  0  0  0
    0.5063    0.3056   -5.2094 C   0  0  0  0  0  0  0  0  0  0  0  0
    1.8596    0.4132   -4.8418 C   0  0  0  0  0  0  0  0  0  0  0  0
    2.2628    0.3721   -3.5127 C   0  0  0  0  0  0  0  0  0  0  0  0
    0.1048    0.3562   -6.6906 C   0  0  0  0  0  0  0  0  0  0  0  0
    0.5527    1.7030   -7.2965 C   0  0  0  0  0  0  0  0  0  0  0  0
    0.7919   -0.8005   -7.4468 C   0  0  0  0  0  0  0  0  0  0  0  0
   -1.4136    0.2225   -6.8827 C   0  0  0  0  0  0  0  0  0  0  0  0
   -2.5211   -0.3405    0.7016 H   0  0  0  0  0  0  0  0  0  0  0  0
   -2.3271   -0.4279    2.4478 H   0  0  0  0  0  0  0  0  0  0  0  0
    1.6272   -0.1590    4.2574 H   0  0  0  0  0  0  0  0  0  0  0  0
    3.2780   -0.1016    5.8071 H   0  0  0  0  0  0  0  0  0  0  0  0
    5.6426    0.0894    6.3889 H   0  0  0  0  0  0  0  0  0  0  0  0
    6.6266    0.4533    2.2089 H   0  0  0  0  0  0  0  0  0  0  0  0
    4.2424    0.2600    1.6304 H   0  0  0  0  0  0  0  0  0  0  0  0
    8.2563   -1.7150    4.3381 H   0  0  0  0  0  0  0  0  0  0  0  0
    9.6922   -0.6653    4.1893 H   0  0  0  0  0  0  0  0  0  0  0  0
    8.4837   -0.7164    2.8849 H   0  0  0  0  0  0  0  0  0  0  0  0
    7.8408    2.6034    4.6153 H   0  0  0  0  0  0  0  0  0  0  0  0
    8.2360    1.8584    3.0502 H   0  0  0  0  0  0  0  0  0  0  0  0
    9.4480    1.8730    4.3523 H   0  0  0  0  0  0  0  0  0  0  0  0
    7.6262    1.1572    6.7202 H   0  0  0  0  0  0  0  0  0  0  0  0
    9.2086    0.4351    6.3583 H   0  0  0  0  0  0  0  0  0  0  0  0
    7.7967   -0.6144    6.6064 H   0  0  0  0  0  0  0  0  0  0  0  0
    2.8216    0.2794   -1.0710 H   0  0  0  0  0  0  0  0  0  0  0  0
   -0.7695   -0.0077   -2.0337 H   0  0  0  0  0  0  0  0  0  0  0  0
   -1.4794    0.0655   -4.3856 H   0  0  0  0  0  0  0  0  0  0  0  0
    2.6263    0.5329   -5.6102 H   0  0  0  0  0  0  0  0  0  0  0  0
    3.3254    0.4594   -3.2671 H   0  0  0  0  0  0  0  0  0  0  0  0
    0.0741    2.5455   -6.7732 H   0  0  0  0  0  0  0  0  0  0  0  0
    0.2770    1.7585   -8.3624 H   0  0  0  0  0  0  0  0  0  0  0  0
    1.6422    1.8397   -7.2251 H   0  0  0  0  0  0  0  0  0  0  0  0
    0.4874   -1.7741   -7.0322 H   0  0  0  0  0  0  0  0  0  0  0  0
    1.8884   -0.7363   -7.3805 H   0  0  0  0  0  0  0  0  0  0  0  0
    0.5191   -0.7806   -8.5147 H   0  0  0  0  0  0  0  0  0  0  0  0
   -1.7916   -0.7345   -6.4913 H   0  0  0  0  0  0  0  0  0  0  0  0
   -1.6590    0.2638   -7.9553 H   0  0  0  0  0  0  0  0  0  0  0  0
   -1.9611    1.0373   -6.3843 H   0  0  0  0  0  0  0  0  0  0  0  0
  1  2  2  0
  1  6  1  0
  2  3  1  0
  2 19  1  0
  3  4  2  0
  4  5  1  0
  4  8  1  0
  5  6  2  0
  6  7  1  0
  7 30  1  0
  7 31  1  0
  8  9  1  0
  8 32  1  0
  9 10  2  0
  9 14  1  0
 10 11  1  0
 10 33  1  0
 11 12  2  0
 11 34  1  0
 12 13  1  0
 12 15  1  0
 13 14  2  0
 13 35  1  0
 14 36  1  0
 15 16  1  0
 15 17  1  0
 15 18  1  0
 16 37  1  0
 16 38  1  0
 16 39  1  0
 17 40  1  0
 17 41  1  0
 17 42  1  0
 18 43  1  0
 18 44  1  0
 18 45  1  0
 19 20  1  0
 19 46  1  0
 20 21  2  0
 20 25  1  0
 21 22  1  0
 21 47  1  0
 22 23  2  0
 22 48  1  0
 23 24  1  0
 23 26  1  0
 24 25  2  0
 24 49  1  0
 25 50  1  0
 26 27  1  0
 26 28  1  0
 26 29  1  0
 27 51  1  0
 27 52  1  0
 27 53  1  0
 28 54  1  0
 28 55  1  0
 28 56  1  0
 29 57  1  0
 29 58  1  0
 29 59  1  0
M  END

