59
rmsd169.gzmat
N          0.00000        0.00000        0.00000
C          1.37860        0.00000        0.00000
N          2.14560        0.00000        1.12650
C          1.45770       -0.01930        2.32240
N          0.09890       -0.03850        2.42930
C         -0.58360       -0.02800        1.23550
N         -1.94580       -0.05570        1.29640
N          2.26660       -0.02560        3.43240
C          1.81680        0.03680        4.77580
C          0.61680       -0.54440        5.20010
C          0.25960       -0.47090        6.54000
C          1.08350        0.15840        7.48100
C          2.28430        0.72060        7.04510
C          2.65700        0.66720        5.70530
C          0.63150        0.21920        8.92620
C          1.69690        0.81600        9.86140
C         -0.62940        1.10110        9.00170
C          0.30850       -1.20380        9.42030
N          1.93150       -0.00200       -1.25710
C          3.30990        0.09940       -1.56790
C          4.32420       -0.37810       -0.73090
C          5.64810       -0.27460       -1.13910
C          5.98980        0.28520       -2.37620
C          4.96580        0.74830       -3.20370
C          3.63420        0.66260       -2.81180
C          7.45150        0.37700       -2.76410
C          7.66190        0.95260       -4.17520
C          8.16720        1.29700       -1.75690
C          8.07240       -1.03210       -2.72750
H         -2.48470       -0.00930        0.45550
H         -2.40900       -0.02720        2.18280
H          3.26830        0.09000        3.26390
H         -0.04100       -1.04740        4.48780
H         -0.68430       -0.91510        6.85580
H          2.95010        1.21850        7.74860
H          3.59140        1.12300        5.38710
H          2.62020        0.22730        9.84560
H          1.34260        0.83490       10.89820
H          1.94190        1.84780        9.58840
H         -1.44970        0.68800        8.40620
H         -0.42500        2.10880        8.62220
H         -0.98480        1.19730       10.03210
H         -0.55460       -1.63150        8.90090
H          0.07760       -1.20890       10.49030
H          1.15800       -1.87700        9.26040
H          1.27060        0.07330       -2.03510
H          4.08370       -0.82700        0.23550
H          6.43150       -0.63990       -0.47520
H          5.19270        1.19140       -4.17230
H          2.85400        1.03920       -3.46860
H          7.16860        0.34000       -4.93720
H          8.72740        0.98730       -4.42840
H          7.27990        1.97600       -4.25450
H          8.11390        0.90230       -0.73750
H          7.71140        2.29360       -1.74660
H          9.22510        1.41550       -2.00990
H          8.03450       -1.47050       -1.72560
H          9.12270       -1.01050       -3.03480
H          7.54030       -1.71100       -3.40330
