rmsd235.gzmat
 OpenBabel08211713403D

 59 61  0  0  0  0  0  0  0  0999 V2000
    0.0000    0.0000    0.0000 N   0  0  0  0  0  0  0  0  0  0  0  0
    1.3779    0.0000    0.0000 C   0  0  0  0  0  0  0  0  0  0  0  0
    2.1437    0.0000    1.1272 N   0  0  0  0  0  0  0  0  0  0  0  0
    1.4573   -0.0173    2.3238 C   0  0  0  0  0  0  0  0  0  0  0  0
    0.0990   -0.0386    2.4323 N   0  0  0  0  0  0  0  0  0  0  0  0
   -0.5825   -0.0274    1.2370 C   0  0  0  0  0  0  0  0  0  0  0  0
   -1.9447   -0.0496    1.2980 N   0  0  0  0  0  0  0  0  0  0  0  0
    2.2764   -0.0123    3.4253 N   0  0  0  0  0  0  0  0  0  0  0  0
    1.8599    0.0120    4.7785 C   0  0  0  0  0  0  0  0  0  0  0  0
    0.6596   -0.5468    5.2216 C   0  0  0  0  0  0  0  0  0  0  0  0
    0.3558   -0.5332    6.5805 C   0  0  0  0  0  0  0  0  0  0  0  0
    1.2309    0.0243    7.5123 C   0  0  0  0  0  0  0  0  0  0  0  0
    2.4312    0.5816    7.0527 C   0  0  0  0  0  0  0  0  0  0  0  0
    2.7525    0.5818    5.7032 C   0  0  0  0  0  0  0  0  0  0  0  0
    0.9257    0.0576    8.9959 C   0  0  0  0  0  0  0  0  0  0  0  0
    2.0737   -0.6258    9.7635 C   0  0  0  0  0  0  0  0  0  0  0  0
    0.7993    1.5274    9.4386 C   0  0  0  0  0  0  0  0  0  0  0  0
   -0.3839   -0.6683    9.3485 C   0  0  0  0  0  0  0  0  0  0  0  0
    1.9450   -0.0031   -1.2508 N   0  0  0  0  0  0  0  0  0  0  0  0
    3.3338    0.0974   -1.5211 C   0  0  0  0  0  0  0  0  0  0  0  0
    4.3092   -0.4666   -0.6957 C   0  0  0  0  0  0  0  0  0  0  0  0
    5.6532   -0.3501   -1.0412 C   0  0  0  0  0  0  0  0  0  0  0  0
    6.0450    0.3131   -2.2039 C   0  0  0  0  0  0  0  0  0  0  0  0
    5.0533    0.8493   -3.0357 C   0  0  0  0  0  0  0  0  0  0  0  0
    3.7085    0.7508   -2.7074 C   0  0  0  0  0  0  0  0  0  0  0  0
    7.4996    0.4746   -2.5956 C   0  0  0  0  0  0  0  0  0  0  0  0
    7.7427   -0.2709   -3.9210 C   0  0  0  0  0  0  0  0  0  0  0  0
    7.8032    1.9752   -2.7700 C   0  0  0  0  0  0  0  0  0  0  0  0
    8.4670   -0.0893   -1.5403 C   0  0  0  0  0  0  0  0  0  0  0  0
   -2.4841   -0.0148    0.4567 H   0  0  0  0  0  0  0  0  0  0  0  0
   -2.4078   -0.0294    2.1846 H   0  0  0  0  0  0  0  0  0  0  0  0
    3.2764    0.1007    3.2398 H   0  0  0  0  0  0  0  0  0  0  0  0
   -0.0439   -0.9912    4.5140 H   0  0  0  0  0  0  0  0  0  0  0  0
   -0.5881   -0.9741    6.8984 H   0  0  0  0  0  0  0  0  0  0  0  0
    3.1279    1.0269    7.7627 H   0  0  0  0  0  0  0  0  0  0  0  0
    3.6851    1.0289    5.3677 H   0  0  0  0  0  0  0  0  0  0  0  0
    2.2492   -1.6393    9.3857 H   0  0  0  0  0  0  0  0  0  0  0  0
    1.8456   -0.7024   10.8314 H   0  0  0  0  0  0  0  0  0  0  0  0
    3.0133   -0.0729    9.6709 H   0  0  0  0  0  0  0  0  0  0  0  0
   -0.0042    2.0335    8.8918 H   0  0  0  0  0  0  0  0  0  0  0  0
    1.7213    2.0882    9.2561 H   0  0  0  0  0  0  0  0  0  0  0  0
    0.5757    1.6016   10.5072 H   0  0  0  0  0  0  0  0  0  0  0  0
   -1.2458   -0.2082    8.8530 H   0  0  0  0  0  0  0  0  0  0  0  0
   -0.5757   -0.6305   10.4264 H   0  0  0  0  0  0  0  0  0  0  0  0
   -0.3453   -1.7250    9.0626 H   0  0  0  0  0  0  0  0  0  0  0  0
    1.3026    0.0898   -2.0394 H   0  0  0  0  0  0  0  0  0  0  0  0
    4.0282   -0.9912    0.2202 H   0  0  0  0  0  0  0  0  0  0  0  0
    6.3946   -0.7923   -0.3765 H   0  0  0  0  0  0  0  0  0  0  0  0
    5.3365    1.3599   -3.9555 H   0  0  0  0  0  0  0  0  0  0  0  0
    2.9569    1.1865   -3.3608 H   0  0  0  0  0  0  0  0  0  0  0  0
    7.5377   -1.3416   -3.8121 H   0  0  0  0  0  0  0  0  0  0  0  0
    8.7802   -0.1621   -4.2522 H   0  0  0  0  0  0  0  0  0  0  0  0
    7.1001    0.1055   -4.7230 H   0  0  0  0  0  0  0  0  0  0  0  0
    7.5323    2.5359   -1.8680 H   0  0  0  0  0  0  0  0  0  0  0  0
    7.2462    2.4095   -3.6058 H   0  0  0  0  0  0  0  0  0  0  0  0
    8.8666    2.1464   -2.9630 H   0  0  0  0  0  0  0  0  0  0  0  0
    8.3407    0.4088   -0.5728 H   0  0  0  0  0  0  0  0  0  0  0  0
    9.5088    0.0567   -1.8466 H   0  0  0  0  0  0  0  0  0  0  0  0
    8.3225   -1.1651   -1.3952 H   0  0  0  0  0  0  0  0  0  0  0  0
  1  2  2  0  0  0  0
  1  6  2  0  0  0  0
  2  3  2  0  0  0  0
  3  4  2  0  0  0  0
  4  5  2  0  0  0  0
  4  8  1  0  0  0  0
  6  7  1  0  0  0  0
  6  5  2  0  0  0  0
  7 31  1  0  0  0  0
  8  9  1  0  0  0  0
  9 10  2  0  0  0  0
  9 14  1  0  0  0  0
 10 11  1  0  0  0  0
 11 34  1  0  0  0  0
 11 12  2  0  0  0  0
 12 15  1  0  0  0  0
 13 12  1  0  0  0  0
 13 35  1  0  0  0  0
 14 13  2  0  0  0  0
 15 18  1  0  0  0  0
 15 17  1  0  0  0  0
 15 16  1  0  0  0  0
 16 38  1  0  0  0  0
 17 42  1  0  0  0  0
 18 44  1  0  0  0  0
 19  2  1  0  0  0  0
 20 19  1  0  0  0  0
 20 21  2  0  0  0  0
 21 47  1  0  0  0  0
 22 21  1  0  0  0  0
 22 48  1  0  0  0  0
 23 22  2  0  0  0  0
 24 25  2  0  0  0  0
 24 23  1  0  0  0  0
 25 20  1  0  0  0  0
 26 23  1  0  0  0  0
 26 29  1  0  0  0  0
 27 51  1  0  0  0  0
 27 26  1  0  0  0  0
 28 26  1  0  0  0  0
 28 54  1  0  0  0  0
 29 59  1  0  0  0  0
 29 57  1  0  0  0  0
 30  7  1  0  0  0  0
 32  8  1  0  0  0  0
 33 10  1  0  0  0  0
 36 14  1  0  0  0  0
 37 16  1  0  0  0  0
 39 16  1  0  0  0  0
 40 17  1  0  0  0  0
 41 17  1  0  0  0  0
 43 18  1  0  0  0  0
 45 18  1  0  0  0  0
 46 19  1  0  0  0  0
 49 24  1  0  0  0  0
 50 25  1  0  0  0  0
 52 27  1  0  0  0  0
 53 27  1  0  0  0  0
 55 28  1  0  0  0  0
 56 28  1  0  0  0  0
 58 29  1  0  0  0  0
M  END
$$$$
