
     RDKit          3D

 42 43  0  0  0  0  0  0  0  0999 V2000
   -0.0143    0.0766    0.0039 C   0  0  0  0  0  0  0  0  0  0  0  0
    1.3895    0.0908    0.0560 C   0  0  0  0  0  0  0  0  0  0  0  0
    2.0479    0.1775    1.2842 C   0  0  0  0  0  0  0  0  0  0  0  0
    1.3139    0.2565    2.4723 C   0  0  0  0  0  0  0  0  0  0  0  0
   -0.0826    0.2445    2.4285 C   0  0  0  0  0  0  0  0  0  0  0  0
   -0.7412    0.1510    1.1996 C   0  0  0  0  0  0  0  0  0  0  0  0
   -0.7226   -0.0810   -1.3177 C   0  0  0  0  0  0  0  0  0  0  0  0
   -0.6910   -1.4608   -1.7302 O   0  0  0  0  0  0  0  0  0  0  0  0
    0.3407   -1.8400   -2.5133 C   0  0  0  0  0  0  0  0  0  0  0  0
    1.1311   -1.0851   -3.0398 O   0  0  0  0  0  0  0  0  0  0  0  0
    0.4443   -3.2106   -2.5538 N   0  0  0  0  0  0  0  0  0  0  0  0
    1.2364   -3.8883   -3.5755 C   0  0  0  0  0  0  0  0  0  0  0  0
    0.1604   -4.6277   -4.3868 C   0  0  0  0  0  0  0  0  0  0  0  0
   -0.9480   -4.9167   -3.3486 C   0  0  0  0  0  0  0  0  0  0  0  0
   -0.6236   -4.0485   -2.2026 N   0  0  0  0  0  0  0  0  0  0  0  0
   -0.6711   -4.6005   -0.9077 C   0  0  0  0  0  0  0  0  0  0  0  0
   -1.2631   -5.6485   -0.7013 O   0  0  0  0  0  0  0  0  0  0  0  0
   -0.0396   -3.8674    0.0541 N   0  0  0  0  0  0  0  0  0  0  0  0
   -0.1800   -4.2105    1.4660 C   0  0  0  0  0  0  0  0  0  0  0  0
    1.0219   -3.6607    2.2313 C   0  0  0  0  0  0  0  0  0  0  0  0
   -1.5125   -3.7119    2.0349 C   0  0  0  0  0  0  0  0  0  0  0  0
    1.9569    0.0293   -0.8753 H   0  0  0  0  0  0  0  0  0  0  0  0
    3.1400    0.1875    1.3148 H   0  0  0  0  0  0  0  0  0  0  0  0
    1.8310    0.3255    3.4322 H   0  0  0  0  0  0  0  0  0  0  0  0
   -0.6611    0.3023    3.3534 H   0  0  0  0  0  0  0  0  0  0  0  0
   -1.8339    0.1343    1.1671 H   0  0  0  0  0  0  0  0  0  0  0  0
   -0.2600    0.5341   -2.1010 H   0  0  0  0  0  0  0  0  0  0  0  0
   -1.7873    0.1701   -1.2283 H   0  0  0  0  0  0  0  0  0  0  0  0
    1.9318   -4.5906   -3.0866 H   0  0  0  0  0  0  0  0  0  0  0  0
    1.8121   -3.1491   -4.1437 H   0  0  0  0  0  0  0  0  0  0  0  0
   -0.2178   -3.9714   -5.1851 H   0  0  0  0  0  0  0  0  0  0  0  0
    0.5422   -5.5454   -4.8559 H   0  0  0  0  0  0  0  0  0  0  0  0
   -1.9486   -4.6844   -3.7446 H   0  0  0  0  0  0  0  0  0  0  0  0
   -0.9598   -5.9569   -2.9963 H   0  0  0  0  0  0  0  0  0  0  0  0
    0.1619   -2.8965   -0.1548 H   0  0  0  0  0  0  0  0  0  0  0  0
   -0.1761   -5.3099    1.5117 H   0  0  0  0  0  0  0  0  0  0  0  0
    1.0577   -2.5607    2.1689 H   0  0  0  0  0  0  0  0  0  0  0  0
    1.9628   -4.0581    1.8211 H   0  0  0  0  0  0  0  0  0  0  0  0
    0.9625   -3.9329    3.2962 H   0  0  0  0  0  0  0  0  0  0  0  0
   -1.5704   -2.6127    1.9747 H   0  0  0  0  0  0  0  0  0  0  0  0
   -1.6238   -4.0039    3.0915 H   0  0  0  0  0  0  0  0  0  0  0  0
   -2.3507   -4.1428    1.4680 H   0  0  0  0  0  0  0  0  0  0  0  0
  1  2  2  0
  1  6  1  0
  1  7  1  0
  2  3  1  0
  2 22  1  0
  3  4  2  0
  3 23  1  0
  4  5  1  0
  4 24  1  0
  5  6  2  0
  5 25  1  0
  6 26  1  0
  7  8  1  0
  7 27  1  0
  7 28  1  0
  8  9  1  0
  9 10  2  0
  9 11  1  0
 11 12  1  0
 11 15  1  0
 12 13  1  0
 12 29  1  0
 12 30  1  0
 13 14  1  0
 13 31  1  0
 13 32  1  0
 14 15  1  0
 14 33  1  0
 14 34  1  0
 15 16  1  0
 16 17  2  0
 16 18  1  0
 18 19  1  0
 18 35  1  0
 19 20  1  0
 19 21  1  0
 19 36  1  0
 20 37  1  0
 20 38  1  0
 20 39  1  0
 21 40  1  0
 21 41  1  0
 21 42  1  0
M  END

