42
rmsd162.gzmat
C          0.00000        0.00000        0.00000
C          1.39590        0.00000        0.00000
C          2.08920        0.00000        1.20770
C          1.38980        0.00460        2.41440
C         -0.00430        0.00460        2.41320
C         -0.70090       -0.00060        1.20620
C         -0.73940       -0.03390       -1.30220
O         -0.68690       -1.38070       -1.78730
C          0.32730       -1.66730       -2.64680
O          1.02250       -0.83860       -3.18930
N          0.60190       -3.05180       -2.68910
C          1.28970       -3.54270       -3.91720
C          0.39870       -4.64280       -4.51710
C         -0.73390       -4.83790       -3.48980
N         -0.49860       -3.89080       -2.36290
C         -0.29230       -4.54090       -1.06580
O         -0.42150       -5.74470       -0.94790
N         -0.06610       -3.67980       -0.02970
C          0.01640       -4.17430        1.35450
C          1.33230       -3.67980        1.97220
C         -1.18840       -3.65070        2.15130
H          1.94160       -0.00150       -0.94750
H          3.17780       -0.00150        1.20810
H          1.93190        0.01120        3.35800
H         -0.54890        0.00920        3.35530
H         -1.78990       -0.00500        1.20850
H         -0.33640        0.68260       -2.04560
H         -1.83160        0.12580       -1.20060
H          2.27600       -3.94110       -3.58830
H          1.48770       -2.71590       -4.63120
H         -0.00140       -4.34960       -5.50160
H          0.96320       -5.57740       -4.67470
H         -1.72680       -4.57230       -3.91430
H         -0.79580       -5.89070       -3.13430
H         -0.06020       -2.67890       -0.17890
H          0.00150       -5.29990        1.33780
H          1.36350       -2.58470        2.03980
H          2.19400       -3.99250        1.36900
H          1.46570       -4.08150        2.98120
H         -1.19090       -2.55610        2.21020
H         -1.17990       -4.04250        3.17290
H         -2.13200       -3.95750        1.68230
