42
rmsd210.gzmat
C          0.00000        0.00000        0.00000
C          1.39560        0.00000        0.00000
C          2.08920        0.00000        1.20760
C          1.39020        0.00610        2.41430
C         -0.00380        0.00840        2.41330
C         -0.70050        0.00190        1.20660
C         -0.74270       -0.04220       -1.29980
O         -0.77630       -1.40810       -1.73100
C          0.26040       -1.80640       -2.51590
O          1.04450       -1.05460       -3.04920
N          0.43250       -3.20800       -2.48490
C          1.15230       -3.80150       -3.64690
C          0.18610       -4.80150       -4.30200
C         -0.98640       -4.92010       -3.30830
N         -0.74840       -3.94810       -2.20210
C         -0.67200       -4.55970       -0.87240
O         -0.89270       -5.74640       -0.72210
N         -0.45530       -3.67650        0.14660
C         -0.45970       -4.12710        1.54810
C          0.86700       -3.71070        2.20020
C         -1.64930       -3.48980        2.28300
H          1.94140       -0.00460       -0.94720
H          3.17770       -0.00280        1.20760
H          1.93290        0.01200        3.35760
H         -0.54790        0.01530        3.35540
H         -1.78910       -0.00330        1.20690
H         -0.29910        0.61380       -2.07480
H         -1.82290        0.18740       -1.20520
H          2.05390       -4.30740       -3.23410
H          1.50360       -3.01880       -4.35100
H         -0.15970       -4.44530       -5.28650
H          0.66960       -5.77710       -4.47510
H         -1.95320       -4.62770       -3.77250
H         -1.10190       -5.95870       -2.92600
H         -0.35380       -2.68670       -0.03620
H         -0.55910       -5.24840        1.56690
H          1.00130       -2.62160        2.19130
H          1.72150       -4.14710        1.66870
H          0.91390       -4.04400        3.24110
H         -1.55790       -2.39930        2.33380
H         -1.72280       -3.86860        3.30690
H         -2.59420       -3.71820        1.77450
