rmsd210.gzmat
 OpenBabel08211713403D

 42 43  0  0  0  0  0  0  0  0999 V2000
    0.0000    0.0000    0.0000 C   0  0  0  0  0  0  0  0  0  0  0  0
    1.3956    0.0000    0.0000 C   0  0  0  0  0  0  0  0  0  0  0  0
    2.0892    0.0000    1.2076 C   0  0  0  0  0  0  0  0  0  0  0  0
    1.3902    0.0061    2.4143 C   0  0  0  0  0  0  0  0  0  0  0  0
   -0.0038    0.0084    2.4133 C   0  0  0  0  0  0  0  0  0  0  0  0
   -0.7005    0.0019    1.2066 C   0  0  0  0  0  0  0  0  0  0  0  0
   -0.7427   -0.0422   -1.2998 C   0  0  0  0  0  0  0  0  0  0  0  0
   -0.7763   -1.4081   -1.7310 O   0  0  0  0  0  0  0  0  0  0  0  0
    0.2604   -1.8064   -2.5159 C   0  0  0  0  0  0  0  0  0  0  0  0
    1.0445   -1.0546   -3.0492 O   0  0  0  0  0  0  0  0  0  0  0  0
    0.4325   -3.2080   -2.4849 N   0  0  0  0  0  0  0  0  0  0  0  0
    1.1523   -3.8015   -3.6469 C   0  0  0  0  0  0  0  0  0  0  0  0
    0.1861   -4.8015   -4.3020 C   0  0  0  0  0  0  0  0  0  0  0  0
   -0.9864   -4.9201   -3.3083 C   0  0  0  0  0  0  0  0  0  0  0  0
   -0.7484   -3.9481   -2.2021 N   0  0  0  0  0  0  0  0  0  0  0  0
   -0.6720   -4.5597   -0.8724 C   0  0  0  0  0  0  0  0  0  0  0  0
   -0.8927   -5.7464   -0.7221 O   0  0  0  0  0  0  0  0  0  0  0  0
   -0.4553   -3.6765    0.1466 N   0  0  0  0  0  0  0  0  0  0  0  0
   -0.4597   -4.1271    1.5481 C   0  0  0  0  0  0  0  0  0  0  0  0
    0.8670   -3.7107    2.2002 C   0  0  0  0  0  0  0  0  0  0  0  0
   -1.6493   -3.4898    2.2830 C   0  0  0  0  0  0  0  0  0  0  0  0
    1.9414   -0.0046   -0.9472 H   0  0  0  0  0  0  0  0  0  0  0  0
    3.1777   -0.0028    1.2076 H   0  0  0  0  0  0  0  0  0  0  0  0
    1.9329    0.0120    3.3576 H   0  0  0  0  0  0  0  0  0  0  0  0
   -0.5479    0.0153    3.3554 H   0  0  0  0  0  0  0  0  0  0  0  0
   -1.7891   -0.0033    1.2069 H   0  0  0  0  0  0  0  0  0  0  0  0
   -0.2991    0.6138   -2.0748 H   0  0  0  0  0  0  0  0  0  0  0  0
   -1.8229    0.1874   -1.2052 H   0  0  0  0  0  0  0  0  0  0  0  0
    2.0539   -4.3074   -3.2341 H   0  0  0  0  0  0  0  0  0  0  0  0
    1.5036   -3.0188   -4.3510 H   0  0  0  0  0  0  0  0  0  0  0  0
   -0.1597   -4.4453   -5.2865 H   0  0  0  0  0  0  0  0  0  0  0  0
    0.6696   -5.7771   -4.4751 H   0  0  0  0  0  0  0  0  0  0  0  0
   -1.9532   -4.6277   -3.7725 H   0  0  0  0  0  0  0  0  0  0  0  0
   -1.1019   -5.9587   -2.9260 H   0  0  0  0  0  0  0  0  0  0  0  0
   -0.3538   -2.6867   -0.0362 H   0  0  0  0  0  0  0  0  0  0  0  0
   -0.5591   -5.2484    1.5669 H   0  0  0  0  0  0  0  0  0  0  0  0
    1.0013   -2.6216    2.1913 H   0  0  0  0  0  0  0  0  0  0  0  0
    1.7215   -4.1471    1.6687 H   0  0  0  0  0  0  0  0  0  0  0  0
    0.9139   -4.0440    3.2411 H   0  0  0  0  0  0  0  0  0  0  0  0
   -1.5579   -2.3993    2.3338 H   0  0  0  0  0  0  0  0  0  0  0  0
   -1.7228   -3.8686    3.3069 H   0  0  0  0  0  0  0  0  0  0  0  0
   -2.5942   -3.7182    1.7745 H   0  0  0  0  0  0  0  0  0  0  0  0
  1  2  2  0  0  0  0
  1  6  1  0  0  0  0
  2  3  1  0  0  0  0
  3 23  1  0  0  0  0
  3  4  2  0  0  0  0
  4 24  1  0  0  0  0
  5  4  1  0  0  0  0
  5 25  1  0  0  0  0
  6 26  1  0  0  0  0
  6  5  2  0  0  0  0
  7 28  1  0  0  0  0
  7  1  1  0  0  0  0
  8  7  1  0  0  0  0
  9 11  1  0  0  0  0
  9  8  1  0  0  0  0
 10  9  2  0  0  0  0
 11 15  1  0  0  0  0
 12 29  1  0  0  0  0
 12 11  1  0  0  0  0
 13 12  1  0  0  0  0
 13 14  1  0  0  0  0
 14 34  1  0  0  0  0
 14 15  1  0  0  0  0
 15 16  1  0  0  0  0
 16 17  2  0  0  0  0
 16 18  1  0  0  0  0
 18 19  1  0  0  0  0
 19 36  1  0  0  0  0
 19 20  1  0  0  0  0
 19 21  1  0  0  0  0
 20 39  1  0  0  0  0
 21 40  1  0  0  0  0
 21 41  1  0  0  0  0
 22  2  1  0  0  0  0
 27  7  1  0  0  0  0
 30 12  1  0  0  0  0
 31 13  1  0  0  0  0
 32 13  1  0  0  0  0
 33 14  1  0  0  0  0
 35 18  1  0  0  0  0
 37 20  1  0  0  0  0
 38 20  1  0  0  0  0
 42 21  1  0  0  0  0
M  END
$$$$
