rmsd185.gzmat
 OpenBabel08211713403D

 42 43  0  0  0  0  0  0  0  0999 V2000
    0.0000    0.0000    0.0000 C   0  0  0  0  0  0  0  0  0  0  0  0
    1.3948    0.0000    0.0000 C   0  0  0  0  0  0  0  0  0  0  0  0
    2.0885    0.0000    1.2089 C   0  0  0  0  0  0  0  0  0  0  0  0
    1.3899    0.0126    2.4147 C   0  0  0  0  0  0  0  0  0  0  0  0
   -0.0048    0.0173    2.4135 C   0  0  0  0  0  0  0  0  0  0  0  0
   -0.7006    0.0045    1.2076 C   0  0  0  0  0  0  0  0  0  0  0  0
   -0.7560    0.0266   -1.2930 C   0  0  0  0  0  0  0  0  0  0  0  0
   -1.2816    1.3499   -1.4509 O   0  0  0  0  0  0  0  0  0  0  0  0
   -2.5528    1.5433   -1.0081 C   0  0  0  0  0  0  0  0  0  0  0  0
   -3.3237    0.6535   -0.7282 O   0  0  0  0  0  0  0  0  0  0  0  0
   -2.8098    2.9038   -0.7274 N   0  0  0  0  0  0  0  0  0  0  0  0
   -4.2439    3.3092   -0.7424 C   0  0  0  0  0  0  0  0  0  0  0  0
   -4.3858    4.3873   -1.8288 C   0  0  0  0  0  0  0  0  0  0  0  0
   -2.9372    4.7558   -2.2037 C   0  0  0  0  0  0  0  0  0  0  0  0
   -2.0266    3.8264   -1.4743 N   0  0  0  0  0  0  0  0  0  0  0  0
   -1.0510    4.4999   -0.6124 C   0  0  0  0  0  0  0  0  0  0  0  0
   -0.9632    5.7132   -0.6059 O   0  0  0  0  0  0  0  0  0  0  0  0
   -0.2102    3.6584    0.0583 N   0  0  0  0  0  0  0  0  0  0  0  0
    0.8972    4.1895    0.8707 C   0  0  0  0  0  0  0  0  0  0  0  0
    0.7020    3.7380    2.3257 C   0  0  0  0  0  0  0  0  0  0  0  0
    2.2271    3.6633    0.3100 C   0  0  0  0  0  0  0  0  0  0  0  0
    1.9439    0.0011   -0.9401 H   0  0  0  0  0  0  0  0  0  0  0  0
    3.1766   -0.0104    1.2110 H   0  0  0  0  0  0  0  0  0  0  0  0
    1.9329    0.0152    3.3580 H   0  0  0  0  0  0  0  0  0  0  0  0
   -0.5510    0.0265    3.3554 H   0  0  0  0  0  0  0  0  0  0  0  0
   -1.7935   -0.0021    1.2045 H   0  0  0  0  0  0  0  0  0  0  0  0
   -1.5566   -0.7390   -1.3375 H   0  0  0  0  0  0  0  0  0  0  0  0
   -0.1124   -0.0690   -2.1900 H   0  0  0  0  0  0  0  0  0  0  0  0
   -4.4690    3.7106    0.2712 H   0  0  0  0  0  0  0  0  0  0  0  0
   -4.9116    2.4383   -0.9103 H   0  0  0  0  0  0  0  0  0  0  0  0
   -4.9403    4.0089   -2.7036 H   0  0  0  0  0  0  0  0  0  0  0  0
   -4.9425    5.2642   -1.4600 H   0  0  0  0  0  0  0  0  0  0  0  0
   -2.7356    4.5995   -3.2856 H   0  0  0  0  0  0  0  0  0  0  0  0
   -2.7085    5.8205   -1.9747 H   0  0  0  0  0  0  0  0  0  0  0  0
   -0.2864    2.6552   -0.0465 H   0  0  0  0  0  0  0  0  0  0  0  0
    0.8791    5.3140    0.8162 H   0  0  0  0  0  0  0  0  0  0  0  0
    0.7009    2.6445    2.4158 H   0  0  0  0  0  0  0  0  0  0  0  0
   -0.2542    4.0989    2.7247 H   0  0  0  0  0  0  0  0  0  0  0  0
    1.5007    4.1252    2.9656 H   0  0  0  0  0  0  0  0  0  0  0  0
    2.2898    2.5705    0.3728 H   0  0  0  0  0  0  0  0  0  0  0  0
    3.0761    4.0790    0.8612 H   0  0  0  0  0  0  0  0  0  0  0  0
    2.3443    3.9395   -0.7454 H   0  0  0  0  0  0  0  0  0  0  0  0
  1  2  2  0  0  0  0
  1  6  1  0  0  0  0
  2  3  1  0  0  0  0
  3 23  1  0  0  0  0
  3  4  2  0  0  0  0
  4 24  1  0  0  0  0
  5  4  1  0  0  0  0
  5 25  1  0  0  0  0
  6  5  2  0  0  0  0
  7  1  1  0  0  0  0
  8  7  1  0  0  0  0
  8  9  1  0  0  0  0
  9 10  2  0  0  0  0
  9 11  1  0  0  0  0
 12 11  1  0  0  0  0
 12 29  1  0  0  0  0
 13 32  1  0  0  0  0
 13 12  1  0  0  0  0
 14 34  1  0  0  0  0
 14 13  1  0  0  0  0
 14 15  1  0  0  0  0
 15 11  1  0  0  0  0
 15 16  1  0  0  0  0
 16 17  2  0  0  0  0
 16 18  1  0  0  0  0
 18 19  1  0  0  0  0
 19 20  1  0  0  0  0
 20 37  1  0  0  0  0
 20 38  1  0  0  0  0
 20 39  1  0  0  0  0
 21 40  1  0  0  0  0
 21 41  1  0  0  0  0
 21 19  1  0  0  0  0
 22  2  1  0  0  0  0
 26  6  1  0  0  0  0
 27  7  1  0  0  0  0
 28  7  1  0  0  0  0
 30 12  1  0  0  0  0
 31 13  1  0  0  0  0
 33 14  1  0  0  0  0
 35 18  1  0  0  0  0
 36 19  1  0  0  0  0
 42 21  1  0  0  0  0
M  END
$$$$
