42
rmsd14.gzmat
C          0.00000        0.00000        0.00000
C          1.39480        0.00000        0.00000
C          2.08850        0.00000        1.20880
C          1.38970        0.01310        2.41440
C         -0.00510        0.01520        2.41320
C         -0.70120        0.00360        1.20730
C         -0.75410        0.03610       -1.29370
O         -1.26040        1.36740       -1.44800
C         -2.53090        1.57560       -1.01160
O         -3.31780        0.69660       -0.74280
N         -2.76760        2.93770       -0.72330
C         -4.19460        3.36810       -0.74110
C         -4.30090        4.51480       -1.75950
C         -2.84840        4.79240       -2.19460
N         -1.96070        3.85260       -1.45240
C         -0.98460        4.50960       -0.58170
O         -0.84390        5.71770       -0.61760
N         -0.20500        3.66170        0.15400
C          0.92720        4.17800        0.94230
C          0.77150        3.69510        2.39150
C          2.24100        3.66620        0.33330
H          1.94350        0.00250       -0.94050
H          3.17660       -0.00820        1.21110
H          1.93350        0.01760        3.35690
H         -0.55100        0.02360        3.35500
H         -1.79410       -0.00160        1.20400
H         -1.56530       -0.71800       -1.34140
H         -0.11070       -0.06700       -2.19020
H         -4.43410        3.70640        0.29190
H         -4.87220        2.52130       -0.97790
H         -4.93010        4.23610       -2.62070
H         -4.76310        5.41040       -1.31130
H         -2.69190        4.57830       -3.27420
H         -2.55840        5.85290       -2.02180
H         -0.30380        2.65850        0.06590
H          0.90730        5.30310        0.91180
H          0.79560        2.60040        2.45920
H         -0.18400        4.02790        2.81620
H          1.57410        4.08670        3.02340
H          2.29920        2.57170        0.35890
H          3.10500        4.06030        0.87650
H          2.33430        3.97660       -0.71470
