rmsd184.gzmat
 OpenBabel08211713403D

 42 43  0  0  0  0  0  0  0  0999 V2000
    0.0000    0.0000    0.0000 C   0  0  0  0  0  0  0  0  0  0  0  0
    1.3948    0.0000    0.0000 C   0  0  0  0  0  0  0  0  0  0  0  0
    2.0882    0.0000    1.2088 C   0  0  0  0  0  0  0  0  0  0  0  0
    1.3894    0.0101    2.4149 C   0  0  0  0  0  0  0  0  0  0  0  0
   -0.0051    0.0169    2.4134 C   0  0  0  0  0  0  0  0  0  0  0  0
   -0.7007    0.0078    1.2072 C   0  0  0  0  0  0  0  0  0  0  0  0
   -0.7541    0.0282   -1.2939 C   0  0  0  0  0  0  0  0  0  0  0  0
   -1.1596    1.3834   -1.5221 O   0  0  0  0  0  0  0  0  0  0  0  0
   -2.3871    1.7223   -1.0434 C   0  0  0  0  0  0  0  0  0  0  0  0
   -3.2274    0.9281   -0.6855 O   0  0  0  0  0  0  0  0  0  0  0  0
   -2.5027    3.1124   -0.8341 N   0  0  0  0  0  0  0  0  0  0  0  0
   -3.8922    3.6528   -0.7889 C   0  0  0  0  0  0  0  0  0  0  0  0
   -3.9437    4.8304   -1.7761 C   0  0  0  0  0  0  0  0  0  0  0  0
   -2.5363    4.8789   -2.4037 C   0  0  0  0  0  0  0  0  0  0  0  0
   -1.6728    3.9186   -1.6606 N   0  0  0  0  0  0  0  0  0  0  0  0
   -0.6182    4.5536   -0.8621 C   0  0  0  0  0  0  0  0  0  0  0  0
   -0.4408    5.7561   -0.9073 O   0  0  0  0  0  0  0  0  0  0  0  0
    0.1816    3.6760   -0.1880 N   0  0  0  0  0  0  0  0  0  0  0  0
    1.3373    4.1523    0.5899 C   0  0  0  0  0  0  0  0  0  0  0  0
    1.1684    3.7008    2.0479 C   0  0  0  0  0  0  0  0  0  0  0  0
    2.6244    3.5715   -0.0153 C   0  0  0  0  0  0  0  0  0  0  0  0
    1.9431    0.0005   -0.9406 H   0  0  0  0  0  0  0  0  0  0  0  0
    3.1761   -0.0092    1.2113 H   0  0  0  0  0  0  0  0  0  0  0  0
    1.9327    0.0103    3.3578 H   0  0  0  0  0  0  0  0  0  0  0  0
   -0.5510    0.0266    3.3553 H   0  0  0  0  0  0  0  0  0  0  0  0
   -1.7939    0.0106    1.2036 H   0  0  0  0  0  0  0  0  0  0  0  0
   -1.6220   -0.6611   -1.3034 H   0  0  0  0  0  0  0  0  0  0  0  0
   -0.1239   -0.1705   -2.1835 H   0  0  0  0  0  0  0  0  0  0  0  0
   -4.0685    3.9808    0.2600 H   0  0  0  0  0  0  0  0  0  0  0  0
   -4.6425    2.8684   -1.0215 H   0  0  0  0  0  0  0  0  0  0  0  0
   -4.7221    4.6891   -2.5426 H   0  0  0  0  0  0  0  0  0  0  0  0
   -4.1808    5.7764   -1.2590 H   0  0  0  0  0  0  0  0  0  0  0  0
   -2.5455    4.5347   -3.4610 H   0  0  0  0  0  0  0  0  0  0  0  0
   -2.1085    5.9056   -2.3908 H   0  0  0  0  0  0  0  0  0  0  0  0
    0.0227    2.6785   -0.2454 H   0  0  0  0  0  0  0  0  0  0  0  0
    1.3681    5.2767    0.5410 H   0  0  0  0  0  0  0  0  0  0  0  0
    1.1484    2.6073    2.1362 H   0  0  0  0  0  0  0  0  0  0  0  0
    0.2284    4.0771    2.4708 H   0  0  0  0  0  0  0  0  0  0  0  0
    1.9885    4.0710    2.6705 H   0  0  0  0  0  0  0  0  0  0  0  0
    2.6272    2.4757    0.0102 H   0  0  0  0  0  0  0  0  0  0  0  0
    3.5054    3.9215    0.5312 H   0  0  0  0  0  0  0  0  0  0  0  0
    2.7362    3.8766   -1.0635 H   0  0  0  0  0  0  0  0  0  0  0  0
  1  6  1  0  0  0  0
  2  1  2  0  0  0  0
  2  3  1  0  0  0  0
  3 23  1  0  0  0  0
  3  4  2  0  0  0  0
  4 24  1  0  0  0  0
  5  4  1  0  0  0  0
  5 25  1  0  0  0  0
  6  5  2  0  0  0  0
  7  1  1  0  0  0  0
  8  7  1  0  0  0  0
  8  9  1  0  0  0  0
  9 11  1  0  0  0  0
  9 10  2  0  0  0  0
 11 12  1  0  0  0  0
 12 29  1  0  0  0  0
 13 32  1  0  0  0  0
 13 12  1  0  0  0  0
 14 34  1  0  0  0  0
 14 13  1  0  0  0  0
 14 15  1  0  0  0  0
 15 16  1  0  0  0  0
 15 11  1  0  0  0  0
 16 18  1  0  0  0  0
 17 16  2  0  0  0  0
 18 19  1  0  0  0  0
 19 20  1  0  0  0  0
 20 37  1  0  0  0  0
 20 38  1  0  0  0  0
 20 39  1  0  0  0  0
 21 40  1  0  0  0  0
 21 41  1  0  0  0  0
 21 19  1  0  0  0  0
 22  2  1  0  0  0  0
 26  6  1  0  0  0  0
 27  7  1  0  0  0  0
 28  7  1  0  0  0  0
 30 12  1  0  0  0  0
 31 13  1  0  0  0  0
 33 14  1  0  0  0  0
 35 18  1  0  0  0  0
 36 19  1  0  0  0  0
 42 21  1  0  0  0  0
M  END
$$$$
