42
rmsd132.gzmat
C          0.00000        0.00000        0.00000
C          1.39580        0.00000        0.00000
C          2.08990        0.00000        1.20710
C          1.39090        0.01070        2.41390
C         -0.00280        0.01370        2.41320
C         -0.70010        0.00450        1.20650
C         -0.73890       -0.04320       -1.30260
O         -0.65720       -1.38580       -1.79540
C          0.37840       -1.65100       -2.63680
O          1.05470       -0.80750       -3.18040
N          0.69810       -3.02600       -2.65350
C          1.45340       -3.50380       -3.84710
C          0.65630       -4.67780       -4.43850
C         -0.54480       -4.85870       -3.48990
N         -0.38600       -3.89730       -2.36200
C         -0.22240       -4.53050       -1.05140
O         -0.34410       -5.73480       -0.92860
N         -0.04770       -3.66030       -0.01290
C         -0.06350       -4.14030        1.37930
C          1.21640       -3.65800        2.07650
C         -1.31110       -3.58930        2.08730
H          1.94150       -0.00250       -0.94710
H          3.17850       -0.00640        1.20730
H          1.93400        0.01700        3.35680
H         -0.54640        0.02030        3.35550
H         -1.78890        0.00040        1.20960
H         -0.35180        0.68540       -2.04260
H         -1.83430        0.09090       -1.19970
H          2.45380       -3.82360       -3.47840
H          1.61720       -2.68670       -4.58100
H          0.32530       -4.46870       -5.46840
H          1.26830       -5.59460       -4.48610
H         -1.50560       -4.59770       -3.98470
H         -0.63220       -5.90650       -3.12580
H         -0.04340       -2.66030       -0.16940
H         -0.09530       -5.26540        1.37530
H          1.28440       -2.56280        2.08870
H          2.10970       -4.03300        1.56220
H          1.25340       -4.00690        3.11270
H         -1.29410       -2.49510        2.14510
H         -1.38570       -3.97780        3.10720
H         -2.22480       -3.87760        1.55230
