rmsd234.gzmat
 OpenBabel08211713383D

 40 43  0  0  0  0  0  0  0  0999 V2000
    0.0000    0.0000    0.0000 S   0  0  0  0  0  0  0  0  0  0  0  0
    1.8331    0.0000    0.0000 C   0  0  0  0  0  0  0  0  0  0  0  0
    2.3530    0.0000    1.3716 C   0  0  0  0  0  0  0  0  0  0  0  0
    1.7310    0.6924    2.4153 N   0  0  0  0  0  0  0  0  0  0  0  0
    2.4190    0.5634    3.5752 N   0  0  0  0  0  0  0  0  0  0  0  0
    3.4930   -0.2146    3.2960 C   0  0  0  0  0  0  0  0  0  0  0  0
    3.4954   -0.6001    1.9144 C   0  0  0  0  0  0  0  0  0  0  0  0
    4.4640   -1.4239    1.2254 C   0  0  0  0  0  0  0  0  0  0  0  0
    5.0126   -0.9895    0.0137 C   0  0  0  0  0  0  0  0  0  0  0  0
    5.9387   -1.7855   -0.6547 C   0  0  0  0  0  0  0  0  0  0  0  0
    6.3200   -3.0149   -0.1187 C   0  0  0  0  0  0  0  0  0  0  0  0
    5.7745   -3.4481    1.0886 C   0  0  0  0  0  0  0  0  0  0  0  0
    4.8484   -2.6561    1.7626 C   0  0  0  0  0  0  0  0  0  0  0  0
    4.4879   -0.5682    4.3195 C   0  0  0  0  0  0  0  0  0  0  0  0
    4.8795   -1.6752    4.5873 O   0  0  0  0  0  0  0  0  0  0  0  0
    4.9444    0.5555    4.9156 O   0  0  0  0  0  0  0  0  0  0  0  0
    5.8970    0.3879    5.9706 C   0  0  0  0  0  0  0  0  0  0  0  0
    5.1848   -0.0480    7.2397 C   0  0  0  0  0  0  0  0  0  0  0  0
    0.4942    1.3816    2.3637 C   0  0  0  0  0  0  0  0  0  0  0  0
    0.1411    2.2690    3.3883 C   0  0  0  0  0  0  0  0  0  0  0  0
   -1.0808    2.9291    3.3247 C   0  0  0  0  0  0  0  0  0  0  0  0
   -1.9396    2.7155    2.2469 C   0  0  0  0  0  0  0  0  0  0  0  0
   -1.5835    1.8381    1.2250 C   0  0  0  0  0  0  0  0  0  0  0  0
   -0.3673    1.1603    1.2776 C   0  0  0  0  0  0  0  0  0  0  0  0
    2.2150    0.8700   -0.5793 H   0  0  0  0  0  0  0  0  0  0  0  0
    2.1679   -0.9079   -0.5566 H   0  0  0  0  0  0  0  0  0  0  0  0
    4.7273   -0.0232   -0.3959 H   0  0  0  0  0  0  0  0  0  0  0  0
    6.3681   -1.4450   -1.5939 H   0  0  0  0  0  0  0  0  0  0  0  0
    7.0458   -3.6341   -0.6404 H   0  0  0  0  0  0  0  0  0  0  0  0
    6.0738   -4.4058    1.5106 H   0  0  0  0  0  0  0  0  0  0  0  0
    4.4274   -2.9926    2.7136 H   0  0  0  0  0  0  0  0  0  0  0  0
    6.3155    1.4100    6.0418 H   0  0  0  0  0  0  0  0  0  0  0  0
    6.6816   -0.3246    5.6579 H   0  0  0  0  0  0  0  0  0  0  0  0
    4.3365    0.6111    7.4678 H   0  0  0  0  0  0  0  0  0  0  0  0
    5.8597   -0.0423    8.1020 H   0  0  0  0  0  0  0  0  0  0  0  0
    4.7836   -1.0674    7.1364 H   0  0  0  0  0  0  0  0  0  0  0  0
    0.8216    2.4285    4.2306 H   0  0  0  0  0  0  0  0  0  0  0  0
   -1.3670    3.6156    4.1218 H   0  0  0  0  0  0  0  0  0  0  0  0
   -2.8941    3.2385    2.2011 H   0  0  0  0  0  0  0  0  0  0  0  0
   -2.2687    1.6916    0.3871 H   0  0  0  0  0  0  0  0  0  0  0  0
  1 24  1  0  0  0  0
  2  1  1  0  0  0  0
  2  3  1  0  0  0  0
  3  7  2  0  0  0  0
  3  4  1  0  0  0  0
  4  5  1  0  0  0  0
  6  5  2  0  0  0  0
  6 14  1  0  0  0  0
  7  6  1  0  0  0  0
  8 13  1  0  0  0  0
  8  7  1  0  0  0  0
  9  8  2  0  0  0  0
 10 11  2  0  0  0  0
 10  9  1  0  0  0  0
 11 12  1  0  0  0  0
 12 30  1  0  0  0  0
 12 13  2  0  0  0  0
 13 31  1  0  0  0  0
 14 15  2  0  0  0  0
 14 16  1  0  0  0  0
 16 17  1  0  0  0  0
 17 32  1  0  0  0  0
 17 18  1  0  0  0  0
 18 34  1  0  0  0  0
 18 35  1  0  0  0  0
 19  4  1  0  0  0  0
 19 20  2  0  0  0  0
 20 37  1  0  0  0  0
 21 20  1  0  0  0  0
 21 38  1  0  0  0  0
 22 21  2  0  0  0  0
 23 24  2  0  0  0  0
 23 22  1  0  0  0  0
 24 19  1  0  0  0  0
 25  2  1  0  0  0  0
 26  2  1  0  0  0  0
 27  9  1  0  0  0  0
 28 10  1  0  0  0  0
 29 11  1  0  0  0  0
 33 17  1  0  0  0  0
 36 18  1  0  0  0  0
 39 22  1  0  0  0  0
 40 23  1  0  0  0  0
M  END
$$$$
