40
rmsd49.gzmat
S          0.00000        0.00000        0.00000
C          1.83260        0.00000        0.00000
C          2.34940        0.00000        1.37260
N          1.73210        0.70870        2.40880
N          2.42340        0.59400        3.56970
C          3.50350       -0.17350        3.29190
C          3.49970       -0.58050        1.91700
C          4.47720       -1.41410        1.25220
C          5.83100       -1.06720        1.29200
C          6.77040       -1.86910        0.64910
C          6.36430       -3.01790       -0.02750
C          5.01510       -3.36870       -0.06010
C          4.07010       -2.57000        0.57830
C          4.51040       -0.51440        4.30900
O          5.68850       -0.27060        4.26140
O          3.91730       -1.19460        5.31440
C          4.74830       -1.59160        6.40940
C          4.98410       -0.40620        7.32920
C          0.49780        1.40070        2.35190
C          0.14890        2.29970        3.36800
C         -1.07050        2.96350        3.29790
C         -1.93300        2.73870        2.22510
C         -1.58110        1.84880        1.21240
C         -0.36570        1.17020        1.26910
H          2.21860        0.87200       -0.57540
H          2.17100       -0.90120       -0.56270
H          6.14720       -0.17420        1.83690
H          7.82390       -1.59800        0.68120
H          7.10060       -3.64460       -0.52550
H          4.70050       -4.27010       -0.58100
H          3.01910       -2.85260        0.57030
H          5.68870       -2.02820        6.02850
H          4.12320       -2.37760        6.87440
H          5.60520        0.35860        6.84010
H          5.49320       -0.70710        8.25000
H          4.03810        0.07600        7.60660
H          0.82970        2.46400        4.20940
H         -1.35210        3.66250        4.08590
H         -2.88670        3.26260        2.17630
H         -2.26900        1.69350        0.37790
