rmsd143.gzmat
 OpenBabel08211713383D

 40 43  0  0  0  0  0  0  0  0999 V2000
    0.0000    0.0000    0.0000 S   0  0  0  0  0  0  0  0  0  0  0  0
    1.8326    0.0000    0.0000 C   0  0  0  0  0  0  0  0  0  0  0  0
    2.3497    0.0000    1.3727 C   0  0  0  0  0  0  0  0  0  0  0  0
    1.7384    0.7233    2.4029 N   0  0  0  0  0  0  0  0  0  0  0  0
    2.4298    0.6150    3.5637 N   0  0  0  0  0  0  0  0  0  0  0  0
    3.5045   -0.1630    3.2926 C   0  0  0  0  0  0  0  0  0  0  0  0
    3.4957   -0.5847    1.9225 C   0  0  0  0  0  0  0  0  0  0  0  0
    4.4602   -1.4394    1.2651 C   0  0  0  0  0  0  0  0  0  0  0  0
    5.8193   -1.1127    1.2859 C   0  0  0  0  0  0  0  0  0  0  0  0
    6.7379   -1.9311    0.6334 C   0  0  0  0  0  0  0  0  0  0  0  0
    6.3058   -3.0777   -0.0308 C   0  0  0  0  0  0  0  0  0  0  0  0
    4.9528   -3.4143   -0.0349 C   0  0  0  0  0  0  0  0  0  0  0  0
    4.0292   -2.5989    0.6127 C   0  0  0  0  0  0  0  0  0  0  0  0
    4.5118   -0.4944    4.3113 C   0  0  0  0  0  0  0  0  0  0  0  0
    5.7008   -0.3246    4.2226 O   0  0  0  0  0  0  0  0  0  0  0  0
    3.9053   -1.0640    5.3757 O   0  0  0  0  0  0  0  0  0  0  0  0
    4.7391   -1.4202    6.4826 C   0  0  0  0  0  0  0  0  0  0  0  0
    5.0861   -0.1776    7.2843 C   0  0  0  0  0  0  0  0  0  0  0  0
    0.5035    1.4145    2.3435 C   0  0  0  0  0  0  0  0  0  0  0  0
    0.1561    2.3194    3.3546 C   0  0  0  0  0  0  0  0  0  0  0  0
   -1.0654    2.9795    3.2852 C   0  0  0  0  0  0  0  0  0  0  0  0
   -1.9309    2.7462    2.2168 C   0  0  0  0  0  0  0  0  0  0  0  0
   -1.5798    1.8521    1.2077 C   0  0  0  0  0  0  0  0  0  0  0  0
   -0.3629    1.1760    1.2649 C   0  0  0  0  0  0  0  0  0  0  0  0
    2.2185    0.8736   -0.5732 H   0  0  0  0  0  0  0  0  0  0  0  0
    2.1702   -0.8995   -0.5652 H   0  0  0  0  0  0  0  0  0  0  0  0
    6.1575   -0.2236    1.8236 H   0  0  0  0  0  0  0  0  0  0  0  0
    7.7955   -1.6747    0.6473 H   0  0  0  0  0  0  0  0  0  0  0  0
    7.0249   -3.7138   -0.5413 H   0  0  0  0  0  0  0  0  0  0  0  0
    4.6189   -4.3170   -0.5415 H   0  0  0  0  0  0  0  0  0  0  0  0
    2.9753   -2.8699    0.6290 H   0  0  0  0  0  0  0  0  0  0  0  0
    5.6342   -1.9556    6.1192 H   0  0  0  0  0  0  0  0  0  0  0  0
    4.0753   -2.1143    7.0323 H   0  0  0  0  0  0  0  0  0  0  0  0
    5.7641    0.4803    6.7215 H   0  0  0  0  0  0  0  0  0  0  0  0
    5.5783   -0.4317    8.2282 H   0  0  0  0  0  0  0  0  0  0  0  0
    4.1874    0.4078    7.5188 H   0  0  0  0  0  0  0  0  0  0  0  0
    0.8396    2.4906    4.1923 H   0  0  0  0  0  0  0  0  0  0  0  0
   -1.3463    3.6817    4.0706 H   0  0  0  0  0  0  0  0  0  0  0  0
   -2.8863    3.2670    2.1686 H   0  0  0  0  0  0  0  0  0  0  0  0
   -2.2691    1.6911    0.3756 H   0  0  0  0  0  0  0  0  0  0  0  0
  1 24  1  0  0  0  0
  2  1  1  0  0  0  0
  2  3  1  0  0  0  0
  3  7  2  0  0  0  0
  3  4  1  0  0  0  0
  4  5  1  0  0  0  0
  6  5  2  0  0  0  0
  6 14  1  0  0  0  0
  7  6  1  0  0  0  0
  8  9  1  0  0  0  0
  8  7  1  0  0  0  0
  9 27  1  0  0  0  0
 10 28  1  0  0  0  0
 10  9  2  0  0  0  0
 11 10  1  0  0  0  0
 12 11  2  0  0  0  0
 12 13  1  0  0  0  0
 13 31  1  0  0  0  0
 13  8  2  0  0  0  0
 14 16  1  0  0  0  0
 15 14  2  0  0  0  0
 16 17  1  0  0  0  0
 17 33  1  0  0  0  0
 17 18  1  0  0  0  0
 18 36  1  0  0  0  0
 18 35  1  0  0  0  0
 19  4  1  0  0  0  0
 19 20  2  0  0  0  0
 20 37  1  0  0  0  0
 21 20  1  0  0  0  0
 21 38  1  0  0  0  0
 22 21  2  0  0  0  0
 23 24  2  0  0  0  0
 23 22  1  0  0  0  0
 24 19  1  0  0  0  0
 25  2  1  0  0  0  0
 26  2  1  0  0  0  0
 29 11  1  0  0  0  0
 30 12  1  0  0  0  0
 32 17  1  0  0  0  0
 34 18  1  0  0  0  0
 39 22  1  0  0  0  0
 40 23  1  0  0  0  0
M  END
$$$$
