rmsd83.gzmat
 OpenBabel08211713383D

 40 43  0  0  0  0  0  0  0  0999 V2000
    0.0000    0.0000    0.0000 S   0  0  0  0  0  0  0  0  0  0  0  0
    1.8321    0.0000    0.0000 C   0  0  0  0  0  0  0  0  0  0  0  0
    2.3529    0.0000    1.3711 C   0  0  0  0  0  0  0  0  0  0  0  0
    1.7429    0.7138    2.4079 N   0  0  0  0  0  0  0  0  0  0  0  0
    2.4473    0.6106    3.5623 N   0  0  0  0  0  0  0  0  0  0  0  0
    3.5278   -0.1547    3.2794 C   0  0  0  0  0  0  0  0  0  0  0  0
    3.5090   -0.5758    1.9088 C   0  0  0  0  0  0  0  0  0  0  0  0
    4.4704   -1.4283    1.2445 C   0  0  0  0  0  0  0  0  0  0  0  0
    5.8318   -1.1130    1.2804 C   0  0  0  0  0  0  0  0  0  0  0  0
    6.7521   -1.9436    0.6462 C   0  0  0  0  0  0  0  0  0  0  0  0
    6.3189   -3.0878   -0.0216 C   0  0  0  0  0  0  0  0  0  0  0  0
    4.9613   -3.4043   -0.0550 C   0  0  0  0  0  0  0  0  0  0  0  0
    4.0359   -2.5783    0.5767 C   0  0  0  0  0  0  0  0  0  0  0  0
    4.5572   -0.4693    4.2827 C   0  0  0  0  0  0  0  0  0  0  0  0
    5.7317   -0.2156    4.2038 O   0  0  0  0  0  0  0  0  0  0  0  0
    3.9952   -1.1323    5.3162 O   0  0  0  0  0  0  0  0  0  0  0  0
    4.8576   -1.4966    6.3988 C   0  0  0  0  0  0  0  0  0  0  0  0
    5.1352   -0.2817    7.2666 C   0  0  0  0  0  0  0  0  0  0  0  0
    0.4976    1.3876    2.3623 C   0  0  0  0  0  0  0  0  0  0  0  0
    0.1397    2.2713    3.3888 C   0  0  0  0  0  0  0  0  0  0  0  0
   -1.0920    2.9134    3.3346 C   0  0  0  0  0  0  0  0  0  0  0  0
   -1.9579    2.6842    2.2655 C   0  0  0  0  0  0  0  0  0  0  0  0
   -1.5971    1.8118    1.2411 C   0  0  0  0  0  0  0  0  0  0  0  0
   -0.3699    1.1529    1.2833 C   0  0  0  0  0  0  0  0  0  0  0  0
    2.2189    0.8728   -0.5740 H   0  0  0  0  0  0  0  0  0  0  0  0
    2.1699   -0.8997   -0.5650 H   0  0  0  0  0  0  0  0  0  0  0  0
    6.1700   -0.2220    1.8151 H   0  0  0  0  0  0  0  0  0  0  0  0
    7.8121   -1.6985    0.6783 H   0  0  0  0  0  0  0  0  0  0  0  0
    7.0405   -3.7372   -0.5117 H   0  0  0  0  0  0  0  0  0  0  0  0
    4.6241   -4.3010   -0.5697 H   0  0  0  0  0  0  0  0  0  0  0  0
    2.9785   -2.8360    0.5699 H   0  0  0  0  0  0  0  0  0  0  0  0
    5.7815   -1.9548    6.0039 H   0  0  0  0  0  0  0  0  0  0  0  0
    4.2426   -2.2607    6.9104 H   0  0  0  0  0  0  0  0  0  0  0  0
    5.7819    0.4384    6.7439 H   0  0  0  0  0  0  0  0  0  0  0  0
    5.6344   -0.5595    8.2005 H   0  0  0  0  0  0  0  0  0  0  0  0
    4.2072    0.2462    7.5224 H   0  0  0  0  0  0  0  0  0  0  0  0
    0.8229    2.4405    4.2268 H   0  0  0  0  0  0  0  0  0  0  0  0
   -1.3801    3.5983    4.1325 H   0  0  0  0  0  0  0  0  0  0  0  0
   -2.9213    3.1909    2.2289 H   0  0  0  0  0  0  0  0  0  0  0  0
   -2.2881    1.6543    0.4093 H   0  0  0  0  0  0  0  0  0  0  0  0
  1 24  1  0  0  0  0
  2  1  1  0  0  0  0
  2  3  1  0  0  0  0
  3  7  2  0  0  0  0
  3  4  1  0  0  0  0
  4  5  1  0  0  0  0
  6  5  2  0  0  0  0
  6 14  1  0  0  0  0
  7  6  1  0  0  0  0
  8  9  1  0  0  0  0
  8  7  1  0  0  0  0
  9 27  1  0  0  0  0
 10 28  1  0  0  0  0
 10  9  2  0  0  0  0
 11 10  1  0  0  0  0
 12 11  2  0  0  0  0
 12 13  1  0  0  0  0
 13  8  2  0  0  0  0
 14 16  1  0  0  0  0
 15 14  2  0  0  0  0
 16 17  1  0  0  0  0
 17 33  1  0  0  0  0
 17 18  1  0  0  0  0
 18 36  1  0  0  0  0
 18 35  1  0  0  0  0
 19  4  1  0  0  0  0
 19 20  2  0  0  0  0
 20 37  1  0  0  0  0
 21 20  1  0  0  0  0
 21 38  1  0  0  0  0
 22 21  2  0  0  0  0
 23 24  2  0  0  0  0
 23 22  1  0  0  0  0
 24 19  1  0  0  0  0
 25  2  1  0  0  0  0
 26  2  1  0  0  0  0
 29 11  1  0  0  0  0
 30 12  1  0  0  0  0
 31 13  1  0  0  0  0
 32 17  1  0  0  0  0
 34 18  1  0  0  0  0
 39 22  1  0  0  0  0
 40 23  1  0  0  0  0
M  END
$$$$
