40
rmsd234.gzmat
S          0.00000        0.00000        0.00000
C          1.83310        0.00000        0.00000
C          2.35300        0.00000        1.37160
N          1.73100        0.69240        2.41530
N          2.41900        0.56340        3.57520
C          3.49300       -0.21460        3.29600
C          3.49540       -0.60010        1.91440
C          4.46400       -1.42390        1.22540
C          5.01260       -0.98950        0.01370
C          5.93870       -1.78550       -0.65470
C          6.32000       -3.01490       -0.11870
C          5.77450       -3.44810        1.08860
C          4.84840       -2.65610        1.76260
C          4.48790       -0.56820        4.31950
O          4.87950       -1.67520        4.58730
O          4.94440        0.55550        4.91560
C          5.89700        0.38790        5.97060
C          5.18480       -0.04800        7.23970
C          0.49420        1.38160        2.36370
C          0.14110        2.26900        3.38830
C         -1.08080        2.92910        3.32470
C         -1.93960        2.71550        2.24690
C         -1.58350        1.83810        1.22500
C         -0.36730        1.16030        1.27760
H          2.21500        0.87000       -0.57930
H          2.16790       -0.90790       -0.55660
H          4.72730       -0.02320       -0.39590
H          6.36810       -1.44500       -1.59390
H          7.04580       -3.63410       -0.64040
H          6.07380       -4.40580        1.51060
H          4.42740       -2.99260        2.71360
H          6.31550        1.41000        6.04180
H          6.68160       -0.32460        5.65790
H          4.33650        0.61110        7.46780
H          5.85970       -0.04230        8.10200
H          4.78360       -1.06740        7.13640
H          0.82160        2.42850        4.23060
H         -1.36700        3.61560        4.12180
H         -2.89410        3.23850        2.20110
H         -2.26870        1.69160        0.38710
