40
rmsd102.gzmat
S          0.00000        0.00000        0.00000
C          1.83250        0.00000        0.00000
C          2.35070        0.00000        1.37220
N          1.73820        0.71820        2.40520
N          2.43560        0.61460        3.56260
C          3.51520       -0.15610        3.28730
C          3.50260       -0.57780        1.91640
C          4.46690       -1.42810        1.25260
C          5.82480       -1.09590        1.26680
C          6.74620       -1.91830        0.62310
C          6.31770       -3.07240       -0.03050
C          4.96460       -3.40930       -0.03660
C          4.03840       -2.59070        0.60380
C          4.53490       -0.47280        4.29810
O          5.72600       -0.34310        4.17260
O          3.94230       -0.96990        5.40600
C          4.79810       -1.29240        6.50690
C          5.24570       -0.01920        7.20490
C          0.50060        1.40530        2.34910
C          0.15000        2.30460        3.36430
C         -1.07260        2.96290        3.29730
C         -1.93740        2.73270        2.22750
C         -1.58480        1.84260        1.21550
C         -0.36600        1.16930        1.26920
H          2.21950        0.87360       -0.57270
H          2.17000       -0.89910       -0.56620
H          6.16040       -0.19960        1.79390
H          7.80340       -1.65990        0.63760
H          7.03960       -3.71380       -0.53040
H          4.63230       -4.31570       -0.53730
H          2.98490       -2.86360        0.61760
H          5.64740       -1.90310        6.15110
H          4.11860       -1.90690        7.12890
H          5.91690        0.57010        6.56200
H          5.78390       -0.23710        8.13310
H          4.38930        0.62260        7.45180
H          0.83250        2.47330        4.20330
H         -1.35470        3.66140        4.08550
H         -2.89330        3.25270        2.18070
H         -2.27480        1.68290        0.38370
