40

S         -0.08560       -0.33340        0.28000
C          1.73090       -0.16570        0.08360
C          2.39560       -0.01600        1.40680
N          1.83790        0.76880        2.38680
N          2.58190        0.81070        3.49630
C          3.63650        0.03470        3.24920
C          3.58010       -0.52550        1.92670
C          4.51100       -1.41170        1.20190
C          4.88200       -1.10320       -0.11960
C          5.71760       -1.95290       -0.84780
C          6.19950       -3.12650       -0.26440
C          5.84290       -3.44010        1.05120
C          5.00850       -2.59300        1.77910
C          4.70410       -0.13320        4.26520
O          5.62490       -0.91380        4.16120
O          4.53440        0.68590        5.31330
C          5.49230        0.58490        6.37920
C          5.15510       -0.55290        7.32730
C          0.60500        1.45750        2.30380
C          0.33900        2.51360        3.18180
C         -0.89030        3.16760        3.12790
C         -1.85130        2.77790        2.18880
C         -1.57950        1.73670        1.30160
C         -0.35330        1.05850        1.34950
H          1.94020        0.69080       -0.57930
H          2.08370       -1.07670       -0.41740
H          4.53170       -0.17240       -0.57140
H          5.99930       -1.69120       -1.87060
H          6.85560       -3.79250       -0.82990
H          6.21960       -4.35430        1.51620
H          4.74370       -2.83770        2.80660
H          5.44260        1.55800        6.88810
H          6.49620        0.45310        5.94910
H          4.13210       -0.44430        7.71910
H          5.85470       -0.55320        8.17830
H          5.23850       -1.52190        6.81430
H          1.10630        2.78730        3.90560
H         -1.09580        3.98810        3.81850
H         -2.81330        3.29260        2.13920
H         -2.32000        1.43660        0.55710
