40
rmsd131.gzmat
S          0.00000        0.00000        0.00000
C          1.83220        0.00000        0.00000
C          2.34560        0.00000        1.37400
N          1.73560        0.72440        2.40370
N          2.42800        0.61600        3.56430
C          3.50130       -0.16480        3.29360
C          3.48940       -0.58870        1.92350
C          4.44440       -1.44810        1.25880
C          5.80710       -1.13830        1.28480
C          6.71660       -1.96240        0.62680
C          6.27130       -3.09500       -0.05260
C          4.91350       -3.41240       -0.06670
C          3.99910       -2.59350        0.58940
C          4.51870       -0.49060        4.30430
O          5.70710       -0.32700        4.19540
O          3.93030       -1.04600        5.38630
C          4.78850       -1.39980        6.47640
C          5.14970       -0.15530        7.26910
C          0.50580        1.42460        2.33700
C          0.16170        2.33900        3.34070
C         -1.05190        3.01240        3.25980
C         -1.91450        2.78110        2.18850
C         -1.56820        1.87590        1.18760
C         -0.35860        1.18800        1.25530
H          2.21850        0.87360       -0.57300
H          2.17300       -0.89920       -0.56400
H          6.15480       -0.25710        1.82960
H          7.77740       -1.72020        0.64880
H          6.98330       -3.73490       -0.56820
H          4.56780       -4.30250       -0.58730
H          2.94160       -2.85090        0.59820
H          5.67740       -1.93340        6.09530
H          4.13980       -2.09580        7.04140
H          5.78520        0.51950        6.67810
H          5.69380       -0.40500        8.18570
H          4.25320        0.41070        7.55140
H          0.84170        2.50800        4.18140
H         -1.32940        3.72460        4.03740
H         -2.86380        3.31220        2.13210
H         -2.25610        1.71700        0.35360
