rmsd103.gzmat
 OpenBabel08211713363D

 35 37  0  0  0  0  0  0  0  0999 V2000
    0.0000    0.0000    0.0000 N   0  0  0  0  0  0  0  0  0  0  0  0
    1.3645    0.0000    0.0000 C   0  0  0  0  0  0  0  0  0  0  0  0
    2.0703    0.0000    1.1992 C   0  0  0  0  0  0  0  0  0  0  0  0
    1.3796   -0.0019    2.4127 C   0  0  0  0  0  0  0  0  0  0  0  0
   -0.0127   -0.0108    2.3942 C   0  0  0  0  0  0  0  0  0  0  0  0
   -0.6898   -0.0021    1.1743 C   0  0  0  0  0  0  0  0  0  0  0  0
   -0.7332    0.0189   -1.2910 C   0  0  0  0  0  0  0  0  0  0  0  0
   -0.4388    1.2763   -2.1204 C   0  0  0  0  0  0  0  0  0  0  0  0
   -1.0847    2.5488   -1.5514 C   0  0  0  0  0  0  0  0  0  0  0  0
   -0.3973    3.0304   -0.3368 C   0  0  0  0  0  0  0  0  0  0  0  0
    0.8735    3.5831   -0.2679 C   0  0  0  0  0  0  0  0  0  0  0  0
    1.1853    3.8814    1.0596 N   0  0  0  0  0  0  0  0  0  0  0  0
    1.9855    4.3937    1.3664 H   0  0  0  0  0  0  0  0  0  0  0  0
    0.0786    3.5697    1.8491 C   0  0  0  0  0  0  0  0  0  0  0  0
   -0.1075    3.7008    3.2330 C   0  0  0  0  0  0  0  0  0  0  0  0
   -1.3256    3.3032    3.7464 C   0  0  0  0  0  0  0  0  0  0  0  0
   -2.3490    2.7965    2.9130 C   0  0  0  0  0  0  0  0  0  0  0  0
   -2.1690    2.6643    1.5500 C   0  0  0  0  0  0  0  0  0  0  0  0
   -0.9357    3.0305    0.9956 C   0  0  0  0  0  0  0  0  0  0  0  0
    1.8816   -0.0017   -0.9730 H   0  0  0  0  0  0  0  0  0  0  0  0
    3.1673    0.0020    1.1820 H   0  0  0  0  0  0  0  0  0  0  0  0
    1.9256    0.0049    3.3654 H   0  0  0  0  0  0  0  0  0  0  0  0
   -0.5884   -0.0061    3.3296 H   0  0  0  0  0  0  0  0  0  0  0  0
   -1.7922    0.0165    1.1344 H   0  0  0  0  0  0  0  0  0  0  0  0
   -1.8314   -0.0573   -1.1001 H   0  0  0  0  0  0  0  0  0  0  0  0
   -0.4507   -0.8994   -1.8650 H   0  0  0  0  0  0  0  0  0  0  0  0
   -0.8240    1.1066   -3.1532 H   0  0  0  0  0  0  0  0  0  0  0  0
    0.6505    1.4330   -2.2440 H   0  0  0  0  0  0  0  0  0  0  0  0
   -2.1660    2.3853   -1.3564 H   0  0  0  0  0  0  0  0  0  0  0  0
   -1.0675    3.3485   -2.3326 H   0  0  0  0  0  0  0  0  0  0  0  0
    1.5709    3.7897   -1.0608 H   0  0  0  0  0  0  0  0  0  0  0  0
    0.6715    4.1191    3.8651 H   0  0  0  0  0  0  0  0  0  0  0  0
   -1.5220    3.3989    4.8170 H   0  0  0  0  0  0  0  0  0  0  0  0
   -3.3067    2.5340    3.3655 H   0  0  0  0  0  0  0  0  0  0  0  0
   -2.9747    2.3216    0.9055 H   0  0  0  0  0  0  0  0  0  0  0  0
  1  6  1  0  0  0  0
  2  1  1  0  0  0  0
  2  3  2  0  0  0  0
  3  4  1  0  0  0  0
  4 22  1  0  0  0  0
  5  4  1  0  0  0  0
  5 23  1  0  0  0  0
  6  5  2  0  0  0  0
  7 25  1  0  0  0  0
  7  1  1  0  0  0  0
  8  9  1  0  0  0  0
  8  7  1  0  0  0  0
  9 29  1  0  0  0  0
  9 10  1  0  0  0  0
 10 11  2  0  0  0  0
 10 19  1  0  0  0  0
 11 12  1  0  0  0  0
 12 13  1  0  0  0  0
 12 14  1  0  0  0  0
 14 15  2  0  0  0  0
 15 16  1  0  0  0  0
 15 32  1  0  0  0  0
 16 33  1  0  0  0  0
 17 34  1  0  0  0  0
 17 16  2  0  0  0  0
 18 17  1  0  0  0  0
 19 18  2  0  0  0  0
 19 14  1  0  0  0  0
 20  2  1  0  0  0  0
 21  3  1  0  0  0  0
 24  6  1  0  0  0  0
 26  7  1  0  0  0  0
 27  8  1  0  0  0  0
 28  8  1  0  0  0  0
 30  9  1  0  0  0  0
 31 11  1  0  0  0  0
 35 18  1  0  0  0  0
M  RAD  1   4   2
M  END
$$$$
