35
rmsd139.gzmat
N          0.00000        0.00000        0.00000
C          1.36190        0.00000        0.00000
C          2.07090        0.00000        1.20170
C          1.38170       -0.02050        2.41180
C         -0.01450       -0.02230        2.39310
C         -0.69080       -0.00970        1.17690
C         -0.74270       -0.00670       -1.28580
C         -1.61260       -1.25930       -1.46150
C         -0.80190       -2.53570       -1.73110
C         -0.10880       -3.02120       -0.52120
C         -0.69760       -3.55260        0.61710
N          0.28790       -3.85500        1.55860
H          0.14130       -4.35730        2.40870
C          1.53220       -3.57040        0.99560
C          2.82020       -3.71800        1.53050
C          3.88200       -3.34660        0.73070
C          3.68360       -2.84730       -0.57680
C          2.41700       -2.69810       -1.10630
C          1.31330       -3.04160       -0.31550
H          1.88510       -0.01270       -0.97120
H          3.16930       -0.00120        1.17950
H          1.92610       -0.03540        3.36510
H         -0.58460       -0.03520        3.33090
H         -1.79150       -0.00690        1.13040
H         -0.02190        0.07410       -2.13610
H         -1.37900        0.91380       -1.32570
H         -2.30320       -1.08140       -2.31930
H         -2.27540       -1.41600       -0.58840
H         -0.08230       -2.37460       -2.56220
H         -1.48810       -3.33060       -2.11480
H         -1.73720       -3.74080        0.82250
H          2.96950       -4.13130        2.52480
H          4.90510       -3.45780        1.09790
H          4.55990       -2.60370       -1.17970
H          2.26960       -2.35670       -2.12820
