rmsd18.gzmat
 OpenBabel08211713363D

 35 37  0  0  0  0  0  0  0  0999 V2000
    0.0000    0.0000    0.0000 N   0  0  0  0  0  0  0  0  0  0  0  0
    1.3645    0.0000    0.0000 C   0  0  0  0  0  0  0  0  0  0  0  0
    2.0710    0.0000    1.1995 C   0  0  0  0  0  0  0  0  0  0  0  0
    1.3799   -0.0036    2.4122 C   0  0  0  0  0  0  0  0  0  0  0  0
   -0.0137    0.0095    2.3931 C   0  0  0  0  0  0  0  0  0  0  0  0
   -0.6909    0.0018    1.1738 C   0  0  0  0  0  0  0  0  0  0  0  0
   -0.7301   -0.0408   -1.2925 C   0  0  0  0  0  0  0  0  0  0  0  0
   -0.5062   -1.3645   -2.0362 C   0  0  0  0  0  0  0  0  0  0  0  0
   -1.3939   -2.5097   -1.5282 C   0  0  0  0  0  0  0  0  0  0  0  0
   -1.1511   -2.8566   -0.1137 C   0  0  0  0  0  0  0  0  0  0  0  0
   -2.1098   -2.9340    0.8854 C   0  0  0  0  0  0  0  0  0  0  0  0
   -1.5022   -3.2715    2.0983 N   0  0  0  0  0  0  0  0  0  0  0  0
   -1.9870   -3.5481    2.9275 H   0  0  0  0  0  0  0  0  0  0  0  0
   -0.1422   -3.4787    1.8601 C   0  0  0  0  0  0  0  0  0  0  0  0
    0.8787   -3.8500    2.7466 C   0  0  0  0  0  0  0  0  0  0  0  0
    2.1508   -3.9781    2.2258 C   0  0  0  0  0  0  0  0  0  0  0  0
    2.4128   -3.7558    0.8551 C   0  0  0  0  0  0  0  0  0  0  0  0
    1.4090   -3.3885   -0.0195 C   0  0  0  0  0  0  0  0  0  0  0  0
    0.1100   -3.2218    0.4757 C   0  0  0  0  0  0  0  0  0  0  0  0
    1.8828   -0.0010   -0.9727 H   0  0  0  0  0  0  0  0  0  0  0  0
    3.1685   -0.0047    1.1821 H   0  0  0  0  0  0  0  0  0  0  0  0
    1.9267   -0.0157    3.3648 H   0  0  0  0  0  0  0  0  0  0  0  0
   -0.5871    0.0152    3.3284 H   0  0  0  0  0  0  0  0  0  0  0  0
   -1.7922   -0.0149    1.1285 H   0  0  0  0  0  0  0  0  0  0  0  0
   -0.3881    0.8221   -1.9165 H   0  0  0  0  0  0  0  0  0  0  0  0
   -1.8218    0.1155   -1.1144 H   0  0  0  0  0  0  0  0  0  0  0  0
    0.5578   -1.6708   -1.9946 H   0  0  0  0  0  0  0  0  0  0  0  0
   -0.7172   -1.2014   -3.1187 H   0  0  0  0  0  0  0  0  0  0  0  0
   -1.2072   -3.4158   -2.1593 H   0  0  0  0  0  0  0  0  0  0  0  0
   -2.4654   -2.2692   -1.7010 H   0  0  0  0  0  0  0  0  0  0  0  0
   -3.1741   -2.7834    0.8235 H   0  0  0  0  0  0  0  0  0  0  0  0
    0.6659   -4.0512    3.7934 H   0  0  0  0  0  0  0  0  0  0  0  0
    2.9770   -4.2798    2.8744 H   0  0  0  0  0  0  0  0  0  0  0  0
    3.4288   -3.9069    0.4868 H   0  0  0  0  0  0  0  0  0  0  0  0
    1.6076   -3.2659   -1.0812 H   0  0  0  0  0  0  0  0  0  0  0  0
  1  6  1  0  0  0  0
  2  1  1  0  0  0  0
  2  3  2  0  0  0  0
  3  4  1  0  0  0  0
  4 22  1  0  0  0  0
  5  4  1  0  0  0  0
  5 23  1  0  0  0  0
  6  5  2  0  0  0  0
  7 26  1  0  0  0  0
  7  1  1  0  0  0  0
  8 27  1  0  0  0  0
  8  9  1  0  0  0  0
  8  7  1  0  0  0  0
  9 10  1  0  0  0  0
 10 19  1  0  0  0  0
 10 11  2  0  0  0  0
 11 12  1  0  0  0  0
 12 13  1  0  0  0  0
 14 12  1  0  0  0  0
 14 15  2  0  0  0  0
 15 32  1  0  0  0  0
 16 15  1  0  0  0  0
 16 33  1  0  0  0  0
 17 16  2  0  0  0  0
 18 19  2  0  0  0  0
 18 17  1  0  0  0  0
 19 14  1  0  0  0  0
 20  2  1  0  0  0  0
 21  3  1  0  0  0  0
 24  6  1  0  0  0  0
 25  7  1  0  0  0  0
 28  8  1  0  0  0  0
 29  9  1  0  0  0  0
 30  9  1  0  0  0  0
 31 11  1  0  0  0  0
 34 17  1  0  0  0  0
 35 18  1  0  0  0  0
M  RAD  1   4   2
M  END
$$$$
