rmsd32.gzmat
 OpenBabel08211713363D

 35 37  0  0  0  0  0  0  0  0999 V2000
    0.0000    0.0000    0.0000 N   0  0  0  0  0  0  0  0  0  0  0  0
    1.3617    0.0000    0.0000 C   0  0  0  0  0  0  0  0  0  0  0  0
    2.0709    0.0000    1.2020 C   0  0  0  0  0  0  0  0  0  0  0  0
    1.3823   -0.0110    2.4122 C   0  0  0  0  0  0  0  0  0  0  0  0
   -0.0141   -0.0079    2.3932 C   0  0  0  0  0  0  0  0  0  0  0  0
   -0.6901   -0.0025    1.1777 C   0  0  0  0  0  0  0  0  0  0  0  0
   -0.7434   -0.0146   -1.2860 C   0  0  0  0  0  0  0  0  0  0  0  0
   -1.6440   -1.2492   -1.4338 C   0  0  0  0  0  0  0  0  0  0  0  0
   -0.8721   -2.5279   -1.7937 C   0  0  0  0  0  0  0  0  0  0  0  0
   -0.0226   -3.0006   -0.6831 C   0  0  0  0  0  0  0  0  0  0  0  0
   -0.4477   -3.5916    0.4977 C   0  0  0  0  0  0  0  0  0  0  0  0
    0.6543   -3.8618    1.3117 N   0  0  0  0  0  0  0  0  0  0  0  0
    0.6328   -4.3916    2.1576 H   0  0  0  0  0  0  0  0  0  0  0  0
    1.8089   -3.4953    0.6194 C   0  0  0  0  0  0  0  0  0  0  0  0
    3.1562   -3.5850    0.9989 C   0  0  0  0  0  0  0  0  0  0  0  0
    4.0976   -3.1375    0.0937 C   0  0  0  0  0  0  0  0  0  0  0  0
    3.7238   -2.6181   -1.1668 C   0  0  0  0  0  0  0  0  0  0  0  0
    2.3984   -2.5227   -1.5425 C   0  0  0  0  0  0  0  0  0  0  0  0
    1.4130   -2.9463   -0.6414 C   0  0  0  0  0  0  0  0  0  0  0  0
    1.8867   -0.0166   -0.9713 H   0  0  0  0  0  0  0  0  0  0  0  0
    3.1691   -0.0079    1.1784 H   0  0  0  0  0  0  0  0  0  0  0  0
    1.9268   -0.0208    3.3659 H   0  0  0  0  0  0  0  0  0  0  0  0
   -0.5845   -0.0091    3.3308 H   0  0  0  0  0  0  0  0  0  0  0  0
   -1.7910    0.0012    1.1318 H   0  0  0  0  0  0  0  0  0  0  0  0
   -0.0207    0.0270   -2.1376 H   0  0  0  0  0  0  0  0  0  0  0  0
   -1.3527    0.9226   -1.3459 H   0  0  0  0  0  0  0  0  0  0  0  0
   -2.3900   -1.0424   -2.2365 H   0  0  0  0  0  0  0  0  0  0  0  0
   -2.2465   -1.4222   -0.5217 H   0  0  0  0  0  0  0  0  0  0  0  0
   -0.2675   -2.3714   -2.7136 H   0  0  0  0  0  0  0  0  0  0  0  0
   -1.6002   -3.3266   -2.0778 H   0  0  0  0  0  0  0  0  0  0  0  0
   -1.4454   -3.8413    0.8145 H   0  0  0  0  0  0  0  0  0  0  0  0
    3.4402   -4.0100    1.9581 H   0  0  0  0  0  0  0  0  0  0  0  0
    5.1606   -3.2003    0.3384 H   0  0  0  0  0  0  0  0  0  0  0  0
    4.5106   -2.3137   -1.8591 H   0  0  0  0  0  0  0  0  0  0  0  0
    2.1159   -2.1616   -2.5286 H   0  0  0  0  0  0  0  0  0  0  0  0
  1  6  1  0  0  0  0
  2  1  1  0  0  0  0
  2  3  2  0  0  0  0
  3  4  1  0  0  0  0
  4 22  1  0  0  0  0
  5  4  1  0  0  0  0
  5 23  1  0  0  0  0
  6  5  2  0  0  0  0
  7  1  1  0  0  0  0
  8  7  1  0  0  0  0
  8 28  1  0  0  0  0
  9  8  1  0  0  0  0
  9 10  1  0  0  0  0
 10 19  1  0  0  0  0
 10 11  2  0  0  0  0
 11 31  1  0  0  0  0
 11 12  1  0  0  0  0
 12 13  1  0  0  0  0
 14 15  1  0  0  0  0
 14 12  1  0  0  0  0
 15 32  1  0  0  0  0
 16 33  1  0  0  0  0
 16 15  2  0  0  0  0
 17 16  1  0  0  0  0
 18 17  2  0  0  0  0
 18 19  1  0  0  0  0
 19 14  2  0  0  0  0
 20  2  1  0  0  0  0
 21  3  1  0  0  0  0
 24  6  1  0  0  0  0
 25  7  1  0  0  0  0
 26  7  1  0  0  0  0
 27  8  1  0  0  0  0
 29  9  1  0  0  0  0
 30  9  1  0  0  0  0
 34 17  1  0  0  0  0
 35 18  1  0  0  0  0
M  RAD  1   4   2
M  END
$$$$
