38
rmsd60.gzmat
Cl         0.00000        0.00000        0.00000
C          1.71060        0.00000        0.00000
C          2.37620        0.00000        1.21880
C          3.76900       -0.01130        1.21100
C          4.46430       -0.02810       -0.00110
C          3.76860       -0.01540       -1.21290
C          2.37560       -0.00230       -1.21920
C          5.95870       -0.08950       -0.00220
C          6.41220       -1.55270       -0.18950
H          5.94450       -1.97700       -1.12230
N          7.86100       -1.62480       -0.31340
N          8.42420       -1.97980       -1.50330
C          9.75960       -1.95420       -1.27880
N         10.04920       -1.59030        0.03330
C          8.86200       -1.38660        0.62850
C          6.01310       -2.38320        1.05730
O          6.35960       -1.98670        2.13770
C          5.23220       -3.67110        0.84840
C          4.99750       -4.32270        2.21520
C          3.88890       -3.34830        0.18920
C          6.06970       -4.59860       -0.03790
H          1.83020        0.00990        2.16190
H          4.31730       -0.01670        2.15540
H          4.31450       -0.01580       -2.15670
H          1.82720        0.00640       -2.16080
H          6.38310        0.32620        0.93800
H          6.38360        0.54070       -0.81390
H         10.51630       -2.18450       -2.00990
H          8.68120       -1.10650        1.65560
H          5.94590       -4.55560        2.71690
H          4.42910       -5.25380        2.12390
H          4.44300       -3.65530        2.88710
H          4.00150       -2.90000       -0.80400
H          3.29420       -2.65460        0.79850
H          3.28800       -4.25780        0.06240
H          6.24560       -4.18240       -1.03730
H          5.56730       -5.56380       -0.17760
H          7.05120       -4.80870        0.40560
