rmsd22.gzmat
 OpenBabel08211713403D

 38 39  0  0  1  0  0  0  0  0999 V2000
    0.0000    0.0000    0.0000 Cl  0  0  0  0  0  0  0  0  0  0  0  0
    1.7107    0.0000    0.0000 C   0  0  0  0  0  0  0  0  0  0  0  0
    2.3759    0.0000    1.2191 C   0  0  0  0  0  0  0  0  0  0  0  0
    3.7687   -0.0135    1.2114 C   0  0  0  0  0  0  0  0  0  0  0  0
    4.4637   -0.0297   -0.0007 C   0  0  0  0  0  0  0  0  0  0  0  0
    3.7685   -0.0141   -1.2127 C   0  0  0  0  0  0  0  0  0  0  0  0
    2.3756   -0.0011   -1.2194 C   0  0  0  0  0  0  0  0  0  0  0  0
    5.9581   -0.0939   -0.0031 C   0  0  0  0  0  0  0  0  0  0  0  0
    6.3988   -1.5613   -0.1825 C   0  0  1  0  0  0  0  0  0  0  0  0
    5.8679   -2.0093   -1.0696 H   0  0  0  0  0  0  0  0  0  0  0  0
    7.8352   -1.6442   -0.4022 N   0  0  0  0  0  0  0  0  0  0  0  0
    8.3132   -2.0990   -1.5953 N   0  0  0  0  0  0  0  0  0  0  0  0
    9.6606   -2.0854   -1.4594 C   0  0  0  0  0  0  0  0  0  0  0  0
   10.0412   -1.6333   -0.1991 N   0  0  0  0  0  0  0  0  0  0  0  0
    8.8990   -1.3619    0.4543 C   0  0  0  0  0  0  0  0  0  0  0  0
    6.0867   -2.3594    1.1102 C   0  0  0  0  0  0  0  0  0  0  0  0
    6.4537   -1.9027    2.1594 O   0  0  0  0  0  0  0  0  0  0  0  0
    5.3689   -3.6933    0.9807 C   0  0  0  0  0  0  0  0  0  0  0  0
    5.1787   -4.2812    2.3821 C   0  0  0  0  0  0  0  0  0  0  0  0
    4.0061   -3.4779    0.3177 C   0  0  0  0  0  0  0  0  0  0  0  0
    6.2474   -4.6216    0.1361 C   0  0  0  0  0  0  0  0  0  0  0  0
    1.8294    0.0124    2.1621 H   0  0  0  0  0  0  0  0  0  0  0  0
    4.3179   -0.0156    2.1553 H   0  0  0  0  0  0  0  0  0  0  0  0
    4.3145   -0.0115   -2.1565 H   0  0  0  0  0  0  0  0  0  0  0  0
    1.8281    0.0098   -2.1616 H   0  0  0  0  0  0  0  0  0  0  0  0
    6.3851    0.3252    0.9345 H   0  0  0  0  0  0  0  0  0  0  0  0
    6.3838    0.5312   -0.8183 H   0  0  0  0  0  0  0  0  0  0  0  0
   10.3638   -2.3824   -2.2195 H   0  0  0  0  0  0  0  0  0  0  0  0
    8.7904   -1.0014    1.4660 H   0  0  0  0  0  0  0  0  0  0  0  0
    6.1392   -4.4135    2.8962 H   0  0  0  0  0  0  0  0  0  0  0  0
    4.6841   -5.2569    2.3443 H   0  0  0  0  0  0  0  0  0  0  0  0
    4.5724   -3.6208    3.0140 H   0  0  0  0  0  0  0  0  0  0  0  0
    4.0903   -3.1267   -0.7162 H   0  0  0  0  0  0  0  0  0  0  0  0
    3.3963   -2.7491    0.8672 H   0  0  0  0  0  0  0  0  0  0  0  0
    3.4352   -4.4150    0.2889 H   0  0  0  0  0  0  0  0  0  0  0  0
    6.3683   -4.2636   -0.8939 H   0  0  0  0  0  0  0  0  0  0  0  0
    5.8109   -5.6264    0.0762 H   0  0  0  0  0  0  0  0  0  0  0  0
    7.2521   -4.7319    0.5624 H   0  0  0  0  0  0  0  0  0  0  0  0
  1  2  1  0  0  0  0
  2  3  2  0  0  0  0
  3 22  1  0  0  0  0
  4  3  1  0  0  0  0
  4 23  1  0  0  0  0
  5  4  2  0  0  0  0
  6  5  1  0  0  0  0
  7  6  2  0  0  0  0
  7  2  1  0  0  0  0
  8  5  1  0  0  0  0
  8 26  1  0  0  0  0
  9 10  1  6  0  0  0
  9  8  1  0  0  0  0
  9 16  1  0  0  0  0
 11  9  1  0  0  0  0
 11 15  1  0  0  0  0
 12 13  2  0  0  0  0
 12 11  1  0  0  0  0
 13 14  2  0  0  0  0
 14 15  2  0  0  0  0
 15 29  1  0  0  0  0
 16 17  2  0  0  0  0
 18 16  1  0  0  0  0
 18 19  1  0  0  0  0
 19 30  1  0  0  0  0
 19 32  1  0  0  0  0
 20 34  1  0  0  0  0
 20 18  1  0  0  0  0
 21 38  1  0  0  0  0
 21 18  1  0  0  0  0
 24  6  1  0  0  0  0
 25  7  1  0  0  0  0
 27  8  1  0  0  0  0
 28 13  1  0  0  0  0
 31 19  1  0  0  0  0
 33 20  1  0  0  0  0
 35 20  1  0  0  0  0
 36 21  1  0  0  0  0
 37 21  1  0  0  0  0
M  END
$$$$
