rmsd116.gzmat
 OpenBabel08211713403D

 38 39  0  0  1  0  0  0  0  0999 V2000
    0.0000    0.0000    0.0000 Cl  0  0  0  0  0  0  0  0  0  0  0  0
    1.7106    0.0000    0.0000 C   0  0  0  0  0  0  0  0  0  0  0  0
    2.3755    0.0000    1.2194 C   0  0  0  0  0  0  0  0  0  0  0  0
    3.7683   -0.0137    1.2129 C   0  0  0  0  0  0  0  0  0  0  0  0
    4.4643   -0.0316    0.0013 C   0  0  0  0  0  0  0  0  0  0  0  0
    3.7694   -0.0187   -1.2110 C   0  0  0  0  0  0  0  0  0  0  0  0
    2.3765   -0.0026   -1.2188 C   0  0  0  0  0  0  0  0  0  0  0  0
    5.9586   -0.0895    0.0004 C   0  0  0  0  0  0  0  0  0  0  0  0
    6.4181   -1.5530   -0.1685 C   0  0  1  0  0  0  0  0  0  0  0  0
    5.8783   -2.0243   -1.0373 H   0  0  0  0  0  0  0  0  0  0  0  0
    7.8517   -1.6083   -0.4173 N   0  0  0  0  0  0  0  0  0  0  0  0
    8.3196   -2.1069   -1.5966 N   0  0  0  0  0  0  0  0  0  0  0  0
    9.6681   -2.0257   -1.4992 C   0  0  0  0  0  0  0  0  0  0  0  0
   10.0595   -1.4859   -0.2773 N   0  0  0  0  0  0  0  0  0  0  0  0
    8.9229   -1.2307    0.3920 C   0  0  0  0  0  0  0  0  0  0  0  0
    6.1505   -2.3335    1.1444 C   0  0  0  0  0  0  0  0  0  0  0  0
    6.6034   -1.8896    2.1654 O   0  0  0  0  0  0  0  0  0  0  0  0
    5.3689   -3.6359    1.0721 C   0  0  0  0  0  0  0  0  0  0  0  0
    5.1670   -4.1601    2.4977 C   0  0  0  0  0  0  0  0  0  0  0  0
    4.0095   -3.3953    0.4114 C   0  0  0  0  0  0  0  0  0  0  0  0
    6.2020   -4.6311    0.2571 C   0  0  0  0  0  0  0  0  0  0  0  0
    1.8283    0.0114    2.1619 H   0  0  0  0  0  0  0  0  0  0  0  0
    4.3148   -0.0173    2.1580 H   0  0  0  0  0  0  0  0  0  0  0  0
    4.3156   -0.0204   -2.1548 H   0  0  0  0  0  0  0  0  0  0  0  0
    1.8301    0.0096   -2.1616 H   0  0  0  0  0  0  0  0  0  0  0  0
    6.3817    0.3405    0.9351 H   0  0  0  0  0  0  0  0  0  0  0  0
    6.3797    0.5338   -0.8193 H   0  0  0  0  0  0  0  0  0  0  0  0
   10.3652   -2.3338   -2.2601 H   0  0  0  0  0  0  0  0  0  0  0  0
    8.8226   -0.8241    1.3869 H   0  0  0  0  0  0  0  0  0  0  0  0
    6.1269   -4.3283    3.0041 H   0  0  0  0  0  0  0  0  0  0  0  0
    4.6180   -5.1069    2.5027 H   0  0  0  0  0  0  0  0  0  0  0  0
    4.6087   -3.4433    3.1128 H   0  0  0  0  0  0  0  0  0  0  0  0
    4.0957   -3.1235   -0.6461 H   0  0  0  0  0  0  0  0  0  0  0  0
    3.4458   -2.5998    0.9159 H   0  0  0  0  0  0  0  0  0  0  0  0
    3.3897   -4.3003    0.4543 H   0  0  0  0  0  0  0  0  0  0  0  0
    6.4026   -4.2759   -0.7615 H   0  0  0  0  0  0  0  0  0  0  0  0
    5.6826   -5.5933    0.1671 H   0  0  0  0  0  0  0  0  0  0  0  0
    7.1725   -4.8308    0.7287 H   0  0  0  0  0  0  0  0  0  0  0  0
  2  1  1  0  0  0  0
  2  3  2  0  0  0  0
  3 22  1  0  0  0  0
  4  3  1  0  0  0  0
  4 23  1  0  0  0  0
  5  4  2  0  0  0  0
  6  5  1  0  0  0  0
  7  6  2  0  0  0  0
  7  2  1  0  0  0  0
  8  5  1  0  0  0  0
  8 26  1  0  0  0  0
  9 10  1  6  0  0  0
  9  8  1  0  0  0  0
  9 16  1  0  0  0  0
 11  9  1  0  0  0  0
 11 15  1  0  0  0  0
 12 13  2  0  0  0  0
 12 11  1  0  0  0  0
 13 14  2  0  0  0  0
 14 15  2  0  0  0  0
 15 29  1  0  0  0  0
 16 17  2  0  0  0  0
 18 16  1  0  0  0  0
 18 19  1  0  0  0  0
 19 31  1  0  0  0  0
 19 30  1  0  0  0  0
 19 32  1  0  0  0  0
 20 35  1  0  0  0  0
 20 34  1  0  0  0  0
 20 18  1  0  0  0  0
 21 38  1  0  0  0  0
 21 18  1  0  0  0  0
 24  6  1  0  0  0  0
 25  7  1  0  0  0  0
 27  8  1  0  0  0  0
 28 13  1  0  0  0  0
 33 20  1  0  0  0  0
 36 21  1  0  0  0  0
 37 21  1  0  0  0  0
M  END
$$$$
