38
rmsd121.gzmat
Cl         0.00000        0.00000        0.00000
C          1.71040        0.00000        0.00000
C          2.37710        0.00000        1.21830
C          3.77000       -0.00940        1.20880
C          4.46420       -0.02090       -0.00390
C          3.76730       -0.00850       -1.21510
C          2.37410       -0.00080       -1.21990
C          5.95910       -0.06970       -0.00260
C          6.42940       -1.51830       -0.25060
H          5.96450       -1.91100       -1.19810
N          7.87860       -1.56890       -0.38210
N          8.44030       -1.93180       -1.57030
C          9.77640       -1.88490       -1.35360
N         10.06810       -1.49970       -0.04820
C          8.88130       -1.30540        0.55130
C          6.04740       -2.39930        0.96730
O          6.41800       -2.04720        2.05510
C          5.26550       -3.68030        0.72260
C          4.90790       -4.29950        2.07770
C          3.98700       -3.37460       -0.06120
C          6.17480       -4.62890       -0.06700
H          1.83200        0.00830        2.16220
H          4.31900       -0.01380        2.15260
H          4.31170       -0.00440       -2.15950
H          1.82300        0.00570       -2.15970
H          6.37530        0.30890        0.95710
H          6.37890        0.60190       -0.78330
H         10.53220       -2.11440       -2.08610
H          8.70210       -1.01410        1.57540
H          5.80510       -4.47870        2.68560
H          4.38990       -5.25620        1.95710
H          4.25770       -3.63840        2.66350
H          4.18890       -3.05340       -1.08870
H          3.38850       -2.59180        0.42340
H          3.34930       -4.26520       -0.12960
H          6.50730       -4.19680       -1.01910
H          5.65180       -5.56420       -0.30280
H          7.07390       -4.89820        0.50140
