rmsd69.gzmat
 OpenBabel08211713403D

 38 39  0  0  1  0  0  0  0  0999 V2000
    0.0000    0.0000    0.0000 Cl  0  0  0  0  0  0  0  0  0  0  0  0
    1.7104    0.0000    0.0000 C   0  0  0  0  0  0  0  0  0  0  0  0
    2.3754    0.0000    1.2192 C   0  0  0  0  0  0  0  0  0  0  0  0
    3.7680   -0.0175    1.2122 C   0  0  0  0  0  0  0  0  0  0  0  0
    4.4641   -0.0357    0.0005 C   0  0  0  0  0  0  0  0  0  0  0  0
    3.7692   -0.0184   -1.2116 C   0  0  0  0  0  0  0  0  0  0  0  0
    2.3761   -0.0034   -1.2189 C   0  0  0  0  0  0  0  0  0  0  0  0
    5.9582   -0.1074    0.0030 C   0  0  0  0  0  0  0  0  0  0  0  0
    6.4031   -1.5694   -0.2125 C   0  0  1  0  0  0  0  0  0  0  0  0
    5.9996   -1.9489   -1.1926 H   0  0  0  0  0  0  0  0  0  0  0  0
    7.8560   -1.6599   -0.2317 N   0  0  0  0  0  0  0  0  0  0  0  0
    8.4961   -2.1160   -1.3456 N   0  0  0  0  0  0  0  0  0  0  0  0
    9.8105   -2.1113   -1.0190 C   0  0  0  0  0  0  0  0  0  0  0  0
   10.0107   -1.6655    0.2843 N   0  0  0  0  0  0  0  0  0  0  0  0
    8.7887   -1.3894    0.7697 C   0  0  0  0  0  0  0  0  0  0  0  0
    5.9059   -2.4430    0.9694 C   0  0  0  0  0  0  0  0  0  0  0  0
    6.2057   -2.1062    2.0833 O   0  0  0  0  0  0  0  0  0  0  0  0
    5.1044   -3.6972    0.6582 C   0  0  0  0  0  0  0  0  0  0  0  0
    4.6697   -4.3376    1.9806 C   0  0  0  0  0  0  0  0  0  0  0  0
    3.8695   -3.3356   -0.1707 C   0  0  0  0  0  0  0  0  0  0  0  0
    6.0182   -4.6536   -0.1156 C   0  0  0  0  0  0  0  0  0  0  0  0
    1.8285    0.0120    2.1621 H   0  0  0  0  0  0  0  0  0  0  0  0
    4.3151   -0.0289    2.1575 H   0  0  0  0  0  0  0  0  0  0  0  0
    4.3148   -0.0181   -2.1554 H   0  0  0  0  0  0  0  0  0  0  0  0
    1.8289    0.0063   -2.1613 H   0  0  0  0  0  0  0  0  0  0  0  0
    6.3785    0.2849    0.9551 H   0  0  0  0  0  0  0  0  0  0  0  0
    6.3924    0.5379   -0.7917 H   0  0  0  0  0  0  0  0  0  0  0  0
   10.6138   -2.4091   -1.6716 H   0  0  0  0  0  0  0  0  0  0  0  0
    8.5390   -1.0350    1.7582 H   0  0  0  0  0  0  0  0  0  0  0  0
    5.5344   -4.5838    2.6111 H   0  0  0  0  0  0  0  0  0  0  0  0
    4.1056   -5.2606    1.8129 H   0  0  0  0  0  0  0  0  0  0  0  0
    4.0374   -3.6581    2.5654 H   0  0  0  0  0  0  0  0  0  0  0  0
    4.1250   -2.9480   -1.1626 H   0  0  0  0  0  0  0  0  0  0  0  0
    3.2490   -2.5820    0.3321 H   0  0  0  0  0  0  0  0  0  0  0  0
    3.2351   -4.2171   -0.3291 H   0  0  0  0  0  0  0  0  0  0  0  0
    6.3759   -4.2223   -1.0589 H   0  0  0  0  0  0  0  0  0  0  0  0
    5.4897   -5.5821   -0.3656 H   0  0  0  0  0  0  0  0  0  0  0  0
    6.9026   -4.9348    0.4698 H   0  0  0  0  0  0  0  0  0  0  0  0
  1  2  1  0  0  0  0
  2  3  2  0  0  0  0
  3 22  1  0  0  0  0
  4  3  1  0  0  0  0
  4 23  1  0  0  0  0
  5  8  1  0  0  0  0
  5  4  2  0  0  0  0
  6  5  1  0  0  0  0
  7  6  2  0  0  0  0
  7  2  1  0  0  0  0
  8 26  1  0  0  0  0
  9 10  1  6  0  0  0
  9  8  1  0  0  0  0
  9 16  1  0  0  0  0
 11  9  1  0  0  0  0
 11 15  1  0  0  0  0
 12 13  2  0  0  0  0
 12 11  1  0  0  0  0
 13 14  2  0  0  0  0
 14 15  2  0  0  0  0
 15 29  1  0  0  0  0
 16 17  2  0  0  0  0
 18 16  1  0  0  0  0
 18 19  1  0  0  0  0
 19 32  1  0  0  0  0
 19 30  1  0  0  0  0
 20 34  1  0  0  0  0
 20 18  1  0  0  0  0
 21 38  1  0  0  0  0
 21 18  1  0  0  0  0
 24  6  1  0  0  0  0
 25  7  1  0  0  0  0
 27  8  1  0  0  0  0
 28 13  1  0  0  0  0
 31 19  1  0  0  0  0
 33 20  1  0  0  0  0
 35 20  1  0  0  0  0
 36 21  1  0  0  0  0
 37 21  1  0  0  0  0
M  END
$$$$
