rmsd191.gzmat
 OpenBabel08211713403D

 38 39  0  0  1  0  0  0  0  0999 V2000
    0.0000    0.0000    0.0000 Cl  0  0  0  0  0  0  0  0  0  0  0  0
    1.7105    0.0000    0.0000 C   0  0  0  0  0  0  0  0  0  0  0  0
    2.3754    0.0000    1.2194 C   0  0  0  0  0  0  0  0  0  0  0  0
    3.7681   -0.0053    1.2129 C   0  0  0  0  0  0  0  0  0  0  0  0
    4.4641   -0.0156    0.0010 C   0  0  0  0  0  0  0  0  0  0  0  0
    3.7691   -0.0081   -1.2112 C   0  0  0  0  0  0  0  0  0  0  0  0
    2.3764   -0.0013   -1.2188 C   0  0  0  0  0  0  0  0  0  0  0  0
    5.9593   -0.0589    0.0010 C   0  0  0  0  0  0  0  0  0  0  0  0
    6.4313   -1.5138   -0.1996 C   0  0  1  0  0  0  0  0  0  0  0  0
    5.9550   -1.9468   -1.1235 H   0  0  0  0  0  0  0  0  0  0  0  0
    7.8788   -1.5639   -0.3454 N   0  0  0  0  0  0  0  0  0  0  0  0
    8.4303   -2.0756   -1.4826 N   0  0  0  0  0  0  0  0  0  0  0  0
    9.7679   -2.0215   -1.2769 C   0  0  0  0  0  0  0  0  0  0  0  0
   10.0703   -1.4893   -0.0266 N   0  0  0  0  0  0  0  0  0  0  0  0
    8.8887   -1.2114    0.5498 C   0  0  0  0  0  0  0  0  0  0  0  0
    6.0686   -2.3473    1.0573 C   0  0  0  0  0  0  0  0  0  0  0  0
    6.4427   -1.9436    2.1260 O   0  0  0  0  0  0  0  0  0  0  0  0
    5.3067   -3.6500    0.8734 C   0  0  0  0  0  0  0  0  0  0  0  0
    4.8815   -4.1652    2.2525 C   0  0  0  0  0  0  0  0  0  0  0  0
    4.0695   -3.4300   -0.0005 C   0  0  0  0  0  0  0  0  0  0  0  0
    6.2701   -4.6427    0.2123 C   0  0  0  0  0  0  0  0  0  0  0  0
    1.8284    0.0047    2.1622 H   0  0  0  0  0  0  0  0  0  0  0  0
    4.3152   -0.0071    2.1582 H   0  0  0  0  0  0  0  0  0  0  0  0
    4.3152   -0.0084   -2.1548 H   0  0  0  0  0  0  0  0  0  0  0  0
    1.8294    0.0028   -2.1614 H   0  0  0  0  0  0  0  0  0  0  0  0
    6.3753    0.3508    0.9481 H   0  0  0  0  0  0  0  0  0  0  0  0
    6.3765    0.5884   -0.8012 H   0  0  0  0  0  0  0  0  0  0  0  0
   10.5171   -2.3445   -1.9800 H   0  0  0  0  0  0  0  0  0  0  0  0
    8.7180   -0.8042    1.5344 H   0  0  0  0  0  0  0  0  0  0  0  0
    5.7364   -4.2215    2.9406 H   0  0  0  0  0  0  0  0  0  0  0  0
    4.4413   -5.1656    2.1883 H   0  0  0  0  0  0  0  0  0  0  0  0
    4.1429   -3.5036    2.7199 H   0  0  0  0  0  0  0  0  0  0  0  0
    4.3212   -3.2639   -1.0538 H   0  0  0  0  0  0  0  0  0  0  0  0
    3.4731   -2.5746    0.3424 H   0  0  0  0  0  0  0  0  0  0  0  0
    3.4112   -4.3079    0.0292 H   0  0  0  0  0  0  0  0  0  0  0  0
    6.6493   -4.2812   -0.7523 H   0  0  0  0  0  0  0  0  0  0  0  0
    5.7725   -5.6019    0.0232 H   0  0  0  0  0  0  0  0  0  0  0  0
    7.1387   -4.8514    0.8495 H   0  0  0  0  0  0  0  0  0  0  0  0
  1  2  1  0  0  0  0
  2  3  2  0  0  0  0
  3 22  1  0  0  0  0
  4  3  1  0  0  0  0
  4 23  1  0  0  0  0
  5  4  2  0  0  0  0
  6  5  1  0  0  0  0
  7  6  2  0  0  0  0
  7  2  1  0  0  0  0
  8  5  1  0  0  0  0
  8 26  1  0  0  0  0
  9 10  1  6  0  0  0
  9  8  1  0  0  0  0
  9 16  1  0  0  0  0
 11  9  1  0  0  0  0
 11 15  1  0  0  0  0
 12 13  2  0  0  0  0
 12 11  1  0  0  0  0
 13 14  2  0  0  0  0
 14 15  2  0  0  0  0
 15 29  1  0  0  0  0
 16 17  2  0  0  0  0
 18 16  1  0  0  0  0
 18 19  1  0  0  0  0
 19 32  1  0  0  0  0
 19 30  1  0  0  0  0
 20 35  1  0  0  0  0
 20 34  1  0  0  0  0
 20 18  1  0  0  0  0
 21 38  1  0  0  0  0
 21 18  1  0  0  0  0
 24  6  1  0  0  0  0
 25  7  1  0  0  0  0
 27  8  1  0  0  0  0
 28 13  1  0  0  0  0
 31 19  1  0  0  0  0
 33 20  1  0  0  0  0
 36 21  1  0  0  0  0
 37 21  1  0  0  0  0
M  END
$$$$
