38
rmsd69.gzmat
Cl         0.00000        0.00000        0.00000
C          1.71040        0.00000        0.00000
C          2.37540        0.00000        1.21920
C          3.76800       -0.01750        1.21220
C          4.46410       -0.03570        0.00050
C          3.76920       -0.01840       -1.21160
C          2.37610       -0.00340       -1.21890
C          5.95820       -0.10740        0.00300
C          6.40310       -1.56940       -0.21250
H          5.99960       -1.94890       -1.19260
N          7.85600       -1.65990       -0.23170
N          8.49610       -2.11600       -1.34560
C          9.81050       -2.11130       -1.01900
N         10.01070       -1.66550        0.28430
C          8.78870       -1.38940        0.76970
C          5.90590       -2.44300        0.96940
O          6.20570       -2.10620        2.08330
C          5.10440       -3.69720        0.65820
C          4.66970       -4.33760        1.98060
C          3.86950       -3.33560       -0.17070
C          6.01820       -4.65360       -0.11560
H          1.82850        0.01200        2.16210
H          4.31510       -0.02890        2.15750
H          4.31480       -0.01810       -2.15540
H          1.82890        0.00630       -2.16130
H          6.37850        0.28490        0.95510
H          6.39240        0.53790       -0.79170
H         10.61380       -2.40910       -1.67160
H          8.53900       -1.03500        1.75820
H          5.53440       -4.58380        2.61110
H          4.10560       -5.26060        1.81290
H          4.03740       -3.65810        2.56540
H          4.12500       -2.94800       -1.16260
H          3.24900       -2.58200        0.33210
H          3.23510       -4.21710       -0.32910
H          6.37590       -4.22230       -1.05890
H          5.48970       -5.58210       -0.36560
H          6.90260       -4.93480        0.46980
