38
rmsd191.gzmat
Cl         0.00000        0.00000        0.00000
C          1.71050        0.00000        0.00000
C          2.37540        0.00000        1.21940
C          3.76810       -0.00530        1.21290
C          4.46410       -0.01560        0.00100
C          3.76910       -0.00810       -1.21120
C          2.37640       -0.00130       -1.21880
C          5.95930       -0.05890        0.00100
C          6.43130       -1.51380       -0.19960
H          5.95500       -1.94680       -1.12350
N          7.87880       -1.56390       -0.34540
N          8.43030       -2.07560       -1.48260
C          9.76790       -2.02150       -1.27690
N         10.07030       -1.48930       -0.02660
C          8.88870       -1.21140        0.54980
C          6.06860       -2.34730        1.05730
O          6.44270       -1.94360        2.12600
C          5.30670       -3.65000        0.87340
C          4.88150       -4.16520        2.25250
C          4.06950       -3.43000       -0.00050
C          6.27010       -4.64270        0.21230
H          1.82840        0.00470        2.16220
H          4.31520       -0.00710        2.15820
H          4.31520       -0.00840       -2.15480
H          1.82940        0.00280       -2.16140
H          6.37530        0.35080        0.94810
H          6.37650        0.58840       -0.80120
H         10.51710       -2.34450       -1.98000
H          8.71800       -0.80420        1.53440
H          5.73640       -4.22150        2.94060
H          4.44130       -5.16560        2.18830
H          4.14290       -3.50360        2.71990
H          4.32120       -3.26390       -1.05380
H          3.47310       -2.57460        0.34240
H          3.41120       -4.30790        0.02920
H          6.64930       -4.28120       -0.75230
H          5.77250       -5.60190        0.02320
H          7.13870       -4.85140        0.84950
