rmsd110.gzmat
 OpenBabel08211713403D

 38 39  0  0  1  0  0  0  0  0999 V2000
    0.0000    0.0000    0.0000 Cl  0  0  0  0  0  0  0  0  0  0  0  0
    1.7104    0.0000    0.0000 C   0  0  0  0  0  0  0  0  0  0  0  0
    2.3755    0.0000    1.2193 C   0  0  0  0  0  0  0  0  0  0  0  0
    3.7680   -0.0116    1.2116 C   0  0  0  0  0  0  0  0  0  0  0  0
    4.4644   -0.0272   -0.0006 C   0  0  0  0  0  0  0  0  0  0  0  0
    3.7693   -0.0169   -1.2126 C   0  0  0  0  0  0  0  0  0  0  0  0
    2.3760   -0.0026   -1.2188 C   0  0  0  0  0  0  0  0  0  0  0  0
    5.9593   -0.0901    0.0038 C   0  0  0  0  0  0  0  0  0  0  0  0
    6.4049   -1.5627   -0.1149 C   0  0  1  0  0  0  0  0  0  0  0  0
    5.9873   -2.0070   -1.0615 H   0  0  0  0  0  0  0  0  0  0  0  0
    7.8572   -1.6606   -0.1452 N   0  0  0  0  0  0  0  0  0  0  0  0
    8.4838   -2.1581   -1.2494 N   0  0  0  0  0  0  0  0  0  0  0  0
    9.8003   -2.1625   -0.9316 C   0  0  0  0  0  0  0  0  0  0  0  0
   10.0156   -1.6813    0.3570 N   0  0  0  0  0  0  0  0  0  0  0  0
    8.8010   -1.3740    0.8420 C   0  0  0  0  0  0  0  0  0  0  0  0
    5.9226   -2.3528    1.1303 C   0  0  0  0  0  0  0  0  0  0  0  0
    6.2052   -1.9209    2.2158 O   0  0  0  0  0  0  0  0  0  0  0  0
    5.1524   -3.6461    0.9154 C   0  0  0  0  0  0  0  0  0  0  0  0
    4.7856   -4.2258    2.2855 C   0  0  0  0  0  0  0  0  0  0  0  0
    3.8791   -3.3584    0.1155 C   0  0  0  0  0  0  0  0  0  0  0  0
    6.0612   -4.6199    0.1582 C   0  0  0  0  0  0  0  0  0  0  0  0
    1.8290    0.0086    2.1625 H   0  0  0  0  0  0  0  0  0  0  0  0
    4.3155   -0.0209    2.1573 H   0  0  0  0  0  0  0  0  0  0  0  0
    4.3140   -0.0220   -2.1567 H   0  0  0  0  0  0  0  0  0  0  0  0
    1.8274    0.0072   -2.1603 H   0  0  0  0  0  0  0  0  0  0  0  0
    6.3780    0.3661    0.9278 H   0  0  0  0  0  0  0  0  0  0  0  0
    6.3907    0.5026   -0.8318 H   0  0  0  0  0  0  0  0  0  0  0  0
   10.5944   -2.4934   -1.5800 H   0  0  0  0  0  0  0  0  0  0  0  0
    8.5637   -0.9850    1.8209 H   0  0  0  0  0  0  0  0  0  0  0  0
    5.6778   -4.3898    2.9043 H   0  0  0  0  0  0  0  0  0  0  0  0
    4.2660   -5.1847    2.1900 H   0  0  0  0  0  0  0  0  0  0  0  0
    4.1351   -3.5437    2.8472 H   0  0  0  0  0  0  0  0  0  0  0  0
    4.0888   -3.0286   -0.9077 H   0  0  0  0  0  0  0  0  0  0  0  0
    3.2631   -2.5856    0.5942 H   0  0  0  0  0  0  0  0  0  0  0  0
    3.2560   -4.2584    0.0373 H   0  0  0  0  0  0  0  0  0  0  0  0
    6.3787   -4.2293   -0.8168 H   0  0  0  0  0  0  0  0  0  0  0  0
    5.5435   -5.5687   -0.0300 H   0  0  0  0  0  0  0  0  0  0  0  0
    6.9700   -4.8565    0.7256 H   0  0  0  0  0  0  0  0  0  0  0  0
  1  2  1  0  0  0  0
  2  3  2  0  0  0  0
  3 22  1  0  0  0  0
  4  3  1  0  0  0  0
  4 23  1  0  0  0  0
  5  8  1  0  0  0  0
  5  4  2  0  0  0  0
  6  5  1  0  0  0  0
  7  6  2  0  0  0  0
  7  2  1  0  0  0  0
  8 26  1  0  0  0  0
  9 10  1  6  0  0  0
  9  8  1  0  0  0  0
  9 16  1  0  0  0  0
 11  9  1  0  0  0  0
 11 15  1  0  0  0  0
 12 13  2  0  0  0  0
 12 11  1  0  0  0  0
 13 14  2  0  0  0  0
 14 15  2  0  0  0  0
 15 29  1  0  0  0  0
 16 17  2  0  0  0  0
 18 16  1  0  0  0  0
 18 19  1  0  0  0  0
 19 32  1  0  0  0  0
 19 30  1  0  0  0  0
 20 34  1  0  0  0  0
 20 18  1  0  0  0  0
 21 38  1  0  0  0  0
 21 18  1  0  0  0  0
 24  6  1  0  0  0  0
 25  7  1  0  0  0  0
 27  8  1  0  0  0  0
 28 13  1  0  0  0  0
 31 19  1  0  0  0  0
 33 20  1  0  0  0  0
 35 20  1  0  0  0  0
 36 21  1  0  0  0  0
 37 21  1  0  0  0  0
M  END
$$$$
