35
rmsd44.gzmat
N          0.00000        0.00000        0.00000
C          1.37560        0.00000        0.00000
N          2.16600        0.00000        1.11470
C          1.52420       -0.01190        2.31920
C          0.10170       -0.00390        2.41090
C         -0.59860       -0.00080        1.20380
C         -0.60970       -0.00620        3.71980
C         -0.26060        1.19580        4.55160
C         -0.28310        2.46850        3.97230
C          0.06040        3.58240        4.72790
C          0.43040        3.42970        6.08230
C          0.43610        2.15680        6.65530
C          0.09020        1.04440        5.89030
O          0.79000        4.39940        6.96420
C          0.92980        5.72750        6.47980
O          0.07420        4.86340        4.26270
C         -0.27250        5.05550        2.89730
N          2.34850       -0.07540        3.41440
N          2.00470        0.02480       -1.21490
H         -1.69740       -0.00120        1.17520
H         -0.38430       -0.94990        4.26720
H         -1.71400       -0.03120        3.57060
H         -0.56440        2.56460        2.92560
H          0.71090        2.04850        7.70380
H          0.08910        0.05970        6.35300
H          1.28700        6.25950        7.37180
H         -0.03770        6.12500        6.15440
H          1.67110        5.77900        5.67570
H         -1.30600        4.74770        2.70920
H          0.42760        4.53430        2.23610
H         -0.16910        6.14320        2.78600
H          1.98780        0.14790        4.32340
H          3.34010        0.00340        3.28170
H          1.46570       -0.00590       -2.05570
H          3.00090       -0.01950       -1.26490
