35

N          0.14300       -0.07140       -0.02830
C          1.47880        0.04750        0.03140
N          2.21950        0.12080        1.14730
C          1.57590        0.06630        2.31560
C          0.15940       -0.06780        2.38580
C         -0.47840       -0.12510        1.15210
C         -0.57420       -0.15280        3.69820
C         -0.40200        1.06640        4.59060
C         -0.49820        2.35490        4.03850
C         -0.35410        3.49590        4.83180
C         -0.08440        3.35370        6.21740
C          0.01610        2.07430        6.75750
C         -0.14510        0.93580        5.95760
O          0.02810        4.43330        7.04290
C          1.12020        5.31020        6.81430
O         -0.46220        4.76610        4.36680
C         -0.74270        4.96840        2.99930
N          2.33820        0.11300        3.44720
N          2.14560        0.12820       -1.15620
H         -1.57190       -0.22620        1.12230
H         -0.25040       -1.04540        4.26200
H         -1.64760       -0.29980        3.48690
H         -0.68700        2.44790        2.96940
H          0.21870        1.99210        7.82720
H         -0.06810       -0.05850        6.40510
H          1.09210        6.06340        7.61390
H          1.04480        5.81250        5.83770
H          2.08170        4.76690        6.86940
H         -1.71110        4.52190        2.71270
H          0.04660        4.54640        2.35220
H         -0.78980        6.05460        2.84770
H          1.90560        0.40080        4.31700
H          3.31000        0.36430        3.30970
H          1.63250       -0.09970       -1.99640
H          3.15120        0.03130       -1.14410
