35

N          0.12720        0.19730       -0.05500
C          1.46380        0.07700       -0.02140
N          2.21690       -0.09980        1.07440
C          1.58630       -0.15780        2.24960
C          0.17040       -0.03490        2.34760
C         -0.48110        0.13710        1.13190
C         -0.54880       -0.07620        3.67010
C         -0.36290       -1.37260        4.44280
C         -0.46110       -2.60440        3.77400
C         -0.30440       -3.81370        4.45600
C         -0.02000       -3.80000        5.84590
C          0.08250       -2.57610        6.50170
C         -0.09110       -1.36880        5.81310
O          0.10500       -4.95130        6.56600
C          1.19710       -5.79890        6.24510
O         -0.41340       -5.03550        3.87580
C         -0.70670       -5.11090        2.49820
N          2.36130       -0.30950        3.36330
N          2.11760        0.11110       -1.21840
H         -1.57510        0.23760        1.12370
H         -1.62500        0.08540        3.48490
H         -0.22170        0.76120        4.31140
H         -0.66150       -2.59820        2.70310
H          0.29660       -2.59310        7.57220
H         -0.01220       -0.42010        6.35050
H          1.18110       -6.62240        6.97250
H          2.15740       -5.25890        6.33840
H          1.11140       -6.20990        5.22750
H          0.07490       -4.62730        1.88570
H         -1.67930       -4.64390        2.26350
H         -0.75160       -6.17860        2.24670
H          1.93900       -0.67980        4.20650
H          3.33190       -0.54390        3.19180
H          1.59470        0.41630       -2.02760
H          3.12300        0.20940       -1.20820
