rmsd154.gzmat
 OpenBabel08211713383D

 35 36  0  0  1  0  0  0  0  0999 V2000
    0.0000    0.0000    0.0000 N   0  0  0  0  0  0  0  0  0  0  0  0
    1.3757    0.0000    0.0000 C   0  0  0  0  0  0  0  0  0  0  0  0
    2.1662    0.0000    1.1149 N   0  0  0  0  0  0  0  0  0  0  0  0
    1.5243    0.0298    2.3189 C   0  0  0  0  0  0  0  0  0  0  0  0
    0.1017    0.0290    2.4106 C   0  0  2  0  0  0  0  0  0  0  0  0
   -0.5987    0.0116    1.2038 C   0  0  0  0  0  0  0  0  0  0  0  0
   -0.6097    0.0532    3.7191 C   0  0  0  0  0  0  0  0  0  0  0  0
   -0.2530   -1.1265    4.5790 C   0  0  0  0  0  0  0  0  0  0  0  0
   -0.1822   -2.4009    4.0079 C   0  0  0  0  0  0  0  0  0  0  0  0
    0.1623   -3.4957    4.7899 C   0  0  0  0  0  0  0  0  0  0  0  0
    0.4227   -3.3241    6.1670 C   0  0  0  0  0  0  0  0  0  0  0  0
    0.3423   -2.0493    6.7299 C   0  0  0  0  0  0  0  0  0  0  0  0
    0.0081   -0.9543    5.9355 C   0  0  0  0  0  0  0  0  0  0  0  0
    0.7798   -4.2743    7.0711 O   0  0  0  0  0  0  0  0  0  0  0  0
    0.7067   -5.6344    6.6680 C   0  0  0  0  0  0  0  0  0  0  0  0
    0.2634   -4.7751    4.3305 O   0  0  0  0  0  0  0  0  0  0  0  0
    0.1572   -4.9604    2.9248 C   0  0  0  0  0  0  0  0  0  0  0  0
    2.3473    0.1026    3.4140 N   0  0  0  0  0  0  0  0  0  0  0  0
    2.0043   -0.0195   -1.2152 N   0  0  0  0  0  0  0  0  0  0  0  0
   -1.6972    0.0083    1.1758 H   0  0  0  0  0  0  0  0  0  0  0  0
   -1.7146    0.0623    3.5685 H   0  0  0  0  0  0  0  0  0  0  0  0
   -0.3942    1.0114    4.2450 H   0  0  0  0  0  0  0  0  0  0  0  0
   -0.3953   -2.5135    2.9466 H   0  0  0  0  0  0  0  0  0  0  0  0
    0.5422   -1.9259    7.7935 H   0  0  0  0  0  0  0  0  0  0  0  0
   -0.0584    0.0324    6.3891 H   0  0  0  0  0  0  0  0  0  0  0  0
    0.9208   -6.1622    7.6064 H   0  0  0  0  0  0  0  0  0  0  0  0
    1.4744   -5.8526    5.9176 H   0  0  0  0  0  0  0  0  0  0  0  0
   -0.2923   -5.8879    6.2998 H   0  0  0  0  0  0  0  0  0  0  0  0
    0.9403   -4.4072    2.3960 H   0  0  0  0  0  0  0  0  0  0  0  0
   -0.8391   -4.6828    2.5665 H   0  0  0  0  0  0  0  0  0  0  0  0
    0.3156   -6.0426    2.8241 H   0  0  0  0  0  0  0  0  0  0  0  0
    1.9814   -0.0974    4.3261 H   0  0  0  0  0  0  0  0  0  0  0  0
    3.3383    0.0100    3.2856 H   0  0  0  0  0  0  0  0  0  0  0  0
    1.4653    0.0100   -2.0557 H   0  0  0  0  0  0  0  0  0  0  0  0
    3.0009    0.0142   -1.2653 H   0  0  0  0  0  0  0  0  0  0  0  0
  1  2  2  0  0  0  0
  1  6  2  0  0  0  0
  2  3  2  0  0  0  0
  3  4  2  0  0  0  0
  4  5  1  0  0  0  0
  4 18  1  0  0  0  0
  5  7  1  6  0  0  0
  6  5  1  0  0  0  0
  7 22  1  0  0  0  0
  7  8  1  0  0  0  0
  8 13  1  0  0  0  0
  9  8  2  0  0  0  0
  9 10  1  0  0  0  0
 10 11  2  0  0  0  0
 11 12  1  0  0  0  0
 11 14  1  0  0  0  0
 12 24  1  0  0  0  0
 13 25  1  0  0  0  0
 13 12  2  0  0  0  0
 15 14  1  0  0  0  0
 15 26  1  0  0  0  0
 16 10  1  0  0  0  0
 17 16  1  0  0  0  0
 18 32  1  0  0  0  0
 19  2  1  0  0  0  0
 20  6  1  0  0  0  0
 21  7  1  0  0  0  0
 23  9  1  0  0  0  0
 27 15  1  0  0  0  0
 28 15  1  0  0  0  0
 29 17  1  0  0  0  0
 30 17  1  0  0  0  0
 31 17  1  0  0  0  0
 33 18  1  0  0  0  0
 34 19  1  0  0  0  0
 35 19  1  0  0  0  0
M  RAD  1   5   2
M  END
$$$$
