35
rmsd11.gzmat
N          0.00000        0.00000        0.00000
C          1.37570        0.00000        0.00000
N          2.16620        0.00000        1.11440
C          1.52420       -0.02300        2.31890
C          0.10170       -0.02320        2.41060
C         -0.59880       -0.00900        1.20350
C         -0.61190       -0.05060        3.71790
C         -0.25840        1.12000        4.59110
C         -0.11140        2.39030        4.02590
C          0.24500        3.47060        4.82310
C          0.42800        3.29140        6.21130
C          0.26390        2.02220        6.76960
C         -0.07240        0.93960        5.95930
O          0.79290        4.22500        7.12960
C          0.76760        5.58990        6.73560
O          0.44170        4.73920        4.36550
C          0.35840        4.93100        2.95890
N          2.34910       -0.08480        3.41310
N          2.00350        0.02500       -1.21560
H         -1.69760       -0.00500        1.17540
H         -0.39720       -1.01160        4.23940
H         -1.71630       -0.05900        3.56400
H         -0.27270        2.51130        2.95640
H          0.40350        1.89450        7.84220
H         -0.19800       -0.04400        6.40750
H          0.93670        6.10890        7.68840
H         -0.20230        5.86680        6.31130
H          1.58200        5.79700        6.03270
H         -0.66240        4.75830        2.60400
H          1.07650        4.29820        2.42760
H          0.62880        5.99000        2.85500
H          1.98570        0.12400        4.32430
H          3.34010        0.00360        3.28120
H          1.46380       -0.01800       -2.05540
H          3.00010       -0.01600       -1.26640
