
     RDKit          3D

 35 36  0  0  0  0  0  0  0  0999 V2000
    0.1272    0.1973   -0.0550 N   0  0  0  0  0  0  0  0  0  0  0  0
    1.4638    0.0770   -0.0214 C   0  0  0  0  0  0  0  0  0  0  0  0
    2.2169   -0.0998    1.0744 N   0  0  0  0  0  0  0  0  0  0  0  0
    1.5863   -0.1578    2.2496 C   0  0  0  0  0  0  0  0  0  0  0  0
    0.1704   -0.0349    2.3476 C   0  0  0  0  0  0  0  0  0  0  0  0
   -0.4811    0.1371    1.1319 C   0  0  0  0  0  0  0  0  0  0  0  0
   -0.5488   -0.0762    3.6701 C   0  0  0  0  0  0  0  0  0  0  0  0
   -0.3629   -1.3726    4.4428 C   0  0  0  0  0  0  0  0  0  0  0  0
   -0.4611   -2.6044    3.7740 C   0  0  0  0  0  0  0  0  0  0  0  0
   -0.3044   -3.8137    4.4560 C   0  0  0  0  0  0  0  0  0  0  0  0
   -0.0200   -3.8000    5.8459 C   0  0  0  0  0  0  0  0  0  0  0  0
    0.0825   -2.5761    6.5017 C   0  0  0  0  0  0  0  0  0  0  0  0
   -0.0911   -1.3688    5.8131 C   0  0  0  0  0  0  0  0  0  0  0  0
    0.1050   -4.9513    6.5660 O   0  0  0  0  0  0  0  0  0  0  0  0
    1.1971   -5.7989    6.2451 C   0  0  0  0  0  0  0  0  0  0  0  0
   -0.4134   -5.0355    3.8758 O   0  0  0  0  0  0  0  0  0  0  0  0
   -0.7067   -5.1109    2.4982 C   0  0  0  0  0  0  0  0  0  0  0  0
    2.3613   -0.3095    3.3633 N   0  0  0  0  0  0  0  0  0  0  0  0
    2.1176    0.1111   -1.2184 N   0  0  0  0  0  0  0  0  0  0  0  0
   -1.5751    0.2376    1.1237 H   0  0  0  0  0  0  0  0  0  0  0  0
   -1.6250    0.0854    3.4849 H   0  0  0  0  0  0  0  0  0  0  0  0
   -0.2217    0.7612    4.3114 H   0  0  0  0  0  0  0  0  0  0  0  0
   -0.6615   -2.5982    2.7031 H   0  0  0  0  0  0  0  0  0  0  0  0
    0.2966   -2.5931    7.5722 H   0  0  0  0  0  0  0  0  0  0  0  0
   -0.0122   -0.4201    6.3505 H   0  0  0  0  0  0  0  0  0  0  0  0
    1.1811   -6.6224    6.9725 H   0  0  0  0  0  0  0  0  0  0  0  0
    2.1574   -5.2589    6.3384 H   0  0  0  0  0  0  0  0  0  0  0  0
    1.1114   -6.2099    5.2275 H   0  0  0  0  0  0  0  0  0  0  0  0
    0.0749   -4.6273    1.8857 H   0  0  0  0  0  0  0  0  0  0  0  0
   -1.6793   -4.6439    2.2635 H   0  0  0  0  0  0  0  0  0  0  0  0
   -0.7516   -6.1786    2.2467 H   0  0  0  0  0  0  0  0  0  0  0  0
    1.9390   -0.6798    4.2065 H   0  0  0  0  0  0  0  0  0  0  0  0
    3.3319   -0.5439    3.1918 H   0  0  0  0  0  0  0  0  0  0  0  0
    1.5947    0.4163   -2.0276 H   0  0  0  0  0  0  0  0  0  0  0  0
    3.1230    0.2094   -1.2082 H   0  0  0  0  0  0  0  0  0  0  0  0
  1  2  2  0
  1  6  1  0
  2  3  1  0
  2 19  1  0
  3  4  2  0
  4  5  1  0
  4 18  1  0
  5  6  2  0
  5  7  1  0
  6 20  1  0
  7  8  1  0
  7 21  1  0
  7 22  1  0
  8  9  2  0
  8 13  1  0
  9 10  1  0
  9 23  1  0
 10 11  2  0
 10 16  1  0
 11 12  1  0
 11 14  1  0
 12 13  2  0
 12 24  1  0
 13 25  1  0
 14 15  1  0
 15 26  1  0
 15 27  1  0
 15 28  1  0
 16 17  1  0
 17 29  1  0
 17 30  1  0
 17 31  1  0
 18 32  1  0
 18 33  1  0
 19 34  1  0
 19 35  1  0
M  END

