rmsd155.gzmat
 OpenBabel08211713383D

 35 36  0  0  1  0  0  0  0  0999 V2000
    0.0000    0.0000    0.0000 N   0  0  0  0  0  0  0  0  0  0  0  0
    1.3756    0.0000    0.0000 C   0  0  0  0  0  0  0  0  0  0  0  0
    2.1656    0.0000    1.1150 N   0  0  0  0  0  0  0  0  0  0  0  0
    1.5235    0.0151    2.3191 C   0  0  0  0  0  0  0  0  0  0  0  0
    0.1009    0.0035    2.4111 C   0  0  2  0  0  0  0  0  0  0  0  0
   -0.5991   -0.0015    1.2038 C   0  0  0  0  0  0  0  0  0  0  0  0
   -0.6092   -0.0008    3.7212 C   0  0  0  0  0  0  0  0  0  0  0  0
   -0.2323   -1.1906    4.5589 C   0  0  0  0  0  0  0  0  0  0  0  0
   -0.1665   -2.4562    3.9675 C   0  0  0  0  0  0  0  0  0  0  0  0
    0.2188   -3.5576    4.7205 C   0  0  0  0  0  0  0  0  0  0  0  0
    0.5296   -3.4020    6.0893 C   0  0  0  0  0  0  0  0  0  0  0  0
    0.4402   -2.1383    6.6761 C   0  0  0  0  0  0  0  0  0  0  0  0
    0.0614   -1.0368    5.9110 C   0  0  0  0  0  0  0  0  0  0  0  0
    0.9327   -4.3567    6.9685 O   0  0  0  0  0  0  0  0  0  0  0  0
    1.0446   -5.6930    6.5003 C   0  0  0  0  0  0  0  0  0  0  0  0
    0.3298   -4.8266    4.2367 O   0  0  0  0  0  0  0  0  0  0  0  0
    0.0792   -5.0091    2.8491 C   0  0  0  0  0  0  0  0  0  0  0  0
    2.3484    0.0839    3.4133 N   0  0  0  0  0  0  0  0  0  0  0  0
    2.0055   -0.0261   -1.2144 N   0  0  0  0  0  0  0  0  0  0  0  0
   -1.6979   -0.0072    1.1748 H   0  0  0  0  0  0  0  0  0  0  0  0
   -1.7140   -0.0025    3.5732 H   0  0  0  0  0  0  0  0  0  0  0  0
   -0.4030    0.9510    4.2620 H   0  0  0  0  0  0  0  0  0  0  0  0
   -0.4119   -2.5556    2.9119 H   0  0  0  0  0  0  0  0  0  0  0  0
    0.6697   -2.0289    7.7354 H   0  0  0  0  0  0  0  0  0  0  0  0
   -0.0105   -0.0593    6.3836 H   0  0  0  0  0  0  0  0  0  0  0  0
    1.3675   -6.2251    7.4048 H   0  0  0  0  0  0  0  0  0  0  0  0
    1.8048   -5.7694    5.7155 H   0  0  0  0  0  0  0  0  0  0  0  0
    0.0757   -6.0693    6.1548 H   0  0  0  0  0  0  0  0  0  0  0  0
    0.7760   -4.4218    2.2416 H   0  0  0  0  0  0  0  0  0  0  0  0
   -0.9617   -4.7719    2.6063 H   0  0  0  0  0  0  0  0  0  0  0  0
    0.2696   -6.0833    2.7215 H   0  0  0  0  0  0  0  0  0  0  0  0
    1.9899   -0.1417    4.3227 H   0  0  0  0  0  0  0  0  0  0  0  0
    3.3404    0.0092    3.2783 H   0  0  0  0  0  0  0  0  0  0  0  0
    1.4677    0.0065   -2.0557 H   0  0  0  0  0  0  0  0  0  0  0  0
    3.0024    0.0175   -1.2628 H   0  0  0  0  0  0  0  0  0  0  0  0
  1  2  2  0  0  0  0
  1  6  2  0  0  0  0
  2  3  2  0  0  0  0
  3  4  2  0  0  0  0
  4  5  1  0  0  0  0
  4 18  1  0  0  0  0
  5  7  1  1  0  0  0
  6  5  1  0  0  0  0
  7 22  1  0  0  0  0
  7  8  1  0  0  0  0
  8 13  1  0  0  0  0
  9  8  2  0  0  0  0
  9 10  1  0  0  0  0
 10 11  2  0  0  0  0
 11 12  1  0  0  0  0
 11 14  1  0  0  0  0
 12 24  1  0  0  0  0
 13 25  1  0  0  0  0
 13 12  2  0  0  0  0
 15 14  1  0  0  0  0
 15 26  1  0  0  0  0
 16 10  1  0  0  0  0
 17 16  1  0  0  0  0
 18 32  1  0  0  0  0
 19  2  1  0  0  0  0
 20  6  1  0  0  0  0
 21  7  1  0  0  0  0
 23  9  1  0  0  0  0
 27 15  1  0  0  0  0
 28 15  1  0  0  0  0
 29 17  1  0  0  0  0
 30 17  1  0  0  0  0
 31 17  1  0  0  0  0
 33 18  1  0  0  0  0
 34 19  1  0  0  0  0
 35 19  1  0  0  0  0
M  RAD  1   5   2
M  END
$$$$
