35
rmsd57.gzmat
N          0.00000        0.00000        0.00000
C          1.37550        0.00000        0.00000
N          2.16570        0.00000        1.11520
C          1.52330       -0.03530        2.31880
C          0.10120       -0.05230        2.41010
C         -0.59880       -0.02610        1.20340
C         -0.60870       -0.11880        3.71750
C         -0.31250        1.06440        4.59480
C         -0.35120        2.35330        4.05490
C         -0.09340        3.45440        4.86200
C          0.19900        3.27170        6.23130
C          0.23910        1.97970        6.76020
C         -0.01370        0.88070        5.94240
O          0.44760        4.22480        7.16760
C          0.47850        5.58190        6.74890
O         -0.11620        4.74860        4.43370
C         -0.22130        4.95540        3.03040
N          2.34770       -0.09780        3.41410
N          2.00550        0.02080       -1.21420
H         -1.69770       -0.02890        1.17470
H         -0.35070       -1.07270        4.23240
H         -1.71210       -0.17710        3.56500
H         -0.58420        2.47370        2.99870
H          0.46460        1.84630        7.81740
H          0.01220       -0.11950        6.37050
H          0.72700        6.10340        7.68260
H         -0.50430        5.89570        6.38120
H          1.25770        5.74470        5.99700
H         -1.19020        4.60880        2.65610
H          0.60650        4.47600        2.49770
H         -0.14770        6.04840        2.95290
H          1.98370        0.11960        4.32320
H          3.33860       -0.01070        3.28070
H          1.46800       -0.00540       -2.05580
H          3.00220       -0.01790       -1.26290
