rmsd105.gzmat
 OpenBabel08211713383D

 35 36  0  0  1  0  0  0  0  0999 V2000
    0.0000    0.0000    0.0000 N   0  0  0  0  0  0  0  0  0  0  0  0
    1.3754    0.0000    0.0000 C   0  0  0  0  0  0  0  0  0  0  0  0
    2.1656    0.0000    1.1148 N   0  0  0  0  0  0  0  0  0  0  0  0
    1.5227   -0.0060    2.3184 C   0  0  0  0  0  0  0  0  0  0  0  0
    0.1008   -0.0286    2.4099 C   0  0  1  0  0  0  0  0  0  0  0  0
   -0.5995   -0.0168    1.2033 C   0  0  0  0  0  0  0  0  0  0  0  0
   -0.6059   -0.0742    3.7202 C   0  0  0  0  0  0  0  0  0  0  0  0
   -0.3023   -1.3436    4.4657 C   0  0  0  0  0  0  0  0  0  0  0  0
   -0.3519   -2.5660    3.7882 C   0  0  0  0  0  0  0  0  0  0  0  0
   -0.0545   -3.7458    4.4576 C   0  0  0  0  0  0  0  0  0  0  0  0
    0.2830   -3.7124    5.8282 C   0  0  0  0  0  0  0  0  0  0  0  0
    0.3186   -2.4884    6.4991 C   0  0  0  0  0  0  0  0  0  0  0  0
    0.0270   -1.3081    5.8176 C   0  0  0  0  0  0  0  0  0  0  0  0
    0.5857   -4.7607    6.6383 O   0  0  0  0  0  0  0  0  0  0  0  0
    0.6439   -6.0567    6.0600 C   0  0  0  0  0  0  0  0  0  0  0  0
   -0.0699   -4.9838    3.8871 O   0  0  0  0  0  0  0  0  0  0  0  0
   -0.2464   -5.0364    2.4771 C   0  0  0  0  0  0  0  0  0  0  0  0
    2.3428    0.0584    3.4171 N   0  0  0  0  0  0  0  0  0  0  0  0
    2.0045   -0.0344   -1.2152 N   0  0  0  0  0  0  0  0  0  0  0  0
   -1.6980   -0.0211    1.1753 H   0  0  0  0  0  0  0  0  0  0  0  0
   -1.7091    0.0036    3.5792 H   0  0  0  0  0  0  0  0  0  0  0  0
   -0.3422    0.8220    4.3259 H   0  0  0  0  0  0  0  0  0  0  0  0
   -0.6206   -2.5727    2.7339 H   0  0  0  0  0  0  0  0  0  0  0  0
    0.5750   -2.4718    7.5576 H   0  0  0  0  0  0  0  0  0  0  0  0
    0.0478   -0.3633    6.3562 H   0  0  0  0  0  0  0  0  0  0  0  0
    0.9225   -6.6799    6.9197 H   0  0  0  0  0  0  0  0  0  0  0  0
    1.4120   -6.1044    5.2814 H   0  0  0  0  0  0  0  0  0  0  0  0
   -0.3364   -6.3537    5.6717 H   0  0  0  0  0  0  0  0  0  0  0  0
    0.5197   -4.4520    1.9572 H   0  0  0  0  0  0  0  0  0  0  0  0
   -1.2538   -4.7086    2.2016 H   0  0  0  0  0  0  0  0  0  0  0  0
   -0.1186   -6.1071    2.2701 H   0  0  0  0  0  0  0  0  0  0  0  0
    1.9820   -0.1881    4.3197 H   0  0  0  0  0  0  0  0  0  0  0  0
    3.3358   -0.0075    3.2857 H   0  0  0  0  0  0  0  0  0  0  0  0
    1.4665    0.0268   -2.0550 H   0  0  0  0  0  0  0  0  0  0  0  0
    3.0003    0.0275   -1.2640 H   0  0  0  0  0  0  0  0  0  0  0  0
  1  2  2  0  0  0  0
  1  6  2  0  0  0  0
  2  3  2  0  0  0  0
  3  4  2  0  0  0  0
  4  5  1  0  0  0  0
  4 18  1  0  0  0  0
  5  7  1  6  0  0  0
  6  5  1  0  0  0  0
  7 22  1  0  0  0  0
  7  8  1  0  0  0  0
  8 13  2  0  0  0  0
  9 10  2  0  0  0  0
  9  8  1  0  0  0  0
 10 11  1  0  0  0  0
 11 12  2  0  0  0  0
 11 14  1  0  0  0  0
 12 24  1  0  0  0  0
 13 25  1  0  0  0  0
 13 12  1  0  0  0  0
 15 14  1  0  0  0  0
 15 26  1  0  0  0  0
 16 10  1  0  0  0  0
 17 16  1  0  0  0  0
 18 32  1  0  0  0  0
 19  2  1  0  0  0  0
 20  6  1  0  0  0  0
 21  7  1  0  0  0  0
 23  9  1  0  0  0  0
 27 15  1  0  0  0  0
 28 15  1  0  0  0  0
 29 17  1  0  0  0  0
 30 17  1  0  0  0  0
 31 17  1  0  0  0  0
 33 18  1  0  0  0  0
 34 19  1  0  0  0  0
 35 19  1  0  0  0  0
M  RAD  1   5   2
M  END
$$$$
