rmsd196.gzmat
 OpenBabel08211713383D

 35 36  0  0  1  0  0  0  0  0999 V2000
    0.0000    0.0000    0.0000 N   0  0  0  0  0  0  0  0  0  0  0  0
    1.3755    0.0000    0.0000 C   0  0  0  0  0  0  0  0  0  0  0  0
    2.1659    0.0000    1.1147 N   0  0  0  0  0  0  0  0  0  0  0  0
    1.5239   -0.0060    2.3191 C   0  0  0  0  0  0  0  0  0  0  0  0
    0.1017    0.0086    2.4107 C   0  0  1  0  0  0  0  0  0  0  0  0
   -0.5987    0.0065    1.2039 C   0  0  0  0  0  0  0  0  0  0  0  0
   -0.6088    0.0179    3.7196 C   0  0  0  0  0  0  0  0  0  0  0  0
   -0.2626    1.2236    4.5477 C   0  0  0  0  0  0  0  0  0  0  0  0
   -0.2025    2.4851    3.9475 C   0  0  0  0  0  0  0  0  0  0  0  0
    0.1263    3.6021    4.7051 C   0  0  0  0  0  0  0  0  0  0  0  0
    0.3876    3.4652    6.0860 C   0  0  0  0  0  0  0  0  0  0  0  0
    0.3159    2.2032    6.6786 C   0  0  0  0  0  0  0  0  0  0  0  0
   -0.0056    1.0868    5.9092 C   0  0  0  0  0  0  0  0  0  0  0  0
    0.7414    4.4364    6.9684 O   0  0  0  0  0  0  0  0  0  0  0  0
    0.6892    5.7872    6.5316 C   0  0  0  0  0  0  0  0  0  0  0  0
    0.2235    4.8701    4.2148 O   0  0  0  0  0  0  0  0  0  0  0  0
   -0.0102    5.0379    2.8223 C   0  0  0  0  0  0  0  0  0  0  0  0
    2.3460   -0.0726    3.4155 N   0  0  0  0  0  0  0  0  0  0  0  0
    2.0059    0.0288   -1.2147 N   0  0  0  0  0  0  0  0  0  0  0  0
   -1.6974    0.0084    1.1755 H   0  0  0  0  0  0  0  0  0  0  0  0
   -0.3867   -0.9237    4.2723 H   0  0  0  0  0  0  0  0  0  0  0  0
   -1.7133   -0.0039    3.5692 H   0  0  0  0  0  0  0  0  0  0  0  0
   -0.4084    2.5700    2.8824 H   0  0  0  0  0  0  0  0  0  0  0  0
    0.5123    2.1063    7.7455 H   0  0  0  0  0  0  0  0  0  0  0  0
   -0.0649    0.1106    6.3857 H   0  0  0  0  0  0  0  0  0  0  0  0
    0.9088    6.3366    7.4566 H   0  0  0  0  0  0  0  0  0  0  0  0
   -0.3052    6.0460    6.1551 H   0  0  0  0  0  0  0  0  0  0  0  0
    1.4608    5.9754    5.7774 H   0  0  0  0  0  0  0  0  0  0  0  0
   -1.0326    4.7494    2.5592 H   0  0  0  0  0  0  0  0  0  0  0  0
    0.7255    4.4840    2.2303 H   0  0  0  0  0  0  0  0  0  0  0  0
    0.1304    6.1194    2.6950 H   0  0  0  0  0  0  0  0  0  0  0  0
    1.9835    0.1524    4.3232 H   0  0  0  0  0  0  0  0  0  0  0  0
    3.3381    0.0044    3.2848 H   0  0  0  0  0  0  0  0  0  0  0  0
    1.4697   -0.0280   -2.0561 H   0  0  0  0  0  0  0  0  0  0  0  0
    3.0021   -0.0191   -1.2614 H   0  0  0  0  0  0  0  0  0  0  0  0
  1  2  2  0  0  0  0
  1  6  2  0  0  0  0
  2  3  2  0  0  0  0
  3  4  2  0  0  0  0
  4  5  1  0  0  0  0
  4 18  1  0  0  0  0
  5  7  1  1  0  0  0
  6  5  1  0  0  0  0
  7 21  1  0  0  0  0
  7  8  1  0  0  0  0
  8 13  1  0  0  0  0
  9  8  2  0  0  0  0
  9 10  1  0  0  0  0
 10 11  2  0  0  0  0
 11 12  1  0  0  0  0
 11 14  1  0  0  0  0
 12 24  1  0  0  0  0
 13 25  1  0  0  0  0
 13 12  2  0  0  0  0
 15 14  1  0  0  0  0
 15 26  1  0  0  0  0
 16 10  1  0  0  0  0
 17 16  1  0  0  0  0
 18 32  1  0  0  0  0
 19  2  1  0  0  0  0
 20  6  1  0  0  0  0
 22  7  1  0  0  0  0
 23  9  1  0  0  0  0
 27 15  1  0  0  0  0
 28 15  1  0  0  0  0
 29 17  1  0  0  0  0
 30 17  1  0  0  0  0
 31 17  1  0  0  0  0
 33 18  1  0  0  0  0
 34 19  1  0  0  0  0
 35 19  1  0  0  0  0
M  RAD  1   5   2
M  END
$$$$
