43
rmsd14.gzmat
C          0.00000        0.00000        0.00000
C          1.48240        0.00000        0.00000
C          2.21690        0.00000        1.24100
N          3.53450        0.03120        1.29140
C          4.25800        0.04280        0.12490
C          3.63150        0.02360       -1.14930
C          2.20770        0.01060       -1.17110
C          1.48340       -0.00320       -2.45840
O          0.59960       -0.74120       -2.80770
O          1.92470        0.98670       -3.27650
C          4.44530        0.01440       -2.30930
C          5.80950        0.04070       -2.15220
C          6.45620        0.07490       -0.89110
C          5.68080        0.07250        0.23710
F          6.57990        0.03260       -3.22910
C          1.50750       -0.03860        2.53570
C          0.92070       -1.23080        2.96490
C          0.26170       -1.27060        4.18890
C          0.19450       -0.12320        4.98470
C          0.78480        1.06660        4.55130
C          1.44540        1.10910        3.32680
C         -0.48770       -0.17820        6.28320
C         -1.83530       -0.54030        6.35190
C         -2.47510       -0.60200        7.58710
C         -1.77160       -0.30860        8.75430
C         -0.42670        0.05150        8.68610
C          0.21610        0.12070        7.45260
H         -0.44110        0.00760        1.00820
H         -0.40170       -0.89180       -0.51780
H         -0.41030        0.87590       -0.52880
H          1.44590        1.02300       -4.14400
H          3.98720       -0.00120       -3.29980
H          7.54410        0.10100       -0.83480
H          6.11750        0.09210        1.23890
H          0.98720       -2.12710        2.34890
H         -0.19380       -2.19690        4.53580
H          0.72710        1.95850        5.17320
H          1.92230        2.02950        2.99070
H         -2.38310       -0.76970        5.43980
H         -3.52570       -0.88090        7.64090
H         -2.27250       -0.36210        9.71850
H          0.12290        0.27730        9.59810
H          1.26760        0.39830        7.39700
