
     RDKit          3D

 43 46  0  0  0  0  0  0  0  0999 V2000
   -0.0620   -0.1192   -0.1833 C   0  0  0  0  0  0  0  0  0  0  0  0
    1.4445   -0.0710   -0.1106 C   0  0  0  0  0  0  0  0  0  0  0  0
    2.1211    0.0485    1.1572 C   0  0  0  0  0  0  0  0  0  0  0  0
    3.4244    0.2304    1.2494 N   0  0  0  0  0  0  0  0  0  0  0  0
    4.1954    0.2461    0.1399 C   0  0  0  0  0  0  0  0  0  0  0  0
    3.6507    0.0743   -1.1741 C   0  0  0  0  0  0  0  0  0  0  0  0
    2.2293   -0.0703   -1.2613 C   0  0  0  0  0  0  0  0  0  0  0  0
    1.5541   -0.2634   -2.5868 C   0  0  0  0  0  0  0  0  0  0  0  0
    0.7036   -1.0907   -2.8067 O   0  0  0  0  0  0  0  0  0  0  0  0
    1.9750    0.5989   -3.5345 O   0  0  0  0  0  0  0  0  0  0  0  0
    4.5406    0.0524   -2.2824 C   0  0  0  0  0  0  0  0  0  0  0  0
    5.8887    0.2127   -2.0690 C   0  0  0  0  0  0  0  0  0  0  0  0
    6.4424    0.4025   -0.7837 C   0  0  0  0  0  0  0  0  0  0  0  0
    5.5995    0.4174    0.3027 C   0  0  0  0  0  0  0  0  0  0  0  0
    6.7253    0.1937   -3.1157 F   0  0  0  0  0  0  0  0  0  0  0  0
    1.3993   -0.0024    2.4603 C   0  0  0  0  0  0  0  0  0  0  0  0
    0.4170   -0.9645    2.7452 C   0  0  0  0  0  0  0  0  0  0  0  0
   -0.1927   -1.0155    3.9971 C   0  0  0  0  0  0  0  0  0  0  0  0
    0.1487   -0.1034    5.0110 C   0  0  0  0  0  0  0  0  0  0  0  0
    1.1427    0.8508    4.7246 C   0  0  0  0  0  0  0  0  0  0  0  0
    1.7626    0.8933    3.4797 C   0  0  0  0  0  0  0  0  0  0  0  0
   -0.5106   -0.1512    6.3385 C   0  0  0  0  0  0  0  0  0  0  0  0
   -1.8705   -0.4912    6.4586 C   0  0  0  0  0  0  0  0  0  0  0  0
   -2.4916   -0.5370    7.7074 C   0  0  0  0  0  0  0  0  0  0  0  0
   -1.7663   -0.2439    8.8656 C   0  0  0  0  0  0  0  0  0  0  0  0
   -0.4143    0.0953    8.7625 C   0  0  0  0  0  0  0  0  0  0  0  0
    0.2060    0.1413    7.5134 C   0  0  0  0  0  0  0  0  0  0  0  0
   -0.5112    0.3540    0.6980 H   0  0  0  0  0  0  0  0  0  0  0  0
   -0.4283   -1.1557   -0.2410 H   0  0  0  0  0  0  0  0  0  0  0  0
   -0.4372    0.3887   -1.0811 H   0  0  0  0  0  0  0  0  0  0  0  0
    1.4815    0.3784   -4.3443 H   0  0  0  0  0  0  0  0  0  0  0  0
    4.1782   -0.0697   -3.3003 H   0  0  0  0  0  0  0  0  0  0  0  0
    7.5221    0.5265   -0.6849 H   0  0  0  0  0  0  0  0  0  0  0  0
    5.9725    0.5482    1.3194 H   0  0  0  0  0  0  0  0  0  0  0  0
    0.1490   -1.7093    1.9948 H   0  0  0  0  0  0  0  0  0  0  0  0
   -0.9258   -1.7982    4.2018 H   0  0  0  0  0  0  0  0  0  0  0  0
    1.4184    1.5845    5.4847 H   0  0  0  0  0  0  0  0  0  0  0  0
    2.5413    1.6295    3.2752 H   0  0  0  0  0  0  0  0  0  0  0  0
   -2.4537   -0.6975    5.5587 H   0  0  0  0  0  0  0  0  0  0  0  0
   -3.5512   -0.7952    7.7755 H   0  0  0  0  0  0  0  0  0  0  0  0
   -2.2521   -0.2798    9.8435 H   0  0  0  0  0  0  0  0  0  0  0  0
    0.1646    0.3177    9.6623 H   0  0  0  0  0  0  0  0  0  0  0  0
    1.2689    0.3826    7.4482 H   0  0  0  0  0  0  0  0  0  0  0  0
  1  2  1  0
  1 28  1  0
  1 29  1  0
  1 30  1  0
  2  3  2  0
  2  7  1  0
  3  4  1  0
  3 16  1  0
  4  5  2  0
  5  6  1  0
  5 14  1  0
  6  7  2  0
  6 11  1  0
  7  8  1  0
  8  9  2  0
  8 10  1  0
 10 31  1  0
 11 12  2  0
 11 32  1  0
 12 13  1  0
 12 15  1  0
 13 14  2  0
 13 33  1  0
 14 34  1  0
 16 17  2  0
 16 21  1  0
 17 18  1  0
 17 35  1  0
 18 19  2  0
 18 36  1  0
 19 20  1  0
 19 22  1  0
 20 21  2  0
 20 37  1  0
 21 38  1  0
 22 23  2  0
 22 27  1  0
 23 24  1  0
 23 39  1  0
 24 25  2  0
 24 40  1  0
 25 26  1  0
 25 41  1  0
 26 27  2  0
 26 42  1  0
 27 43  1  0
M  END

