rmsd15.gzmat
 OpenBabel08211713413D

 43 46  0  0  1  0  0  0  0  0999 V2000
    0.0000    0.0000    0.0000 C   0  0  0  0  0  0  0  0  0  0  0  0
    1.4825    0.0000    0.0000 C   0  0  0  0  0  0  0  0  0  0  0  0
    2.2156    0.0000    1.2420 C   0  0  0  0  0  0  0  0  0  0  0  0
    3.5329    0.0302    1.2933 N   0  0  0  0  0  0  0  0  0  0  0  0
    4.2576    0.0433    0.1271 C   0  0  0  0  0  0  0  0  0  0  0  0
    3.6324    0.0256   -1.1479 C   0  0  2  0  0  0  0  0  0  0  0  0
    2.2086    0.0106   -1.1705 C   0  0  0  0  0  0  0  0  0  0  0  0
    1.4838   -0.0098   -2.4575 C   0  0  0  0  0  0  0  0  0  0  0  0
    0.5998   -0.7496   -2.8015 O   0  0  0  0  0  0  0  0  0  0  0  0
    1.9238    0.9754   -3.2820 O   0  0  0  0  0  0  0  0  0  0  0  0
    4.4465    0.0139   -2.3076 C   0  0  0  0  0  0  0  0  0  0  0  0
    5.8106    0.0286   -2.1497 C   0  0  0  0  0  0  0  0  0  0  0  0
    6.4563    0.0625   -0.8880 C   0  0  0  0  0  0  0  0  0  0  0  0
    5.6804    0.0700    0.2398 C   0  0  0  0  0  0  0  0  0  0  0  0
    6.5819    0.0098   -3.2256 F   0  0  0  0  0  0  0  0  0  0  0  0
    1.5000   -0.0329    2.5339 C   0  0  0  0  0  0  0  0  0  0  0  0
    0.9573   -1.2339    2.9944 C   0  0  0  0  0  0  0  0  0  0  0  0
    0.2852   -1.2634    4.2121 C   0  0  0  0  0  0  0  0  0  0  0  0
    0.1634   -0.0964    4.9722 C   0  0  0  0  0  0  0  0  0  0  0  0
    0.7115    1.1022    4.5076 C   0  0  0  0  0  0  0  0  0  0  0  0
    1.3825    1.1347    3.2887 C   0  0  0  0  0  0  0  0  0  0  0  0
   -0.5284   -0.1351    6.2662 C   0  0  0  0  0  0  0  0  0  0  0  0
   -1.8504   -0.5803    6.3431 C   0  0  0  0  0  0  0  0  0  0  0  0
   -2.4972   -0.6261    7.5756 C   0  0  0  0  0  0  0  0  0  0  0  0
   -1.8267   -0.2334    8.7329 C   0  0  0  0  0  0  0  0  0  0  0  0
   -0.5086    0.2142    8.6562 C   0  0  0  0  0  0  0  0  0  0  0  0
    0.1405    0.2672    7.4253 C   0  0  0  0  0  0  0  0  0  0  0  0
   -0.4405    0.0274    1.0080 H   0  0  0  0  0  0  0  0  0  0  0  0
   -0.4023   -0.9021   -0.4990 H   0  0  0  0  0  0  0  0  0  0  0  0
   -0.4097    0.8643   -0.5477 H   0  0  0  0  0  0  0  0  0  0  0  0
    1.4413    1.0076   -4.1476 H   0  0  0  0  0  0  0  0  0  0  0  0
    3.9889    0.0038   -3.2984 H   0  0  0  0  0  0  0  0  0  0  0  0
    7.5444    0.0809   -0.8318 H   0  0  0  0  0  0  0  0  0  0  0  0
    6.1162    0.0941    1.2418 H   0  0  0  0  0  0  0  0  0  0  0  0
    1.0689   -2.1453    2.4082 H   0  0  0  0  0  0  0  0  0  0  0  0
   -0.1368   -2.1968    4.5815 H   0  0  0  0  0  0  0  0  0  0  0  0
    0.6117    2.0097    5.1010 H   0  0  0  0  0  0  0  0  0  0  0  0
    1.8234    2.0637    2.9288 H   0  0  0  0  0  0  0  0  0  0  0  0
   -2.3733   -0.8856    5.4388 H   0  0  0  0  0  0  0  0  0  0  0  0
   -3.5280   -0.9699    7.6342 H   0  0  0  0  0  0  0  0  0  0  0  0
   -2.3321   -0.2767    9.6955 H   0  0  0  0  0  0  0  0  0  0  0  0
    0.0153    0.5221    9.5592 H   0  0  0  0  0  0  0  0  0  0  0  0
    1.1709    0.6141    7.3629 H   0  0  0  0  0  0  0  0  0  0  0  0
  1  2  1  0  0  0  0
  1 28  1  0  0  0  0
  2  3  1  0  0  0  0
  3  4  2  0  0  0  0
  3 16  1  0  0  0  0
  5 14  1  0  0  0  0
  5  4  2  0  0  0  0
  6 11  1  1  0  0  0
  6  5  1  0  0  0  0
  7  6  1  0  0  0  0
  7  2  2  0  0  0  0
  8  7  1  0  0  0  0
  9  8  2  0  0  0  0
 10  8  1  0  0  0  0
 11 12  2  0  0  0  0
 12 13  1  0  0  0  0
 13 33  1  0  0  0  0
 13 14  2  0  0  0  0
 14 34  1  0  0  0  0
 15 12  1  0  0  0  0
 16 17  2  0  0  0  0
 16 21  1  0  0  0  0
 17 18  1  0  0  0  0
 18 36  1  0  0  0  0
 18 19  2  0  0  0  0
 19 22  1  0  0  0  0
 20 19  1  0  0  0  0
 20 37  1  0  0  0  0
 21 20  2  0  0  0  0
 22 23  2  0  0  0  0
 22 27  1  0  0  0  0
 23 24  1  0  0  0  0
 24 40  1  0  0  0  0
 24 25  2  0  0  0  0
 25 41  1  0  0  0  0
 26 25  1  0  0  0  0
 26 42  1  0  0  0  0
 27 26  2  0  0  0  0
 29  1  1  0  0  0  0
 30  1  1  0  0  0  0
 31 10  1  0  0  0  0
 32 11  1  0  0  0  0
 35 17  1  0  0  0  0
 38 21  1  0  0  0  0
 39 23  1  0  0  0  0
 43 27  1  0  0  0  0
M  RAD  1   6   2
M  END
$$$$
