rmsd14.gzmat
 OpenBabel08211713413D

 43 46  0  0  1  0  0  0  0  0999 V2000
    0.0000    0.0000    0.0000 C   0  0  0  0  0  0  0  0  0  0  0  0
    1.4824    0.0000    0.0000 C   0  0  0  0  0  0  0  0  0  0  0  0
    2.2169    0.0000    1.2410 C   0  0  0  0  0  0  0  0  0  0  0  0
    3.5345    0.0312    1.2914 N   0  0  0  0  0  0  0  0  0  0  0  0
    4.2580    0.0428    0.1249 C   0  0  0  0  0  0  0  0  0  0  0  0
    3.6315    0.0236   -1.1493 C   0  0  2  0  0  0  0  0  0  0  0  0
    2.2077    0.0106   -1.1711 C   0  0  0  0  0  0  0  0  0  0  0  0
    1.4834   -0.0032   -2.4584 C   0  0  0  0  0  0  0  0  0  0  0  0
    0.5996   -0.7412   -2.8077 O   0  0  0  0  0  0  0  0  0  0  0  0
    1.9247    0.9867   -3.2765 O   0  0  0  0  0  0  0  0  0  0  0  0
    4.4453    0.0144   -2.3093 C   0  0  0  0  0  0  0  0  0  0  0  0
    5.8095    0.0407   -2.1522 C   0  0  0  0  0  0  0  0  0  0  0  0
    6.4562    0.0749   -0.8911 C   0  0  0  0  0  0  0  0  0  0  0  0
    5.6808    0.0725    0.2371 C   0  0  0  0  0  0  0  0  0  0  0  0
    6.5799    0.0326   -3.2291 F   0  0  0  0  0  0  0  0  0  0  0  0
    1.5075   -0.0386    2.5357 C   0  0  0  0  0  0  0  0  0  0  0  0
    0.9207   -1.2308    2.9649 C   0  0  0  0  0  0  0  0  0  0  0  0
    0.2617   -1.2706    4.1889 C   0  0  0  0  0  0  0  0  0  0  0  0
    0.1945   -0.1232    4.9847 C   0  0  0  0  0  0  0  0  0  0  0  0
    0.7848    1.0666    4.5513 C   0  0  0  0  0  0  0  0  0  0  0  0
    1.4454    1.1091    3.3268 C   0  0  0  0  0  0  0  0  0  0  0  0
   -0.4877   -0.1782    6.2832 C   0  0  0  0  0  0  0  0  0  0  0  0
   -1.8353   -0.5403    6.3519 C   0  0  0  0  0  0  0  0  0  0  0  0
   -2.4751   -0.6020    7.5871 C   0  0  0  0  0  0  0  0  0  0  0  0
   -1.7716   -0.3086    8.7543 C   0  0  0  0  0  0  0  0  0  0  0  0
   -0.4267    0.0515    8.6861 C   0  0  0  0  0  0  0  0  0  0  0  0
    0.2161    0.1207    7.4526 C   0  0  0  0  0  0  0  0  0  0  0  0
   -0.4411    0.0076    1.0082 H   0  0  0  0  0  0  0  0  0  0  0  0
   -0.4017   -0.8918   -0.5178 H   0  0  0  0  0  0  0  0  0  0  0  0
   -0.4103    0.8759   -0.5288 H   0  0  0  0  0  0  0  0  0  0  0  0
    1.4459    1.0230   -4.1440 H   0  0  0  0  0  0  0  0  0  0  0  0
    3.9872   -0.0012   -3.2998 H   0  0  0  0  0  0  0  0  0  0  0  0
    7.5441    0.1010   -0.8348 H   0  0  0  0  0  0  0  0  0  0  0  0
    6.1175    0.0921    1.2389 H   0  0  0  0  0  0  0  0  0  0  0  0
    0.9872   -2.1271    2.3489 H   0  0  0  0  0  0  0  0  0  0  0  0
   -0.1938   -2.1969    4.5358 H   0  0  0  0  0  0  0  0  0  0  0  0
    0.7271    1.9585    5.1732 H   0  0  0  0  0  0  0  0  0  0  0  0
    1.9223    2.0295    2.9907 H   0  0  0  0  0  0  0  0  0  0  0  0
   -2.3831   -0.7697    5.4398 H   0  0  0  0  0  0  0  0  0  0  0  0
   -3.5257   -0.8809    7.6409 H   0  0  0  0  0  0  0  0  0  0  0  0
   -2.2725   -0.3621    9.7185 H   0  0  0  0  0  0  0  0  0  0  0  0
    0.1229    0.2773    9.5981 H   0  0  0  0  0  0  0  0  0  0  0  0
    1.2676    0.3983    7.3970 H   0  0  0  0  0  0  0  0  0  0  0  0
  1  2  1  0  0  0  0
  1 28  1  0  0  0  0
  2  3  1  0  0  0  0
  3  4  2  0  0  0  0
  3 16  1  0  0  0  0
  5 14  1  0  0  0  0
  5  4  2  0  0  0  0
  6 11  1  1  0  0  0
  6  5  1  0  0  0  0
  7  6  1  0  0  0  0
  7  2  2  0  0  0  0
  8  7  1  0  0  0  0
  9  8  2  0  0  0  0
 10  8  1  0  0  0  0
 11 12  2  0  0  0  0
 12 13  1  0  0  0  0
 13 33  1  0  0  0  0
 13 14  2  0  0  0  0
 14 34  1  0  0  0  0
 15 12  1  0  0  0  0
 16 17  2  0  0  0  0
 16 21  1  0  0  0  0
 17 18  1  0  0  0  0
 18 36  1  0  0  0  0
 18 19  2  0  0  0  0
 19 22  1  0  0  0  0
 20 19  1  0  0  0  0
 20 37  1  0  0  0  0
 21 20  2  0  0  0  0
 22 23  2  0  0  0  0
 22 27  1  0  0  0  0
 23 24  1  0  0  0  0
 24 40  1  0  0  0  0
 24 25  2  0  0  0  0
 25 41  1  0  0  0  0
 26 25  1  0  0  0  0
 26 42  1  0  0  0  0
 27 26  2  0  0  0  0
 29  1  1  0  0  0  0
 30  1  1  0  0  0  0
 31 10  1  0  0  0  0
 32 11  1  0  0  0  0
 35 17  1  0  0  0  0
 38 21  1  0  0  0  0
 39 23  1  0  0  0  0
 43 27  1  0  0  0  0
M  RAD  1   6   2
M  END
$$$$
