43

C         -0.05830       -0.29290       -0.22040
C          1.44130       -0.14820       -0.13400
C          2.09310        0.05950        1.13540
N          3.38120        0.32570        1.23450
C          4.16390        0.34900        0.13320
C          3.64770        0.09580       -1.17910
C          2.23910       -0.14040       -1.27560
C          1.59410       -0.42340       -2.60010
O          0.79970       -1.30990       -2.79800
O          1.97240        0.42870       -3.57450
C          4.55110        0.08910       -2.27650
C          5.88390        0.34120       -2.05520
C          6.40830        0.61190       -0.77220
C          5.55250        0.61370        0.30410
F          6.73330        0.33640       -3.09180
C          1.35880        0.01110        2.43180
C          0.44040       -1.00390        2.74410
C         -0.18170       -1.04710        3.99030
C          0.08310       -0.07470        4.97030
C          1.01390        0.93330        4.65690
C          1.64660        0.96890        3.41830
C         -0.58960       -0.11330        6.29150
C         -0.87830       -1.33750        6.92190
C         -1.51080       -1.37280        8.16520
C         -1.86990       -0.18410        8.80690
C         -1.58970        1.03990        8.19310
C         -0.95660        1.07450        6.95000
H         -0.54710        0.18270        0.63830
H         -0.35890       -1.35160       -0.24380
H         -0.45290        0.15810       -1.14000
H          1.50390        0.14850       -4.38070
H          4.20990       -0.09230       -3.29280
H          7.47690        0.80680       -0.66680
H          5.90370        0.80450        1.31910
H          0.22000       -1.78430        2.01460
H         -0.90190       -1.84060        4.19940
H          1.26620        1.68390        5.40870
H          2.38980        1.73700        3.19920
H         -0.57950       -2.27210        6.44280
H         -1.71680       -2.33520        8.64010
H         -2.36510       -0.21160        9.78030
H         -1.87330        1.97520        8.68190
H         -0.76510        2.03600        6.46920
