
     RDKit          3D

 43 46  0  0  0  0  0  0  0  0999 V2000
   -0.0717    0.1688   -0.2055 C   0  0  0  0  0  0  0  0  0  0  0  0
    1.4342    0.1078   -0.1182 C   0  0  0  0  0  0  0  0  0  0  0  0
    2.1045   -0.0360    1.1513 C   0  0  0  0  0  0  0  0  0  0  0  0
    3.4035   -0.2446    1.2477 N   0  0  0  0  0  0  0  0  0  0  0  0
    4.1800   -0.2539    0.1419 C   0  0  0  0  0  0  0  0  0  0  0  0
    3.6486   -0.0120   -1.1655 C   0  0  0  0  0  0  0  0  0  0  0  0
    2.2306    0.1522   -1.2587 C   0  0  0  0  0  0  0  0  0  0  0  0
    1.5945    0.3187   -2.6099 C   0  0  0  0  0  0  0  0  0  0  0  0
    0.7175   -0.3748   -3.0630 O   0  0  0  0  0  0  0  0  0  0  0  0
    2.1100    1.3595   -3.2943 O   0  0  0  0  0  0  0  0  0  0  0  0
    4.5368   -0.0061   -2.2752 C   0  0  0  0  0  0  0  0  0  0  0  0
    5.8746   -0.2429   -2.0685 C   0  0  0  0  0  0  0  0  0  0  0  0
    6.4168   -0.4926   -0.7883 C   0  0  0  0  0  0  0  0  0  0  0  0
    5.5744   -0.4954    0.2988 C   0  0  0  0  0  0  0  0  0  0  0  0
    6.7120   -0.2383   -3.1147 F   0  0  0  0  0  0  0  0  0  0  0  0
    1.3764    0.0131    2.4507 C   0  0  0  0  0  0  0  0  0  0  0  0
    1.7166   -0.9006    3.4620 C   0  0  0  0  0  0  0  0  0  0  0  0
    1.0895   -0.8606    4.7034 C   0  0  0  0  0  0  0  0  0  0  0  0
    0.1109    0.1082    4.9942 C   0  0  0  0  0  0  0  0  0  0  0  0
   -0.2073    1.0377    3.9886 C   0  0  0  0  0  0  0  0  0  0  0  0
    0.4099    0.9895    2.7403 C   0  0  0  0  0  0  0  0  0  0  0  0
   -0.5562    0.1529    6.3179 C   0  0  0  0  0  0  0  0  0  0  0  0
    0.1475   -0.1647    7.4941 C   0  0  0  0  0  0  0  0  0  0  0  0
   -0.4802   -0.1216    8.7396 C   0  0  0  0  0  0  0  0  0  0  0  0
   -1.8268    0.2398    8.8377 C   0  0  0  0  0  0  0  0  0  0  0  0
   -2.5393    0.5578    7.6781 C   0  0  0  0  0  0  0  0  0  0  0  0
   -1.9109    0.5149    6.4330 C   0  0  0  0  0  0  0  0  0  0  0  0
   -0.5354   -0.2860    0.6776 H   0  0  0  0  0  0  0  0  0  0  0  0
   -0.4259   -0.3551   -1.1001 H   0  0  0  0  0  0  0  0  0  0  0  0
   -0.4317    1.2099   -0.2656 H   0  0  0  0  0  0  0  0  0  0  0  0
    1.6479    1.3826   -4.1513 H   0  0  0  0  0  0  0  0  0  0  0  0
    4.1846    0.1920   -3.2855 H   0  0  0  0  0  0  0  0  0  0  0  0
    7.4890   -0.6727   -0.6939 H   0  0  0  0  0  0  0  0  0  0  0  0
    5.9404   -0.6762    1.3104 H   0  0  0  0  0  0  0  0  0  0  0  0
    2.4827   -1.6489    3.2537 H   0  0  0  0  0  0  0  0  0  0  0  0
    1.3465   -1.6078    5.4568 H   0  0  0  0  0  0  0  0  0  0  0  0
   -0.9276    1.8310    4.1977 H   0  0  0  0  0  0  0  0  0  0  0  0
    0.1608    1.7477    1.9965 H   0  0  0  0  0  0  0  0  0  0  0  0
    1.2064   -0.4237    7.4329 H   0  0  0  0  0  0  0  0  0  0  0  0
    0.0888   -0.3638    9.6406 H   0  0  0  0  0  0  0  0  0  0  0  0
   -2.3184    0.2733    9.8128 H   0  0  0  0  0  0  0  0  0  0  0  0
   -3.5949    0.8332    7.7423 H   0  0  0  0  0  0  0  0  0  0  0  0
   -2.4846    0.7407    5.5316 H   0  0  0  0  0  0  0  0  0  0  0  0
  1  2  1  0
  1 28  1  0
  1 29  1  0
  1 30  1  0
  2  3  2  0
  2  7  1  0
  3  4  1  0
  3 16  1  0
  4  5  2  0
  5  6  1  0
  5 14  1  0
  6  7  2  0
  6 11  1  0
  7  8  1  0
  8  9  2  0
  8 10  1  0
 10 31  1  0
 11 12  2  0
 11 32  1  0
 12 13  1  0
 12 15  1  0
 13 14  2  0
 13 33  1  0
 14 34  1  0
 16 17  2  0
 16 21  1  0
 17 18  1  0
 17 35  1  0
 18 19  2  0
 18 36  1  0
 19 20  1  0
 19 22  1  0
 20 21  2  0
 20 37  1  0
 21 38  1  0
 22 23  2  0
 22 27  1  0
 23 24  1  0
 23 39  1  0
 24 25  2  0
 24 40  1  0
 25 26  1  0
 25 41  1  0
 26 27  2  0
 26 42  1  0
 27 43  1  0
M  END

