43

C         -0.06520       -0.32020       -0.25550
C          1.43360       -0.18850       -0.13200
C          2.06390        0.00230        1.15170
N          3.34890        0.27220        1.27790
C          4.15230        0.30350        0.19170
C          3.66620        0.02060       -1.12500
C          2.26020       -0.21030       -1.25140
C          1.66700       -0.42300       -2.61570
O          0.77080        0.22330       -3.09970
O          2.24730       -1.44710       -3.27280
C          4.58190        0.04190       -2.21200
C          5.90170        0.34310       -1.97520
C          6.39880        0.63390       -0.68530
C          5.52950        0.61130        0.38020
F          6.76500        0.36400       -2.99990
C          1.30520       -0.06430        2.43290
C          0.38490       -1.08660        2.71410
C         -0.26230       -1.14780        3.94670
C         -0.02140       -0.18630        4.94350
C          0.91140        0.82910        4.66140
C          1.56890        0.88250        3.43640
C         -0.72070       -0.24360        6.25010
C         -1.01640       -1.47640        6.86020
C         -1.67410       -1.52930        8.08970
C         -2.05200       -0.34980        8.73770
C         -1.76510        0.88260        8.14410
C         -1.10680        0.93470        6.91480
H         -0.57160        0.12250        0.61020
H         -0.37550       -1.37740       -0.31160
H         -0.42050        0.17660       -1.16500
H          1.80860       -1.50230       -4.14060
H          4.26520       -0.18510       -3.22790
H          7.45880        0.86470       -0.56660
H          5.86080        0.82170        1.39800
H          0.18290       -1.85890        1.97060
H         -0.98340       -1.94640        4.13170
H          1.14510        1.57160        5.42710
H          2.31270        1.65640        3.24130
H         -0.70340       -2.40390        6.37640
H         -1.88520       -2.49810        8.54900
H         -2.56700       -0.39100        9.70030
H         -2.06320        1.81080        8.63780
H         -0.91020        1.90270        6.44930
