rmsd21.gzmat
 OpenBabel08211713413D

 43 46  0  0  1  0  0  0  0  0999 V2000
    0.0000    0.0000    0.0000 C   0  0  0  0  0  0  0  0  0  0  0  0
    1.4827    0.0000    0.0000 C   0  0  0  0  0  0  0  0  0  0  0  0
    2.2176    0.0000    1.2411 C   0  0  0  0  0  0  0  0  0  0  0  0
    3.5353   -0.0201    1.2916 N   0  0  0  0  0  0  0  0  0  0  0  0
    4.2590   -0.0283    0.1245 C   0  0  0  0  0  0  0  0  0  0  0  0
    3.6321   -0.0243   -1.1492 C   0  0  1  0  0  0  0  0  0  0  0  0
    2.2083   -0.0157   -1.1702 C   0  0  0  0  0  0  0  0  0  0  0  0
    1.4871   -0.0125   -2.4595 C   0  0  0  0  0  0  0  0  0  0  0  0
    0.6351    0.7481   -2.8369 O   0  0  0  0  0  0  0  0  0  0  0  0
    1.8920   -1.0450   -3.2425 O   0  0  0  0  0  0  0  0  0  0  0  0
    4.4433   -0.0234   -2.3111 C   0  0  0  0  0  0  0  0  0  0  0  0
    5.8078   -0.0303   -2.1561 C   0  0  0  0  0  0  0  0  0  0  0  0
    6.4558   -0.0381   -0.8950 C   0  0  0  0  0  0  0  0  0  0  0  0
    5.6818   -0.0398    0.2343 C   0  0  0  0  0  0  0  0  0  0  0  0
    6.5768   -0.0317   -3.2340 F   0  0  0  0  0  0  0  0  0  0  0  0
    1.5021    0.0185    2.5332 C   0  0  0  0  0  0  0  0  0  0  0  0
    1.3958   -1.1539    3.2821 C   0  0  0  0  0  0  0  0  0  0  0  0
    0.7208   -1.1343    4.4989 C   0  0  0  0  0  0  0  0  0  0  0  0
    0.1547    0.0554    4.9647 C   0  0  0  0  0  0  0  0  0  0  0  0
    0.2660    1.2278    4.2115 C   0  0  0  0  0  0  0  0  0  0  0  0
    0.9460    1.2123    2.9980 C   0  0  0  0  0  0  0  0  0  0  0  0
   -0.5463    0.0737    6.2541 C   0  0  0  0  0  0  0  0  0  0  0  0
    0.1255   -0.3190    7.4147 C   0  0  0  0  0  0  0  0  0  0  0  0
   -0.5363   -0.3014    8.6397 C   0  0  0  0  0  0  0  0  0  0  0  0
   -1.8683    0.1037    8.7091 C   0  0  0  0  0  0  0  0  0  0  0  0
   -2.5394    0.4940    7.5512 C   0  0  0  0  0  0  0  0  0  0  0  0
   -1.8807    0.4821    6.3241 C   0  0  0  0  0  0  0  0  0  0  0  0
   -0.4407    0.1042    1.0034 H   0  0  0  0  0  0  0  0  0  0  0  0
   -0.4061   -0.9326   -0.4248 H   0  0  0  0  0  0  0  0  0  0  0  0
   -0.4076    0.8278   -0.6110 H   0  0  0  0  0  0  0  0  0  0  0  0
    1.4080   -1.0962   -4.1063 H   0  0  0  0  0  0  0  0  0  0  0  0
    3.9817   -0.0299   -3.3000 H   0  0  0  0  0  0  0  0  0  0  0  0
    7.5442   -0.0428   -0.8407 H   0  0  0  0  0  0  0  0  0  0  0  0
    6.1186   -0.0486    1.2362 H   0  0  0  0  0  0  0  0  0  0  0  0
    1.8489   -2.0764    2.9198 H   0  0  0  0  0  0  0  0  0  0  0  0
    0.6318   -2.0447    5.0900 H   0  0  0  0  0  0  0  0  0  0  0  0
   -0.1699    2.1543    4.5830 H   0  0  0  0  0  0  0  0  0  0  0  0
    1.0537    2.1279    2.4175 H   0  0  0  0  0  0  0  0  0  0  0  0
    1.1671   -0.6317    7.3598 H   0  0  0  0  0  0  0  0  0  0  0  0
   -0.0116   -0.6041    9.5438 H   0  0  0  0  0  0  0  0  0  0  0  0
   -2.3828    0.1164    9.6675 H   0  0  0  0  0  0  0  0  0  0  0  0
   -3.5798    0.8090    7.6052 H   0  0  0  0  0  0  0  0  0  0  0  0
   -2.4042    0.7846    5.4190 H   0  0  0  0  0  0  0  0  0  0  0  0
  1  2  1  0  0  0  0
  1 28  1  0  0  0  0
  2  3  1  0  0  0  0
  3  4  2  0  0  0  0
  3 16  1  0  0  0  0
  5 14  1  0  0  0  0
  5  4  2  0  0  0  0
  6 11  1  1  0  0  0
  6  5  1  0  0  0  0
  7  6  1  0  0  0  0
  7  2  2  0  0  0  0
  8  7  1  0  0  0  0
  9  8  2  0  0  0  0
 10  8  1  0  0  0  0
 11 12  2  0  0  0  0
 12 13  1  0  0  0  0
 13 33  1  0  0  0  0
 13 14  2  0  0  0  0
 14 34  1  0  0  0  0
 15 12  1  0  0  0  0
 16 21  2  0  0  0  0
 16 17  1  0  0  0  0
 17 18  2  0  0  0  0
 18 19  1  0  0  0  0
 18 36  1  0  0  0  0
 19 22  1  0  0  0  0
 20 37  1  0  0  0  0
 20 19  2  0  0  0  0
 21 20  1  0  0  0  0
 22 27  2  0  0  0  0
 22 23  1  0  0  0  0
 23 24  2  0  0  0  0
 24 25  1  0  0  0  0
 24 40  1  0  0  0  0
 25 41  1  0  0  0  0
 26 42  1  0  0  0  0
 26 25  2  0  0  0  0
 27 26  1  0  0  0  0
 29  1  1  0  0  0  0
 30  1  1  0  0  0  0
 31 10  1  0  0  0  0
 32 11  1  0  0  0  0
 35 17  1  0  0  0  0
 38 21  1  0  0  0  0
 39 23  1  0  0  0  0
 43 27  1  0  0  0  0
M  RAD  1   6   2
M  END
$$$$
