43
rmsd15.gzmat
C          0.00000        0.00000        0.00000
C          1.48250        0.00000        0.00000
C          2.21560        0.00000        1.24200
N          3.53290        0.03020        1.29330
C          4.25760        0.04330        0.12710
C          3.63240        0.02560       -1.14790
C          2.20860        0.01060       -1.17050
C          1.48380       -0.00980       -2.45750
O          0.59980       -0.74960       -2.80150
O          1.92380        0.97540       -3.28200
C          4.44650        0.01390       -2.30760
C          5.81060        0.02860       -2.14970
C          6.45630        0.06250       -0.88800
C          5.68040        0.07000        0.23980
F          6.58190        0.00980       -3.22560
C          1.50000       -0.03290        2.53390
C          0.95730       -1.23390        2.99440
C          0.28520       -1.26340        4.21210
C          0.16340       -0.09640        4.97220
C          0.71150        1.10220        4.50760
C          1.38250        1.13470        3.28870
C         -0.52840       -0.13510        6.26620
C         -1.85040       -0.58030        6.34310
C         -2.49720       -0.62610        7.57560
C         -1.82670       -0.23340        8.73290
C         -0.50860        0.21420        8.65620
C          0.14050        0.26720        7.42530
H         -0.44050        0.02740        1.00800
H         -0.40230       -0.90210       -0.49900
H         -0.40970        0.86430       -0.54770
H          1.44130        1.00760       -4.14760
H          3.98890        0.00380       -3.29840
H          7.54440        0.08090       -0.83180
H          6.11620        0.09410        1.24180
H          1.06890       -2.14530        2.40820
H         -0.13680       -2.19680        4.58150
H          0.61170        2.00970        5.10100
H          1.82340        2.06370        2.92880
H         -2.37330       -0.88560        5.43880
H         -3.52800       -0.96990        7.63420
H         -2.33210       -0.27670        9.69550
H          0.01530        0.52210        9.55920
H          1.17090        0.61410        7.36290
