rmsd24.gzmat
 OpenBabel08211713413D

 43 46  0  0  1  0  0  0  0  0999 V2000
    0.0000    0.0000    0.0000 C   0  0  0  0  0  0  0  0  0  0  0  0
    1.4827    0.0000    0.0000 C   0  0  0  0  0  0  0  0  0  0  0  0
    2.2057    0.0000    1.2493 C   0  0  0  0  0  0  0  0  0  0  0  0
    3.5231   -0.0222    1.3127 N   0  0  0  0  0  0  0  0  0  0  0  0
    4.2582   -0.0350    0.1531 C   0  0  0  0  0  0  0  0  0  0  0  0
    3.6434   -0.0183   -1.1261 C   0  0  2  0  0  0  0  0  0  0  0  0
    2.2197   -0.0008   -1.1621 C   0  0  0  0  0  0  0  0  0  0  0  0
    1.5275   -0.0015   -2.4678 C   0  0  0  0  0  0  0  0  0  0  0  0
    0.7144   -0.7829   -2.8860 O   0  0  0  0  0  0  0  0  0  0  0  0
    1.9205    1.0604   -3.2172 O   0  0  0  0  0  0  0  0  0  0  0  0
    4.4646   -0.0348   -2.2808 C   0  0  0  0  0  0  0  0  0  0  0  0
    5.8270   -0.0712   -2.1128 C   0  0  0  0  0  0  0  0  0  0  0  0
    6.4634   -0.0856   -0.8460 C   0  0  0  0  0  0  0  0  0  0  0  0
    5.6799   -0.0654    0.2765 C   0  0  0  0  0  0  0  0  0  0  0  0
    6.6052   -0.0947   -3.1839 F   0  0  0  0  0  0  0  0  0  0  0  0
    1.4813    0.0131    2.5359 C   0  0  0  0  0  0  0  0  0  0  0  0
    1.5534   -1.0975    3.3779 C   0  0  0  0  0  0  0  0  0  0  0  0
    0.8782   -1.0857    4.5951 C   0  0  0  0  0  0  0  0  0  0  0  0
    0.1353    0.0363    4.9688 C   0  0  0  0  0  0  0  0  0  0  0  0
    0.0656    1.1470    4.1233 C   0  0  0  0  0  0  0  0  0  0  0  0
    0.7429    1.1388    2.9083 C   0  0  0  0  0  0  0  0  0  0  0  0
   -0.5645    0.0588    6.2597 C   0  0  0  0  0  0  0  0  0  0  0  0
    0.1708    0.0874    7.4470 C   0  0  0  0  0  0  0  0  0  0  0  0
   -0.4916    0.1199    8.6716 C   0  0  0  0  0  0  0  0  0  0  0  0
   -1.8852    0.1175    8.7126 C   0  0  0  0  0  0  0  0  0  0  0  0
   -2.6182    0.0859    7.5272 C   0  0  0  0  0  0  0  0  0  0  0  0
   -1.9605    0.0599    6.2997 C   0  0  0  0  0  0  0  0  0  0  0  0
   -0.4298   -0.3538    0.9509 H   0  0  0  0  0  0  0  0  0  0  0  0
   -0.4194   -0.6551   -0.7851 H   0  0  0  0  0  0  0  0  0  0  0  0
   -0.4037    1.0101   -0.1757 H   0  0  0  0  0  0  0  0  0  0  0  0
    1.4667    1.1108   -4.0972 H   0  0  0  0  0  0  0  0  0  0  0  0
    4.0131   -0.0076   -3.2738 H   0  0  0  0  0  0  0  0  0  0  0  0
    7.5509   -0.1112   -0.7816 H   0  0  0  0  0  0  0  0  0  0  0  0
    6.1083   -0.0721    1.2820 H   0  0  0  0  0  0  0  0  0  0  0  0
    2.1465   -1.9643    3.0855 H   0  0  0  0  0  0  0  0  0  0  0  0
    0.9303   -1.9479    5.2580 H   0  0  0  0  0  0  0  0  0  0  0  0
   -0.5119    2.0198    4.4236 H   0  0  0  0  0  0  0  0  0  0  0  0
    0.7055    2.0093    2.2550 H   0  0  0  0  0  0  0  0  0  0  0  0
    1.2590    0.0911    7.4104 H   0  0  0  0  0  0  0  0  0  0  0  0
    0.0799    0.1473    9.5975 H   0  0  0  0  0  0  0  0  0  0  0  0
   -2.4014    0.1402    9.6700 H   0  0  0  0  0  0  0  0  0  0  0  0
   -3.7060    0.0819    7.5606 H   0  0  0  0  0  0  0  0  0  0  0  0
   -2.5294    0.0374    5.3721 H   0  0  0  0  0  0  0  0  0  0  0  0
  1  2  1  0  0  0  0
  1 28  1  0  0  0  0
  2  3  1  0  0  0  0
  3  4  2  0  0  0  0
  3 16  1  0  0  0  0
  5 14  1  0  0  0  0
  5  4  2  0  0  0  0
  6 11  1  6  0  0  0
  6  5  1  0  0  0  0
  7  6  1  0  0  0  0
  7  2  2  0  0  0  0
  8  7  1  0  0  0  0
  9  8  2  0  0  0  0
 10  8  1  0  0  0  0
 11 12  2  0  0  0  0
 12 13  1  0  0  0  0
 13 33  1  0  0  0  0
 13 14  2  0  0  0  0
 14 34  1  0  0  0  0
 15 12  1  0  0  0  0
 16 21  2  0  0  0  0
 16 17  1  0  0  0  0
 17 18  2  0  0  0  0
 18 19  1  0  0  0  0
 18 36  1  0  0  0  0
 19 22  1  0  0  0  0
 20 37  1  0  0  0  0
 20 19  2  0  0  0  0
 21 20  1  0  0  0  0
 22 27  2  0  0  0  0
 22 23  1  0  0  0  0
 23 24  2  0  0  0  0
 24 25  1  0  0  0  0
 24 40  1  0  0  0  0
 25 41  1  0  0  0  0
 26 42  1  0  0  0  0
 26 25  2  0  0  0  0
 27 26  1  0  0  0  0
 29  1  1  0  0  0  0
 30  1  1  0  0  0  0
 31 10  1  0  0  0  0
 32 11  1  0  0  0  0
 35 17  1  0  0  0  0
 38 21  1  0  0  0  0
 39 23  1  0  0  0  0
 43 27  1  0  0  0  0
M  RAD  1   6   2
M  END
$$$$
