rmsd22.gzmat
 OpenBabel08211713413D

 43 46  0  0  1  0  0  0  0  0999 V2000
    0.0000    0.0000    0.0000 C   0  0  0  0  0  0  0  0  0  0  0  0
    1.4827    0.0000    0.0000 C   0  0  0  0  0  0  0  0  0  0  0  0
    2.1992    0.0000    1.2530 C   0  0  0  0  0  0  0  0  0  0  0  0
    3.5151   -0.0118    1.3269 N   0  0  0  0  0  0  0  0  0  0  0  0
    4.2574   -0.0093    0.1709 C   0  0  0  0  0  0  0  0  0  0  0  0
    3.6499    0.0124   -1.1117 C   0  0  2  0  0  0  0  0  0  0  0  0
    2.2262    0.0099   -1.1572 C   0  0  0  0  0  0  0  0  0  0  0  0
    1.5416   -0.0036   -2.4667 C   0  0  0  0  0  0  0  0  0  0  0  0
    0.7722   -0.8198   -2.9005 O   0  0  0  0  0  0  0  0  0  0  0  0
    1.8820    1.0881   -3.1990 O   0  0  0  0  0  0  0  0  0  0  0  0
    4.4776    0.0253   -2.2618 C   0  0  0  0  0  0  0  0  0  0  0  0
    5.8398    0.0105   -2.0870 C   0  0  0  0  0  0  0  0  0  0  0  0
    6.4686   -0.0176   -0.8165 C   0  0  0  0  0  0  0  0  0  0  0  0
    5.6787   -0.0254    0.3017 C   0  0  0  0  0  0  0  0  0  0  0  0
    6.6249    0.0213   -3.1532 F   0  0  0  0  0  0  0  0  0  0  0  0
    1.4558    0.0147    2.5293 C   0  0  0  0  0  0  0  0  0  0  0  0
    1.2984   -1.1659    3.2556 C   0  0  0  0  0  0  0  0  0  0  0  0
    0.5974   -1.1457    4.4577 C   0  0  0  0  0  0  0  0  0  0  0  0
    0.0587    0.0534    4.9319 C   0  0  0  0  0  0  0  0  0  0  0  0
    0.2208    1.2337    4.2006 C   0  0  0  0  0  0  0  0  0  0  0  0
    0.9230    1.2161    2.9999 C   0  0  0  0  0  0  0  0  0  0  0  0
   -0.6677    0.0776    6.2068 C   0  0  0  0  0  0  0  0  0  0  0  0
   -0.0324   -0.3457    7.3770 C   0  0  0  0  0  0  0  0  0  0  0  0
   -0.7196   -0.3198    8.5877 C   0  0  0  0  0  0  0  0  0  0  0  0
   -2.0407    0.1227    8.6321 C   0  0  0  0  0  0  0  0  0  0  0  0
   -2.6751    0.5434    7.4642 C   0  0  0  0  0  0  0  0  0  0  0  0
   -1.9900    0.5250    6.2519 C   0  0  0  0  0  0  0  0  0  0  0  0
   -0.4285   -0.4148    0.9273 H   0  0  0  0  0  0  0  0  0  0  0  0
   -0.4249   -0.5998   -0.8246 H   0  0  0  0  0  0  0  0  0  0  0  0
   -0.3997    1.0221   -0.1040 H   0  0  0  0  0  0  0  0  0  0  0  0
    1.4211    1.1293   -4.0762 H   0  0  0  0  0  0  0  0  0  0  0  0
    4.0299    0.0587   -3.2561 H   0  0  0  0  0  0  0  0  0  0  0  0
    7.5559   -0.0329   -0.7467 H   0  0  0  0  0  0  0  0  0  0  0  0
    6.1008   -0.0446    1.3101 H   0  0  0  0  0  0  0  0  0  0  0  0
    1.7328   -2.0955    2.8888 H   0  0  0  0  0  0  0  0  0  0  0  0
    0.4675   -2.0627    5.0306 H   0  0  0  0  0  0  0  0  0  0  0  0
   -0.1939    2.1666    4.5798 H   0  0  0  0  0  0  0  0  0  0  0  0
    1.0641    2.1355    2.4335 H   0  0  0  0  0  0  0  0  0  0  0  0
    1.0002   -0.6893    7.3399 H   0  0  0  0  0  0  0  0  0  0  0  0
   -0.2242   -0.6464    9.5000 H   0  0  0  0  0  0  0  0  0  0  0  0
   -2.5770    0.1399    9.5782 H   0  0  0  0  0  0  0  0  0  0  0  0
   -3.7077    0.8855    7.4992 H   0  0  0  0  0  0  0  0  0  0  0  0
   -2.4839    0.8522    5.3389 H   0  0  0  0  0  0  0  0  0  0  0  0
  1  2  1  0  0  0  0
  1 28  1  0  0  0  0
  2  3  1  0  0  0  0
  3  4  2  0  0  0  0
  3 16  1  0  0  0  0
  5 14  1  0  0  0  0
  5  4  2  0  0  0  0
  6 11  1  6  0  0  0
  6  5  1  0  0  0  0
  7  6  1  0  0  0  0
  7  2  2  0  0  0  0
  8  7  1  0  0  0  0
  9  8  2  0  0  0  0
 10  8  1  0  0  0  0
 11 12  2  0  0  0  0
 12 13  1  0  0  0  0
 13 33  1  0  0  0  0
 13 14  2  0  0  0  0
 14 34  1  0  0  0  0
 15 12  1  0  0  0  0
 16 21  2  0  0  0  0
 16 17  1  0  0  0  0
 17 18  2  0  0  0  0
 18 19  1  0  0  0  0
 18 36  1  0  0  0  0
 19 22  1  0  0  0  0
 20 37  1  0  0  0  0
 20 19  2  0  0  0  0
 21 20  1  0  0  0  0
 22 27  2  0  0  0  0
 22 23  1  0  0  0  0
 23 24  2  0  0  0  0
 24 25  1  0  0  0  0
 24 40  1  0  0  0  0
 25 41  1  0  0  0  0
 26 42  1  0  0  0  0
 26 25  2  0  0  0  0
 27 26  1  0  0  0  0
 29  1  1  0  0  0  0
 30  1  1  0  0  0  0
 31 10  1  0  0  0  0
 32 11  1  0  0  0  0
 35 17  1  0  0  0  0
 38 21  1  0  0  0  0
 39 23  1  0  0  0  0
 43 27  1  0  0  0  0
M  RAD  1   6   2
M  END
$$$$
