43

C         -0.06200       -0.11920       -0.18330
C          1.44450       -0.07100       -0.11060
C          2.12110        0.04850        1.15720
N          3.42440        0.23040        1.24940
C          4.19540        0.24610        0.13990
C          3.65070        0.07430       -1.17410
C          2.22930       -0.07030       -1.26130
C          1.55410       -0.26340       -2.58680
O          0.70360       -1.09070       -2.80670
O          1.97500        0.59890       -3.53450
C          4.54060        0.05240       -2.28240
C          5.88870        0.21270       -2.06900
C          6.44240        0.40250       -0.78370
C          5.59950        0.41740        0.30270
F          6.72530        0.19370       -3.11570
C          1.39930       -0.00240        2.46030
C          0.41700       -0.96450        2.74520
C         -0.19270       -1.01550        3.99710
C          0.14870       -0.10340        5.01100
C          1.14270        0.85080        4.72460
C          1.76260        0.89330        3.47970
C         -0.51060       -0.15120        6.33850
C         -1.87050       -0.49120        6.45860
C         -2.49160       -0.53700        7.70740
C         -1.76630       -0.24390        8.86560
C         -0.41430        0.09530        8.76250
C          0.20600        0.14130        7.51340
H         -0.51120        0.35400        0.69800
H         -0.42830       -1.15570       -0.24100
H         -0.43720        0.38870       -1.08110
H          1.48150        0.37840       -4.34430
H          4.17820       -0.06970       -3.30030
H          7.52210        0.52650       -0.68490
H          5.97250        0.54820        1.31940
H          0.14900       -1.70930        1.99480
H         -0.92580       -1.79820        4.20180
H          1.41840        1.58450        5.48470
H          2.54130        1.62950        3.27520
H         -2.45370       -0.69750        5.55870
H         -3.55120       -0.79520        7.77550
H         -2.25210       -0.27980        9.84350
H          0.16460        0.31770        9.66230
H          1.26890        0.38260        7.44820
