46

O         -0.64840       -0.19150       -0.39600
C          0.55250       -0.40840       -0.41860
N          1.23320       -1.09200        0.55010
C          0.49320       -1.48560        1.74180
C          2.70240       -1.14960        0.53940
H          3.10560       -0.18480        0.90820
C          3.25670       -1.31380       -0.89540
O          4.27410       -1.95360       -1.11090
N          2.54160       -0.69000       -1.86870
C          1.40690        0.16030       -1.54500
H          0.75050        0.18780       -2.42510
C          1.79350        1.62110       -1.18290
C          2.64530        2.28100       -2.23420
C          2.05890        2.86390       -3.36750
C          2.85080        3.39790       -4.38610
C          4.24490        3.35680       -4.28520
C          4.83970        2.78650       -3.15640
C          4.04390        2.25510       -2.13870
C          2.91650       -0.85080       -3.26590
C          3.28270       -2.26440        1.42160
C          3.30640       -2.00700        2.91130
C          2.81550       -2.96420        3.81030
C          2.85810       -2.74880        5.18990
C          3.39620       -1.56430        5.69850
C          3.89910       -0.60490        4.81510
C          3.85690       -0.82780        3.43710
H         -0.56590       -1.28570        1.54390
H          0.81630       -0.90730        2.62150
H          0.62760       -2.55260        1.96340
H          2.32470        1.62250       -0.21820
H          0.85170        2.17030       -1.03390
H          0.96890        2.89470       -3.45260
H          2.37850        3.84960       -5.26190
H          4.86570        3.77270       -5.08220
H          5.92820        2.75340       -3.06800
H          4.51460        1.80090       -1.26300
H          2.08020       -1.29370       -3.83240
H          3.78400       -1.51900       -3.30840
H          3.18020        0.11450       -3.72120
H          2.76030       -3.20750        1.20070
H          4.31170       -2.40610        1.06010
H          2.38830       -3.89250        3.42110
H          2.46610       -3.50930        5.86970
H          3.42710       -1.39060        6.77660
H          4.33150        0.32150        5.20110
H          4.26680       -0.07110        2.76270
