46
rmsd198.gzmat
O          0.00000        0.00000        0.00000
C          1.21180        0.00000        0.00000
N          1.93900        0.00000        1.18020
C          1.16930       -0.04600        2.43090
C          3.28580       -0.56540        1.22770
H          3.85570       -0.02590        2.03720
C          4.04730       -0.37310       -0.09390
O          5.25880       -0.40850       -0.10690
N          3.31100       -0.36950       -1.26840
C          1.98630        0.24390       -1.30580
H          1.40790       -0.22860       -2.14920
C          2.00630        1.78460       -1.48010
C          2.40530        2.20140       -2.85940
C          1.59770        1.88010       -3.95300
C          1.96930        2.28010       -5.23420
C          3.14310        3.00670       -5.42870
C          3.94510        3.33510       -4.33720
C          3.57830        2.93440       -3.05460
C          4.07530       -0.35670       -2.52370
C          3.31860       -2.09350        1.49220
C          3.05600       -2.42880        2.92550
C          3.93570       -1.99490        3.92030
C          3.68370       -2.30180        5.25500
C          2.55770       -3.04630        5.60210
C          1.68900       -3.49460        4.60910
C          1.93840       -3.19090        3.27280
H          0.34450        0.69070        2.37970
H          1.81490        0.21120        3.28600
H          0.71800       -1.03660        2.61260
H          2.66990        2.23610       -0.71310
H          0.99050        2.18780       -1.25370
H          0.67320        1.32430       -3.80470
H          1.33890        2.02800       -6.08480
H          3.43100        3.32070       -6.42950
H          4.85930        3.90730       -4.48630
H          4.20850        3.19360       -2.20540
H          3.40340       -0.48250       -3.38740
H          4.79710       -1.19580       -2.51430
H          4.65060        0.57690       -2.65590
H          2.60080       -2.60240        0.81610
H          4.31980       -2.49360        1.20180
H          4.82360       -1.42360        3.65350
H          4.36950       -1.96220        6.02870
H          2.36010       -3.28110        6.64530
H          0.81410       -4.08340        4.87730
H          1.25890       -3.54930        2.50120
