rmsd206.gzmat
 OpenBabel08211713403D

 46 48  0  0  1  0  0  0  0  0999 V2000
    0.0000    0.0000    0.0000 O   0  0  0  0  0  0  0  0  0  0  0  0
    1.2122    0.0000    0.0000 C   0  0  0  0  0  0  0  0  0  0  0  0
    1.9348    0.0000    1.1824 N   0  0  0  0  0  0  0  0  0  0  0  0
    1.1591   -0.0633    2.4294 C   0  0  0  0  0  0  0  0  0  0  0  0
    3.2868   -0.5514    1.2355 C   0  0  2  0  0  0  0  0  0  0  0  0
    3.8502    0.0027    2.0398 H   0  0  0  0  0  0  0  0  0  0  0  0
    4.0496   -0.3652   -0.0861 C   0  0  0  0  0  0  0  0  0  0  0  0
    5.2615   -0.4002   -0.0958 O   0  0  0  0  0  0  0  0  0  0  0  0
    3.3172   -0.3682   -1.2624 N   0  0  0  0  0  0  0  0  0  0  0  0
    1.9861    0.2311   -1.3087 C   0  0  2  0  0  0  0  0  0  0  0  0
    1.4128   -0.2639   -2.1433 H   0  0  0  0  0  0  0  0  0  0  0  0
    1.9923    1.7674   -1.5195 C   0  0  0  0  0  0  0  0  0  0  0  0
    2.3089    2.1486   -2.9308 C   0  0  0  0  0  0  0  0  0  0  0  0
    1.4332    1.8054   -3.9638 C   0  0  0  0  0  0  0  0  0  0  0  0
    1.7281    2.1653   -5.2766 C   0  0  0  0  0  0  0  0  0  0  0  0
    2.8937    2.8741   -5.5633 C   0  0  0  0  0  0  0  0  0  0  0  0
    3.7621    3.2275   -4.5320 C   0  0  0  0  0  0  0  0  0  0  0  0
    3.4711    2.8682   -3.2180 C   0  0  0  0  0  0  0  0  0  0  0  0
    4.0831   -0.3577   -2.5166 C   0  0  0  0  0  0  0  0  0  0  0  0
    3.3328   -2.0761    1.5155 C   0  0  0  0  0  0  0  0  0  0  0  0
    3.0664   -2.4074    2.9495 C   0  0  0  0  0  0  0  0  0  0  0  0
    1.9764   -3.2115    3.2904 C   0  0  0  0  0  0  0  0  0  0  0  0
    1.7309   -3.5250    4.6253 C   0  0  0  0  0  0  0  0  0  0  0  0
    2.5748   -3.0437    5.6243 C   0  0  0  0  0  0  0  0  0  0  0  0
    3.6716   -2.2534    5.2842 C   0  0  0  0  0  0  0  0  0  0  0  0
    3.9205   -1.9376    3.9509 C   0  0  0  0  0  0  0  0  0  0  0  0
    0.3879    0.7304    2.4180 H   0  0  0  0  0  0  0  0  0  0  0  0
    1.8145    0.0990    3.3002 H   0  0  0  0  0  0  0  0  0  0  0  0
    0.6414   -1.0306    2.5541 H   0  0  0  0  0  0  0  0  0  0  0  0
    2.6973    2.2383   -0.8037 H   0  0  0  0  0  0  0  0  0  0  0  0
    0.9901    2.1758   -1.2464 H   0  0  0  0  0  0  0  0  0  0  0  0
    0.5147    1.2641   -3.7429 H   0  0  0  0  0  0  0  0  0  0  0  0
    1.0446    1.8961   -6.0798 H   0  0  0  0  0  0  0  0  0  0  0  0
    3.1235    3.1567   -6.5882 H   0  0  0  0  0  0  0  0  0  0  0  0
    4.6687    3.7879   -4.7535 H   0  0  0  0  0  0  0  0  0  0  0  0
    4.1512    3.1506   -2.4161 H   0  0  0  0  0  0  0  0  0  0  0  0
    3.4193   -0.5553   -3.3734 H   0  0  0  0  0  0  0  0  0  0  0  0
    4.8525   -1.1528   -2.4785 H   0  0  0  0  0  0  0  0  0  0  0  0
    4.6031    0.6017   -2.6855 H   0  0  0  0  0  0  0  0  0  0  0  0
    2.6248   -2.5987    0.8390 H   0  0  0  0  0  0  0  0  0  0  0  0
    4.3407   -2.4669    1.2348 H   0  0  0  0  0  0  0  0  0  0  0  0
    1.3165   -3.5974    2.5152 H   0  0  0  0  0  0  0  0  0  0  0  0
    0.8783   -4.1485    4.8883 H   0  0  0  0  0  0  0  0  0  0  0  0
    2.3803   -3.2888    6.6659 H   0  0  0  0  0  0  0  0  0  0  0  0
    4.3377   -1.8859    6.0626 H   0  0  0  0  0  0  0  0  0  0  0  0
    4.7876   -1.3326    3.6899 H   0  0  0  0  0  0  0  0  0  0  0  0
  1  2  2  0  0  0  0
  2  3  1  0  0  0  0
  3  5  1  0  0  0  0
  3  4  1  0  0  0  0
  4 29  1  0  0  0  0
  4 28  1  0  0  0  0
  5 20  1  0  0  0  0
  5  6  1  1  0  0  0
  7  5  1  0  0  0  0
  8  7  2  0  0  0  0
  9  7  1  0  0  0  0
 10 11  1  6  0  0  0
 10  9  1  0  0  0  0
 10  2  1  0  0  0  0
 12 10  1  0  0  0  0
 12 31  1  0  0  0  0
 12 30  1  0  0  0  0
 13 12  1  0  0  0  0
 14 32  1  0  0  0  0
 14 13  2  0  0  0  0
 15 14  1  0  0  0  0
 16 15  2  0  0  0  0
 16 17  1  0  0  0  0
 17 18  2  0  0  0  0
 18 13  1  0  0  0  0
 18 36  1  0  0  0  0
 19 38  1  0  0  0  0
 19  9  1  0  0  0  0
 20 21  1  0  0  0  0
 21 22  2  0  0  0  0
 21 26  1  0  0  0  0
 22 23  1  0  0  0  0
 23 43  1  0  0  0  0
 23 24  2  0  0  0  0
 24 44  1  0  0  0  0
 25 24  1  0  0  0  0
 25 45  1  0  0  0  0
 26 25  2  0  0  0  0
 27  4  1  0  0  0  0
 33 15  1  0  0  0  0
 34 16  1  0  0  0  0
 35 17  1  0  0  0  0
 37 19  1  0  0  0  0
 39 19  1  0  0  0  0
 40 20  1  0  0  0  0
 41 20  1  0  0  0  0
 42 22  1  0  0  0  0
 46 26  1  0  0  0  0
M  END
$$$$
