rmsd199.gzmat
 OpenBabel08211713403D

 46 48  0  0  1  0  0  0  0  0999 V2000
    0.0000    0.0000    0.0000 O   0  0  0  0  0  0  0  0  0  0  0  0
    1.2118    0.0000    0.0000 C   0  0  0  0  0  0  0  0  0  0  0  0
    1.9379    0.0000    1.1808 N   0  0  0  0  0  0  0  0  0  0  0  0
    1.1638   -0.0502    2.4288 C   0  0  0  0  0  0  0  0  0  0  0  0
    3.2858   -0.5628    1.2309 C   0  0  2  0  0  0  0  0  0  0  0  0
    3.8544   -0.0197    2.0390 H   0  0  0  0  0  0  0  0  0  0  0  0
    4.0476   -0.3730   -0.0910 C   0  0  0  0  0  0  0  0  0  0  0  0
    5.2592   -0.4116   -0.1041 O   0  0  0  0  0  0  0  0  0  0  0  0
    3.3122   -0.3684   -1.2660 N   0  0  0  0  0  0  0  0  0  0  0  0
    1.9869    0.2436   -1.3052 C   0  0  2  0  0  0  0  0  0  0  0  0
    1.4107   -0.2301   -2.1496 H   0  0  0  0  0  0  0  0  0  0  0  0
    2.0050    1.7844   -1.4821 C   0  0  0  0  0  0  0  0  0  0  0  0
    2.3807    2.1931   -2.8703 C   0  0  0  0  0  0  0  0  0  0  0  0
    1.5617    1.8472   -3.9482 C   0  0  0  0  0  0  0  0  0  0  0  0
    1.9169    2.2224   -5.2412 C   0  0  0  0  0  0  0  0  0  0  0  0
    3.0856    2.9491   -5.4630 C   0  0  0  0  0  0  0  0  0  0  0  0
    3.8958    3.3068   -4.3869 C   0  0  0  0  0  0  0  0  0  0  0  0
    3.5443    2.9326   -3.0921 C   0  0  0  0  0  0  0  0  0  0  0  0
    4.0777   -0.3539   -2.5205 C   0  0  0  0  0  0  0  0  0  0  0  0
    3.3206   -2.0900    1.5001 C   0  0  0  0  0  0  0  0  0  0  0  0
    3.0391   -2.4267    2.9298 C   0  0  0  0  0  0  0  0  0  0  0  0
    3.8972   -1.9787    3.9372 C   0  0  0  0  0  0  0  0  0  0  0  0
    3.6294   -2.2841    5.2690 C   0  0  0  0  0  0  0  0  0  0  0  0
    2.5115   -3.0482    5.6000 C   0  0  0  0  0  0  0  0  0  0  0  0
    1.6664   -3.5140    4.5942 C   0  0  0  0  0  0  0  0  0  0  0  0
    1.9284   -3.2058    3.2613 C   0  0  0  0  0  0  0  0  0  0  0  0
    0.3656    0.7159    2.3919 H   0  0  0  0  0  0  0  0  0  0  0  0
    1.8137    0.1625    3.2928 H   0  0  0  0  0  0  0  0  0  0  0  0
    0.6772   -1.0290    2.5840 H   0  0  0  0  0  0  0  0  0  0  0  0
    2.6817    2.2366   -0.7275 H   0  0  0  0  0  0  0  0  0  0  0  0
    0.9934    2.1889   -1.2401 H   0  0  0  0  0  0  0  0  0  0  0  0
    0.6424    1.2891   -3.7778 H   0  0  0  0  0  0  0  0  0  0  0  0
    1.2800    1.9490   -6.0805 H   0  0  0  0  0  0  0  0  0  0  0  0
    3.3629    3.2391   -6.4737 H   0  0  0  0  0  0  0  0  0  0  0  0
    4.8056    3.8794   -4.5580 H   0  0  0  0  0  0  0  0  0  0  0  0
    4.1799    3.2163   -2.2548 H   0  0  0  0  0  0  0  0  0  0  0  0
    3.4118   -0.5319   -3.3797 H   0  0  0  0  0  0  0  0  0  0  0  0
    4.8356   -1.1603   -2.4900 H   0  0  0  0  0  0  0  0  0  0  0  0
    4.6114    0.6002   -2.6775 H   0  0  0  0  0  0  0  0  0  0  0  0
    2.6151   -2.6021    0.8138 H   0  0  0  0  0  0  0  0  0  0  0  0
    4.3279   -2.4862    1.2255 H   0  0  0  0  0  0  0  0  0  0  0  0
    4.7808   -1.3954    3.6829 H   0  0  0  0  0  0  0  0  0  0  0  0
    4.2970   -1.9287    6.0517 H   0  0  0  0  0  0  0  0  0  0  0  0
    2.3016   -3.2843    6.6405 H   0  0  0  0  0  0  0  0  0  0  0  0
    0.7999   -4.1207    4.8511 H   0  0  0  0  0  0  0  0  0  0  0  0
    1.2658   -3.5747    2.4799 H   0  0  0  0  0  0  0  0  0  0  0  0
  2  1  2  0  0  0  0
  2  3  1  0  0  0  0
  3  5  1  0  0  0  0
  3  4  1  0  0  0  0
  4 29  1  0  0  0  0
  4 28  1  0  0  0  0
  5 20  1  0  0  0  0
  5  6  1  1  0  0  0
  7  5  1  0  0  0  0
  8  7  2  0  0  0  0
  9  7  1  0  0  0  0
 10 11  1  6  0  0  0
 10  9  1  0  0  0  0
 10  2  1  0  0  0  0
 12 10  1  0  0  0  0
 12 31  1  0  0  0  0
 12 30  1  0  0  0  0
 13 12  1  0  0  0  0
 14 32  1  0  0  0  0
 14 13  2  0  0  0  0
 15 14  1  0  0  0  0
 16 15  2  0  0  0  0
 16 17  1  0  0  0  0
 17 18  2  0  0  0  0
 18 13  1  0  0  0  0
 18 36  1  0  0  0  0
 19 38  1  0  0  0  0
 19  9  1  0  0  0  0
 20 21  1  0  0  0  0
 21 26  2  0  0  0  0
 21 22  1  0  0  0  0
 22 23  2  0  0  0  0
 23 24  1  0  0  0  0
 23 43  1  0  0  0  0
 24 44  1  0  0  0  0
 25 45  1  0  0  0  0
 25 24  2  0  0  0  0
 26 25  1  0  0  0  0
 27  4  1  0  0  0  0
 33 15  1  0  0  0  0
 34 16  1  0  0  0  0
 35 17  1  0  0  0  0
 37 19  1  0  0  0  0
 39 19  1  0  0  0  0
 40 20  1  0  0  0  0
 41 20  1  0  0  0  0
 42 22  1  0  0  0  0
 46 26  1  0  0  0  0
M  END
$$$$
