
     RDKit          3D

 46 48  0  0  0  0  0  0  0  0999 V2000
    0.0670    0.4396    0.1401 O   0  0  0  0  0  0  0  0  0  0  0  0
    1.2603    0.1780    0.1051 C   0  0  0  0  0  0  0  0  0  0  0  0
    1.9728   -0.1343    1.2206 N   0  0  0  0  0  0  0  0  0  0  0  0
    1.2744   -0.0224    2.4983 C   0  0  0  0  0  0  0  0  0  0  0  0
    3.3295   -0.6617    1.2031 C   0  0  2  0  0  0  0  0  0  0  0  0
    3.9221   -0.1217    1.9600 H   0  0  0  0  0  0  0  0  0  0  0  0
    4.0807   -0.4798   -0.1158 C   0  0  0  0  0  0  0  0  0  0  0  0
    5.2736   -0.7435   -0.1519 O   0  0  0  0  0  0  0  0  0  0  0  0
    3.3679   -0.1677   -1.2310 N   0  0  0  0  0  0  0  0  0  0  0  0
    2.0130    0.3639   -1.2123 C   0  0  2  0  0  0  0  0  0  0  0  0
    1.4194   -0.1707   -1.9722 H   0  0  0  0  0  0  0  0  0  0  0  0
    1.9392    1.8853   -1.5280 C   0  0  0  0  0  0  0  0  0  0  0  0
    2.3649    2.2841   -2.9184 C   0  0  0  0  0  0  0  0  0  0  0  0
    1.6048    1.8945   -4.0324 C   0  0  0  0  0  0  0  0  0  0  0  0
    2.0045    2.2342   -5.3261 C   0  0  0  0  0  0  0  0  0  0  0  0
    3.1706    2.9797   -5.5277 C   0  0  0  0  0  0  0  0  0  0  0  0
    3.9263    3.3878   -4.4260 C   0  0  0  0  0  0  0  0  0  0  0  0
    3.5241    3.0414   -3.1333 C   0  0  0  0  0  0  0  0  0  0  0  0
    4.0652   -0.2820   -2.5092 C   0  0  0  0  0  0  0  0  0  0  0  0
    3.4082   -2.1812    1.5261 C   0  0  0  0  0  0  0  0  0  0  0  0
    2.9913   -2.5751    2.9206 C   0  0  0  0  0  0  0  0  0  0  0  0
    1.8384   -3.3393    3.1448 C   0  0  0  0  0  0  0  0  0  0  0  0
    1.4448   -3.6819    4.4412 C   0  0  0  0  0  0  0  0  0  0  0  0
    2.2029   -3.2632    5.5372 C   0  0  0  0  0  0  0  0  0  0  0  0
    3.3629   -2.5108    5.3263 C   0  0  0  0  0  0  0  0  0  0  0  0
    3.7540   -2.1748    4.0290 C   0  0  0  0  0  0  0  0  0  0  0  0
    0.6275    0.8646    2.4717 H   0  0  0  0  0  0  0  0  0  0  0  0
    2.0132    0.0682    3.3042 H   0  0  0  0  0  0  0  0  0  0  0  0
    0.6426   -0.8974    2.7073 H   0  0  0  0  0  0  0  0  0  0  0  0
    2.5477    2.4141   -0.7773 H   0  0  0  0  0  0  0  0  0  0  0  0
    0.8899    2.1714   -1.3646 H   0  0  0  0  0  0  0  0  0  0  0  0
    0.6867    1.3188   -3.8832 H   0  0  0  0  0  0  0  0  0  0  0  0
    1.4007    1.9210   -6.1814 H   0  0  0  0  0  0  0  0  0  0  0  0
    3.4842    3.2468   -6.5396 H   0  0  0  0  0  0  0  0  0  0  0  0
    4.8349    3.9769   -4.5725 H   0  0  0  0  0  0  0  0  0  0  0  0
    4.1235    3.3566   -2.2748 H   0  0  0  0  0  0  0  0  0  0  0  0
    3.3255   -0.3655   -3.3150 H   0  0  0  0  0  0  0  0  0  0  0  0
    4.7057   -1.1738   -2.4848 H   0  0  0  0  0  0  0  0  0  0  0  0
    4.7033    0.5888   -2.7163 H   0  0  0  0  0  0  0  0  0  0  0  0
    2.7973   -2.7152    0.7810 H   0  0  0  0  0  0  0  0  0  0  0  0
    4.4574   -2.4656    1.3587 H   0  0  0  0  0  0  0  0  0  0  0  0
    1.2371   -3.6629    2.2909 H   0  0  0  0  0  0  0  0  0  0  0  0
    0.5410   -4.2766    4.5950 H   0  0  0  0  0  0  0  0  0  0  0  0
    1.8960   -3.5274    6.5519 H   0  0  0  0  0  0  0  0  0  0  0  0
    3.9686   -2.1892    6.1771 H   0  0  0  0  0  0  0  0  0  0  0  0
    4.6675   -1.5937    3.8726 H   0  0  0  0  0  0  0  0  0  0  0  0
  1  2  2  0
  2  3  1  0
  2 10  1  0
  3  4  1  0
  3  5  1  0
  4 27  1  0
  4 28  1  0
  4 29  1  0
  5  6  1  1
  5  7  1  0
  5 20  1  0
  7  8  2  0
  7  9  1  0
  9 10  1  0
  9 19  1  0
 10 11  1  6
 10 12  1  0
 12 13  1  0
 12 30  1  0
 12 31  1  0
 13 14  2  0
 13 18  1  0
 14 15  1  0
 14 32  1  0
 15 16  2  0
 15 33  1  0
 16 17  1  0
 16 34  1  0
 17 18  2  0
 17 35  1  0
 18 36  1  0
 19 37  1  0
 19 38  1  0
 19 39  1  0
 20 21  1  0
 20 40  1  0
 20 41  1  0
 21 22  2  0
 21 26  1  0
 22 23  1  0
 22 42  1  0
 23 24  2  0
 23 43  1  0
 24 25  1  0
 24 44  1  0
 25 26  2  0
 25 45  1  0
 26 46  1  0
M  END

