46
rmsd202.gzmat
O          0.00000        0.00000        0.00000
C          1.21200        0.00000        0.00000
N          1.93470        0.00000        1.18260
C          1.15500       -0.06540        2.42690
C          3.28690       -0.55110        1.23400
H          3.84600       -0.01410        2.05240
C          4.05230       -0.33590       -0.08180
O          5.26440       -0.34270       -0.08820
N          3.32270       -0.34750       -1.26070
C          1.98430        0.23550       -1.30870
H          1.41780       -0.26800       -2.14280
C          1.96620        1.77210       -1.51860
C          2.35240        2.16560       -2.90880
C          1.55480        1.79420       -3.99400
C          1.92340        2.15920       -5.28670
C          3.08490        2.89930       -5.50160
C          3.87350        3.28310       -4.41840
C          3.50760        2.92110       -3.12430
C          4.09580       -0.31440       -2.51030
C          3.33460       -2.08120        1.48270
C          3.00080       -2.44450        2.89460
C          1.87970       -3.23270        3.16620
C          1.56980       -3.57580        4.48010
C          2.37860       -3.13800        5.52720
C          3.50300       -2.35970        5.25680
C          3.81720       -2.01610        3.94420
H          0.41730        0.75950        2.43470
H          1.81190        0.04340        3.30450
H          0.59560       -1.01300        2.52010
H          2.61970        2.25800       -0.76420
H          0.94060        2.15390       -1.29870
H          0.64020        1.22650       -3.83110
H          1.30110        1.86900       -6.13130
H          3.37360        3.18020       -6.51190
H          4.77700        3.86750       -4.58360
H          4.12580        3.22710       -2.28180
H          3.43650       -0.48210       -3.37670
H          4.85720       -1.11740       -2.48670
H          4.62850        0.64290       -2.64930
H          2.66460       -2.59380        0.76140
H          4.35750       -2.45740        1.24080
H          1.24530       -3.58130        2.35290
H          0.69450       -4.18830        4.68910
H          2.13510       -3.40790        6.55220
H          4.13900       -2.02350        6.07360
H          4.70520       -1.42050        3.73840
