46
rmsd201.gzmat
O          0.00000        0.00000        0.00000
C          1.21200        0.00000        0.00000
N          1.93750        0.00000        1.18120
C          1.16660       -0.05520        2.43090
C          3.28490       -0.56320        1.22590
H          3.84300       -0.05640        2.06320
C          4.05510       -0.31290       -0.08140
O          5.26660       -0.29340       -0.08260
N          3.32800       -0.32790       -1.26260
C          1.98320        0.24070       -1.30820
H          1.42130       -0.26720       -2.14270
C          1.95500        1.77770       -1.51480
C          2.31450        2.16820       -2.91250
C          1.49010        1.79840       -3.97790
C          1.82790        2.16290       -5.27880
C          2.98420        2.90300       -5.52090
C          3.80100        3.28200       -4.45710
C          3.46760        2.91810       -3.15470
C          4.10420       -0.27830       -2.50990
C          3.32360       -2.10080        1.42350
C          2.97730       -2.51390        2.81830
C          1.86120       -3.32180        3.04920
C          1.54020       -3.71470        4.34640
C          2.33340       -3.30680        5.41710
C          3.45450       -2.51090        5.18650
C          3.77910       -2.11600        3.89100
H          0.33830        0.67780        2.38020
H          1.80900        0.20320        3.28810
H          0.72140       -1.04970        2.60940
H          2.62080        2.26480       -0.77230
H          0.93330        2.15890       -1.27730
H          0.57880        1.23270       -3.79140
H          1.18510        1.87230       -6.10750
H          3.24740        3.18850       -6.53700
H          4.70090        3.86500       -4.64470
H          4.10800        3.21990       -2.32740
H          3.44230       -0.37250       -3.38540
H          4.82150       -1.12100       -2.51830
H          4.68520        0.65640       -2.60540
H          2.65760       -2.58570        0.67970
H          4.34690       -2.47310        1.17720
H          1.23940       -3.64570        2.21630
H          0.66930       -4.34350        4.52350
H          2.08090       -3.61340        6.42960
H          4.08020       -2.20080        6.02110
H          4.66310       -1.50470        3.71560
