46

O          0.02500        0.33480        0.08710
C          1.22720        0.11660        0.06440
N          1.94220       -0.15540        1.18890
C          1.23100       -0.05260        2.46030
C          3.31820       -0.63120        1.18870
H          3.88590       -0.05350        1.93700
C          4.06970       -0.44840       -0.13020
O          5.27030       -0.67520       -0.15670
N          3.35350       -0.17630       -1.25370
C          1.98300        0.31390       -1.24920
H          1.41170       -0.24530       -2.00830
C          1.86510        1.82950       -1.57890
C          2.29510        2.22930       -2.96760
C          1.55810        1.81100       -4.08670
C          1.96370        2.15040       -5.37860
C          3.11240        2.92410       -5.57340
C          3.84480        3.36060       -4.46670
C          3.43680        3.01450       -3.17570
C          4.06100       -0.28850       -2.52640
C          3.45250       -2.13940        1.54440
C          3.05150       -2.51870        2.94780
C          1.93280       -3.32690        3.18970
C          1.55380       -3.65730        4.49350
C          2.29260       -3.18170        5.57960
C          3.41890       -2.38470        5.35120
C          3.79570       -2.06110        4.04660
H          0.54530        0.80370        2.41360
H          1.95950        0.08530        3.26890
H          0.63780       -0.95140        2.68130
H          2.44780        2.38330       -0.82580
H          0.80550        2.08400       -1.43010
H          0.65370        1.21270       -3.94280
H          1.37810        1.81460       -6.23800
H          3.43060        3.19090       -6.58390
H          4.73940        3.97180       -4.60800
H          4.01810        3.35190       -2.31330
H          3.32840       -0.40290       -3.33490
H          4.72540       -1.16210       -2.48690
H          4.67630        0.59660       -2.74170
H          2.86160       -2.71150        0.81170
H          4.51140       -2.38830        1.38230
H          1.34650       -3.69530        2.34340
H          0.67660       -4.28700        4.66110
H          1.99700       -3.43620        6.60010
H          4.00980       -2.01820        6.19430
H          4.68330       -1.44460        3.87680
