
     RDKit          3D

 46 48  0  0  0  0  0  0  0  0999 V2000
   -0.6484   -0.1915   -0.3960 O   0  0  0  0  0  0  0  0  0  0  0  0
    0.5525   -0.4084   -0.4186 C   0  0  0  0  0  0  0  0  0  0  0  0
    1.2332   -1.0920    0.5501 N   0  0  0  0  0  0  0  0  0  0  0  0
    0.4932   -1.4856    1.7418 C   0  0  0  0  0  0  0  0  0  0  0  0
    2.7024   -1.1496    0.5394 C   0  0  2  0  0  0  0  0  0  0  0  0
    3.1056   -0.1848    0.9082 H   0  0  0  0  0  0  0  0  0  0  0  0
    3.2567   -1.3138   -0.8954 C   0  0  0  0  0  0  0  0  0  0  0  0
    4.2741   -1.9536   -1.1109 O   0  0  0  0  0  0  0  0  0  0  0  0
    2.5416   -0.6900   -1.8687 N   0  0  0  0  0  0  0  0  0  0  0  0
    1.4069    0.1603   -1.5450 C   0  0  2  0  0  0  0  0  0  0  0  0
    0.7505    0.1878   -2.4251 H   0  0  0  0  0  0  0  0  0  0  0  0
    1.7935    1.6211   -1.1829 C   0  0  0  0  0  0  0  0  0  0  0  0
    2.6453    2.2810   -2.2342 C   0  0  0  0  0  0  0  0  0  0  0  0
    2.0589    2.8639   -3.3675 C   0  0  0  0  0  0  0  0  0  0  0  0
    2.8508    3.3979   -4.3861 C   0  0  0  0  0  0  0  0  0  0  0  0
    4.2449    3.3568   -4.2852 C   0  0  0  0  0  0  0  0  0  0  0  0
    4.8397    2.7865   -3.1564 C   0  0  0  0  0  0  0  0  0  0  0  0
    4.0439    2.2551   -2.1387 C   0  0  0  0  0  0  0  0  0  0  0  0
    2.9165   -0.8508   -3.2659 C   0  0  0  0  0  0  0  0  0  0  0  0
    3.2827   -2.2644    1.4216 C   0  0  0  0  0  0  0  0  0  0  0  0
    3.3064   -2.0070    2.9113 C   0  0  0  0  0  0  0  0  0  0  0  0
    2.8155   -2.9642    3.8103 C   0  0  0  0  0  0  0  0  0  0  0  0
    2.8581   -2.7488    5.1899 C   0  0  0  0  0  0  0  0  0  0  0  0
    3.3962   -1.5643    5.6985 C   0  0  0  0  0  0  0  0  0  0  0  0
    3.8991   -0.6049    4.8151 C   0  0  0  0  0  0  0  0  0  0  0  0
    3.8569   -0.8278    3.4371 C   0  0  0  0  0  0  0  0  0  0  0  0
   -0.5659   -1.2857    1.5439 H   0  0  0  0  0  0  0  0  0  0  0  0
    0.8163   -0.9073    2.6215 H   0  0  0  0  0  0  0  0  0  0  0  0
    0.6276   -2.5526    1.9634 H   0  0  0  0  0  0  0  0  0  0  0  0
    2.3247    1.6225   -0.2182 H   0  0  0  0  0  0  0  0  0  0  0  0
    0.8517    2.1703   -1.0339 H   0  0  0  0  0  0  0  0  0  0  0  0
    0.9689    2.8947   -3.4526 H   0  0  0  0  0  0  0  0  0  0  0  0
    2.3785    3.8496   -5.2619 H   0  0  0  0  0  0  0  0  0  0  0  0
    4.8657    3.7727   -5.0822 H   0  0  0  0  0  0  0  0  0  0  0  0
    5.9282    2.7534   -3.0680 H   0  0  0  0  0  0  0  0  0  0  0  0
    4.5146    1.8009   -1.2630 H   0  0  0  0  0  0  0  0  0  0  0  0
    2.0802   -1.2937   -3.8324 H   0  0  0  0  0  0  0  0  0  0  0  0
    3.7840   -1.5190   -3.3084 H   0  0  0  0  0  0  0  0  0  0  0  0
    3.1802    0.1145   -3.7212 H   0  0  0  0  0  0  0  0  0  0  0  0
    2.7603   -3.2075    1.2007 H   0  0  0  0  0  0  0  0  0  0  0  0
    4.3117   -2.4061    1.0601 H   0  0  0  0  0  0  0  0  0  0  0  0
    2.3883   -3.8925    3.4211 H   0  0  0  0  0  0  0  0  0  0  0  0
    2.4661   -3.5093    5.8697 H   0  0  0  0  0  0  0  0  0  0  0  0
    3.4271   -1.3906    6.7766 H   0  0  0  0  0  0  0  0  0  0  0  0
    4.3315    0.3215    5.2011 H   0  0  0  0  0  0  0  0  0  0  0  0
    4.2668   -0.0711    2.7627 H   0  0  0  0  0  0  0  0  0  0  0  0
  1  2  2  0
  2  3  1  0
  2 10  1  0
  3  4  1  0
  3  5  1  0
  4 27  1  0
  4 28  1  0
  4 29  1  0
  5  6  1  1
  5  7  1  0
  5 20  1  0
  7  8  2  0
  7  9  1  0
  9 10  1  0
  9 19  1  0
 10 11  1  6
 10 12  1  0
 12 13  1  0
 12 30  1  0
 12 31  1  0
 13 14  2  0
 13 18  1  0
 14 15  1  0
 14 32  1  0
 15 16  2  0
 15 33  1  0
 16 17  1  0
 16 34  1  0
 17 18  2  0
 17 35  1  0
 18 36  1  0
 19 37  1  0
 19 38  1  0
 19 39  1  0
 20 21  1  0
 20 40  1  0
 20 41  1  0
 21 22  2  0
 21 26  1  0
 22 23  1  0
 22 42  1  0
 23 24  2  0
 23 43  1  0
 24 25  1  0
 24 44  1  0
 25 26  2  0
 25 45  1  0
 26 46  1  0
M  END

