42
rmsd98.gzmat
C          0.00000        0.00000        0.00000
O          1.18630        0.00000        0.00000
C         -1.07130        0.00000       -1.12340
H         -1.06510        0.97690       -1.66480
C         -2.17220       -0.02860        0.02900
H         -2.71550       -0.99540        0.05700
C         -1.04520        0.03740        1.10000
C         -3.11410        1.11840       -0.03740
C         -4.46130        0.86970       -0.32000
C         -5.36430        1.92530       -0.41270
C         -4.92920        3.23680       -0.22790
C         -3.58540        3.48960        0.04210
C         -2.68000        2.43490        0.13580
N         -1.01910       -1.07680       -2.08230
C         -0.50560       -2.34950       -1.55600
S         -2.41860       -1.21950       -3.14750
O         -2.10770       -2.29510       -4.05920
O         -3.59740       -1.28590       -2.31080
C         -2.39560        0.32090       -3.97560
C         -1.47670        0.55080       -4.99960
C         -1.43480        1.79070       -5.63000
C         -2.31380        2.80730       -5.24220
C         -3.24390        2.56690       -4.22690
C         -3.28680        1.32530       -3.60000
C         -2.26060        4.13240       -5.91950
H         -1.03170        0.94070        1.71910
H         -1.01750       -0.81480        1.78710
H         -4.79990       -0.15740       -0.49230
H         -6.41130        1.72360       -0.63130
H         -5.63590        4.06030       -0.29580
H         -3.24100        4.51250        0.17960
H         -1.63260        2.64490        0.34110
H          0.53800       -2.20920       -1.21480
H         -0.46360       -3.10560       -2.36620
H         -1.09610       -2.76260       -0.72270
H         -0.78270       -0.23510       -5.31900
H         -0.71570        1.96990       -6.42580
H         -3.93560        3.34870       -3.92220
H         -4.02860        1.15500       -2.80680
H         -2.82300        4.90990       -5.38420
H         -2.68340        4.07390       -6.93510
H         -1.22890        4.50020       -6.02300
