42

C          0.10450        0.09630       -0.22890
O          1.23690       -0.27710       -0.37770
C         -1.10830        0.16440       -1.16430
H         -1.14400        1.16980       -1.61220
C         -2.00810        0.14620        0.11560
H         -2.31380       -0.89090        0.33180
C         -0.75130        0.48920        0.97720
C         -3.21000        1.05260        0.16220
C         -3.82500        1.51000       -1.01260
C         -4.95350        2.33290       -0.94530
C         -5.48200        2.70900        0.29130
C         -4.87480        2.25750        1.46720
C         -3.74890        1.43520        1.40080
N         -1.27520       -0.80220       -2.20850
C         -1.10460       -2.22100       -1.93720
S         -1.43950       -0.31070       -3.80320
O         -2.41840       -1.17730       -4.46090
O         -1.64800        1.14200       -3.75340
C          0.14810       -0.65160       -4.55420
C          1.33320       -0.49230       -3.83120
C          2.54960       -0.71720       -4.47540
C          2.60320       -1.09180       -5.82770
C          1.39390       -1.25640       -6.52210
C          0.16710       -1.04310       -5.89530
C          3.92540       -1.29510       -6.52010
H         -0.67080        1.56550        1.20060
H         -0.57320       -0.08510        1.89740
H         -3.42120        1.23770       -1.98900
H         -5.41790        2.68300       -1.87030
H         -6.36270        3.35390        0.34040
H         -5.27910        2.54830        2.44000
H         -3.27930        1.08510        2.32430
H         -0.06760       -2.45860       -1.64690
H         -1.36850       -2.78910       -2.83800
H         -1.78770       -2.54070       -1.13430
H          1.31950       -0.23420       -2.77060
H          3.47800       -0.60650       -3.90930
H          1.41280       -1.56490       -7.57050
H         -0.77350       -1.18900       -6.42820
H          4.28650       -0.34670       -6.95460
H          3.84400       -2.02140       -7.34240
H          4.69760       -1.64810       -5.82040
