42
rmsd118.gzmat
C          0.00000        0.00000        0.00000
O          1.18730        0.00000        0.00000
C         -1.06180        0.00000       -1.13070
H         -1.04390        0.95910       -1.69710
C         -2.16920       -0.03840        0.00410
H         -2.69860       -1.01460        0.01700
C         -1.04810        0.03330        1.09020
C         -3.15070        1.07870        0.07080
C         -3.41820        1.91460       -1.01240
C         -4.36030        2.93550       -0.89320
C         -5.03860        3.13030        0.30690
C         -4.77980        2.29160        1.39050
C         -3.84610        1.26710        1.27160
N         -1.06930       -1.19310       -1.96630
C          0.28330       -1.64210       -2.34000
S         -2.24860       -1.18230       -3.27910
O         -2.55790        0.20520       -3.54950
O         -1.72470       -2.05130       -4.30700
C         -3.63710       -1.93720       -2.52650
C         -3.70150       -3.32580       -2.42720
C         -4.78370       -3.92940       -1.79150
C         -5.80510       -3.14620       -1.24840
C         -5.74730       -1.75370       -1.36940
C         -4.67110       -1.15320       -2.01410
C         -6.95490       -3.78150       -0.54700
H         -1.04790        0.94870        1.69390
H         -1.01910       -0.81470        1.78090
H         -2.90460        1.77850       -1.97120
H         -4.56350        3.58050       -1.74680
H         -5.76640        3.93290        0.40050
H         -5.30640        2.44100        2.33080
H         -3.65530        0.60980        2.11710
H          0.90730       -0.85120       -2.78900
H          0.23440       -2.48850       -3.05180
H          0.80560       -2.01340       -1.43870
H         -2.91160       -3.95790       -2.84740
H         -4.83070       -5.01270       -1.71820
H         -6.54350       -1.13780       -0.95760
H         -4.65080       -0.05920       -2.10990
H         -6.84140       -4.86800       -0.43220
H         -7.89690       -3.61410       -1.09270
H         -7.09200       -3.36690        0.46330
