rmsd58.gzmat
 OpenBabel08211713413D

 42 44  0  0  1  0  0  0  0  0999 V2000
    0.0000    0.0000    0.0000 C   0  0  0  0  0  0  0  0  0  0  0  0
    1.1864    0.0000    0.0000 O   0  0  0  0  0  0  0  0  0  0  0  0
   -1.0737    0.0000   -1.1252 C   0  0  2  0  0  0  0  0  0  0  0  0
   -1.0763    0.9764   -1.6704 H   0  0  0  0  0  0  0  0  0  0  0  0
   -2.1775   -0.0158    0.0198 C   0  0  1  0  0  0  0  0  0  0  0  0
   -2.7411   -0.9677    0.0473 H   0  0  0  0  0  0  0  0  0  0  0  0
   -1.0485    0.0421    1.0956 C   0  0  0  0  0  0  0  0  0  0  0  0
   -3.1338    1.1255    0.0174 C   0  0  0  0  0  0  0  0  0  0  0  0
   -3.6443    1.6240   -1.1829 C   0  0  0  0  0  0  0  0  0  0  0  0
   -4.5545    2.6781   -1.1737 C   0  0  0  0  0  0  0  0  0  0  0  0
   -4.9691    3.2374    0.0331 C   0  0  0  0  0  0  0  0  0  0  0  0
   -4.4735    2.7326    1.2334 C   0  0  0  0  0  0  0  0  0  0  0  0
   -3.5640    1.6777    1.2269 C   0  0  0  0  0  0  0  0  0  0  0  0
   -0.9429   -1.1137   -2.0265 N   0  0  0  0  0  0  0  0  0  0  0  0
   -1.1538   -2.4442   -1.4412 C   0  0  0  0  0  0  0  0  0  0  0  0
   -1.4598   -0.9100   -3.6919 S   0  0  0  0  0  0  0  0  0  0  0  0
   -2.2121   -2.0859   -4.0602 O   0  0  0  0  0  0  0  0  0  0  0  0
   -2.0515    0.4078   -3.7554 O   0  0  0  0  0  0  0  0  0  0  0  0
    0.0544   -0.9120   -4.5715 C   0  0  0  0  0  0  0  0  0  0  0  0
    1.1648   -0.2228   -4.0831 C   0  0  0  0  0  0  0  0  0  0  0  0
    2.3534   -0.2139   -4.8064 C   0  0  0  0  0  0  0  0  0  0  0  0
    2.4397   -0.8924   -6.0262 C   0  0  0  0  0  0  0  0  0  0  0  0
    1.3275   -1.5872   -6.5091 C   0  0  0  0  0  0  0  0  0  0  0  0
    0.1408   -1.6011   -5.7806 C   0  0  0  0  0  0  0  0  0  0  0  0
    3.7125   -0.8647   -6.7987 C   0  0  0  0  0  0  0  0  0  0  0  0
   -1.0228    0.9597    1.6958 H   0  0  0  0  0  0  0  0  0  0  0  0
   -1.0261   -0.8007    1.7914 H   0  0  0  0  0  0  0  0  0  0  0  0
   -3.3366    1.1959   -2.1432 H   0  0  0  0  0  0  0  0  0  0  0  0
   -4.9397    3.0637   -2.1168 H   0  0  0  0  0  0  0  0  0  0  0  0
   -5.6769    4.0631    0.0378 H   0  0  0  0  0  0  0  0  0  0  0  0
   -4.7976    3.1614    2.1791 H   0  0  0  0  0  0  0  0  0  0  0  0
   -3.1949    1.2841    2.1713 H   0  0  0  0  0  0  0  0  0  0  0  0
   -0.5917   -2.5358   -0.4951 H   0  0  0  0  0  0  0  0  0  0  0  0
   -0.7612   -3.2216   -2.1248 H   0  0  0  0  0  0  0  0  0  0  0  0
   -2.2157   -2.6800   -1.2472 H   0  0  0  0  0  0  0  0  0  0  0  0
    1.1282    0.3081   -3.1247 H   0  0  0  0  0  0  0  0  0  0  0  0
    3.2178    0.3222   -4.4201 H   0  0  0  0  0  0  0  0  0  0  0  0
    1.3864   -2.1191   -7.4555 H   0  0  0  0  0  0  0  0  0  0  0  0
   -0.7145   -2.1665   -6.1699 H   0  0  0  0  0  0  0  0  0  0  0  0
    3.9321    0.1502   -7.1658 H   0  0  0  0  0  0  0  0  0  0  0  0
    3.6970   -1.5245   -7.6769 H   0  0  0  0  0  0  0  0  0  0  0  0
    4.5701   -1.1745   -6.1818 H   0  0  0  0  0  0  0  0  0  0  0  0
  1  7  1  0  0  0  0
  2  1  2  0  0  0  0
  3  1  1  0  0  0  0
  3  5  1  0  0  0  0
  3  4  1  6  0  0  0
  5  6  1  1  0  0  0
  5  7  1  0  0  0  0
  7 26  1  0  0  0  0
  7 27  1  0  0  0  0
  8  5  1  0  0  0  0
  8 13  2  0  0  0  0
  9 10  2  0  0  0  0
  9  8  1  0  0  0  0
 10 11  1  0  0  0  0
 11 30  1  0  0  0  0
 11 12  2  0  0  0  0
 12 31  1  0  0  0  0
 13 12  1  0  0  0  0
 13 32  1  0  0  0  0
 14 15  1  0  0  0  0
 14  3  1  0  0  0  0
 15 35  1  0  0  0  0
 15 33  1  0  0  0  0
 16 14  1  0  0  0  0
 17 16  2  0  0  0  0
 18 16  2  0  0  0  0
 19 20  1  0  0  0  0
 19 16  1  0  0  0  0
 20 36  1  0  0  0  0
 21 37  1  0  0  0  0
 21 20  2  0  0  0  0
 22 21  1  0  0  0  0
 23 22  2  0  0  0  0
 23 24  1  0  0  0  0
 24 19  2  0  0  0  0
 25 42  1  0  0  0  0
 25 22  1  0  0  0  0
 28  9  1  0  0  0  0
 29 10  1  0  0  0  0
 34 15  1  0  0  0  0
 38 23  1  0  0  0  0
 39 24  1  0  0  0  0
 40 25  1  0  0  0  0
 41 25  1  0  0  0  0
M  END
$$$$
