42
rmsd156.gzmat
C          0.00000        0.00000        0.00000
O          1.18740        0.00000        0.00000
C         -1.06100        0.00000       -1.13180
H         -1.03940        0.95390       -1.70630
C         -2.17000       -0.02460        0.00160
H         -2.71490       -0.99180        0.01540
C         -1.04900        0.03210        1.08920
C         -3.13560        1.10710        0.05500
C         -3.44800        1.87840       -1.06360
C         -4.38180        2.90850       -0.96560
C         -5.00380        3.18080        0.24970
C         -4.69590        2.41030        1.37030
C         -3.77110        1.37540        1.27280
N         -1.06670       -1.20170       -1.95500
C          0.29030       -1.66120       -2.30010
S         -2.23390       -1.20930       -3.27650
O         -2.52240        0.17430       -3.58920
O         -1.71440       -2.11330       -4.27590
C         -3.64500       -1.92150       -2.52230
C         -4.73550       -1.12290       -2.18180
C         -5.85360       -1.68910       -1.57500
C         -5.88950       -3.06110       -1.31350
C         -4.79590       -3.86080       -1.66320
C         -3.67840       -3.29230       -2.26620
C         -7.08330       -3.68350       -0.67680
H         -1.04100        0.94130        1.70140
H         -1.02590       -0.82230        1.77250
H         -2.97060        1.68890       -2.03180
H         -4.62040        3.50150       -1.84720
H         -5.72340        3.99220        0.32690
H         -5.17760        2.62020        2.32270
H         -3.54080        0.77320        2.14880
H          0.95530       -0.85540       -2.65460
H          0.26390       -2.45000       -3.07580
H          0.75310       -2.11160       -1.40190
H         -4.72980       -0.04380       -2.38490
H         -6.69760       -1.05850       -1.30460
H         -4.82180       -4.92960       -1.46620
H         -2.83570       -3.93600       -2.53980
H         -6.81350       -4.24540        0.22990
H         -7.57330       -4.39470       -1.36040
H         -7.84580       -2.94990       -0.38120
