42
rmsd64.gzmat
C          0.00000        0.00000        0.00000
O          1.18660        0.00000        0.00000
C         -1.07220        0.00000       -1.12630
H         -1.07110        0.97550       -1.67360
C         -2.17780       -0.01470        0.01490
H         -2.74410       -0.96530        0.03980
C         -1.05060        0.03950        1.09370
C         -3.13130        1.12900        0.01870
C         -3.59110        1.68600       -1.17600
C         -4.49810        2.74300       -1.15260
C         -4.95650        3.24840        0.06180
C         -4.51300        2.68320        1.25620
C         -3.60980        1.62350        1.23540
N         -0.94200       -1.11700       -2.02360
C         -1.18350       -2.44410       -1.44310
S         -1.41820       -0.90080       -3.69910
O         -2.17420       -2.06610       -4.09180
O         -1.99420        0.42340       -3.77120
C          0.11980       -0.91990       -4.53740
C          1.24600       -0.30950       -3.98420
C          2.45590       -0.32580       -4.67130
C          2.54730       -0.94760       -5.92060
C          1.41770       -1.55930       -6.47060
C          0.21040       -1.55150       -5.77690
C          3.84430       -0.95300       -6.65220
H         -1.02790        0.95450        1.69750
H         -1.02970       -0.80650        1.78570
H         -3.24970        1.29990       -2.14310
H         -4.84720        3.17170       -2.09080
H         -5.66010        4.07750        0.07770
H         -4.87400        3.06810        2.20730
H         -3.28290        1.17830        2.17240
H         -0.62250       -2.55110       -0.49790
H         -0.81130       -3.22910       -2.12910
H         -2.25000       -2.65670       -1.24870
H          1.20610        0.17540       -3.00110
H          3.33350        0.14370       -4.23210
H          1.48010       -2.04400       -7.44180
H         -0.65770       -2.05520       -6.21800
H          4.13030        0.06440       -6.96270
H          3.82270       -1.56960       -7.56110
H          4.66260       -1.33840       -6.02480
