42
rmsd58.gzmat
C          0.00000        0.00000        0.00000
O          1.18640        0.00000        0.00000
C         -1.07370        0.00000       -1.12520
H         -1.07630        0.97640       -1.67040
C         -2.17750       -0.01580        0.01980
H         -2.74110       -0.96770        0.04730
C         -1.04850        0.04210        1.09560
C         -3.13380        1.12550        0.01740
C         -3.64430        1.62400       -1.18290
C         -4.55450        2.67810       -1.17370
C         -4.96910        3.23740        0.03310
C         -4.47350        2.73260        1.23340
C         -3.56400        1.67770        1.22690
N         -0.94290       -1.11370       -2.02650
C         -1.15380       -2.44420       -1.44120
S         -1.45980       -0.91000       -3.69190
O         -2.21210       -2.08590       -4.06020
O         -2.05150        0.40780       -3.75540
C          0.05440       -0.91200       -4.57150
C          1.16480       -0.22280       -4.08310
C          2.35340       -0.21390       -4.80640
C          2.43970       -0.89240       -6.02620
C          1.32750       -1.58720       -6.50910
C          0.14080       -1.60110       -5.78060
C          3.71250       -0.86470       -6.79870
H         -1.02280        0.95970        1.69580
H         -1.02610       -0.80070        1.79140
H         -3.33660        1.19590       -2.14320
H         -4.93970        3.06370       -2.11680
H         -5.67690        4.06310        0.03780
H         -4.79760        3.16140        2.17910
H         -3.19490        1.28410        2.17130
H         -0.59170       -2.53580       -0.49510
H         -0.76120       -3.22160       -2.12480
H         -2.21570       -2.68000       -1.24720
H          1.12820        0.30810       -3.12470
H          3.21780        0.32220       -4.42010
H          1.38640       -2.11910       -7.45550
H         -0.71450       -2.16650       -6.16990
H          3.93210        0.15020       -7.16580
H          3.69700       -1.52450       -7.67690
H          4.57010       -1.17450       -6.18180
