
     RDKit          3D

 42 44  0  0  0  0  0  0  0  0999 V2000
    0.1105   -0.1080   -0.1362 C   0  0  0  0  0  0  0  0  0  0  0  0
    1.2362   -0.5159   -0.1760 O   0  0  0  0  0  0  0  0  0  0  0  0
   -1.0501   -0.1084   -1.1462 C   0  0  2  0  0  0  0  0  0  0  0  0
   -1.0175    0.8573   -1.6817 H   0  0  0  0  0  0  0  0  0  0  0  0
   -2.0269    0.0631    0.0907 C   0  0  1  0  0  0  0  0  0  0  0  0
   -2.4395   -0.9145    0.3718 H   0  0  0  0  0  0  0  0  0  0  0  0
   -0.7942    0.4146    0.9775 C   0  0  0  0  0  0  0  0  0  0  0  0
   -3.1313    1.0718   -0.0568 C   0  0  0  0  0  0  0  0  0  0  0  0
   -4.4739    0.6676   -0.0501 C   0  0  0  0  0  0  0  0  0  0  0  0
   -5.5005    1.5922   -0.2532 C   0  0  0  0  0  0  0  0  0  0  0  0
   -5.2025    2.9417   -0.4652 C   0  0  0  0  0  0  0  0  0  0  0  0
   -3.8685    3.3582   -0.4691 C   0  0  0  0  0  0  0  0  0  0  0  0
   -2.8453    2.4301   -0.2671 C   0  0  0  0  0  0  0  0  0  0  0  0
   -1.1296   -1.1802   -2.1006 N   0  0  0  0  0  0  0  0  0  0  0  0
   -0.7549   -2.5214   -1.6471 C   0  0  0  0  0  0  0  0  0  0  0  0
   -2.5095   -1.1721   -3.1104 S   0  0  0  0  0  0  0  0  0  0  0  0
   -2.2569   -2.1789   -4.1427 O   0  0  0  0  0  0  0  0  0  0  0  0
   -3.7349   -1.2495   -2.3037 O   0  0  0  0  0  0  0  0  0  0  0  0
   -2.4034    0.4571   -3.8216 C   0  0  0  0  0  0  0  0  0  0  0  0
   -1.3648    0.7379   -4.7164 C   0  0  0  0  0  0  0  0  0  0  0  0
   -1.2838    2.0117   -5.2690 C   0  0  0  0  0  0  0  0  0  0  0  0
   -2.2309    3.0046   -4.9505 C   0  0  0  0  0  0  0  0  0  0  0  0
   -3.2643    2.6849   -4.0598 C   0  0  0  0  0  0  0  0  0  0  0  0
   -3.3606    1.4133   -3.4901 C   0  0  0  0  0  0  0  0  0  0  0  0
   -2.1316    4.3732   -5.5717 C   0  0  0  0  0  0  0  0  0  0  0  0
   -0.6651    1.4937    1.1551 H   0  0  0  0  0  0  0  0  0  0  0  0
   -0.6952   -0.1109    1.9387 H   0  0  0  0  0  0  0  0  0  0  0  0
   -4.7109   -0.3892    0.0799 H   0  0  0  0  0  0  0  0  0  0  0  0
   -6.5396    1.2544   -0.2523 H   0  0  0  0  0  0  0  0  0  0  0  0
   -6.0060    3.6647   -0.6245 H   0  0  0  0  0  0  0  0  0  0  0  0
   -3.6216    4.4096   -0.6349 H   0  0  0  0  0  0  0  0  0  0  0  0
   -1.8083    2.7756   -0.2874 H   0  0  0  0  0  0  0  0  0  0  0  0
    0.3027   -2.5068   -1.3540 H   0  0  0  0  0  0  0  0  0  0  0  0
   -0.8824   -3.2169   -2.4854 H   0  0  0  0  0  0  0  0  0  0  0  0
   -1.3672   -2.8735   -0.7964 H   0  0  0  0  0  0  0  0  0  0  0  0
   -0.6375   -0.0364   -4.9650 H   0  0  0  0  0  0  0  0  0  0  0  0
   -0.4740    2.2454   -5.9652 H   0  0  0  0  0  0  0  0  0  0  0  0
   -4.0051    3.4424   -3.7944 H   0  0  0  0  0  0  0  0  0  0  0  0
   -4.1574    1.1645   -2.7896 H   0  0  0  0  0  0  0  0  0  0  0  0
   -1.1197    4.7927   -5.4529 H   0  0  0  0  0  0  0  0  0  0  0  0
   -2.8496    5.0747   -5.1235 H   0  0  0  0  0  0  0  0  0  0  0  0
   -2.3359    4.3279   -6.6546 H   0  0  0  0  0  0  0  0  0  0  0  0
  1  2  2  0
  1  3  1  0
  1  7  1  0
  3  4  1  6
  3  5  1  0
  3 14  1  0
  5  6  1  1
  5  7  1  0
  5  8  1  0
  7 26  1  0
  7 27  1  0
  8  9  2  0
  8 13  1  0
  9 10  1  0
  9 28  1  0
 10 11  2  0
 10 29  1  0
 11 12  1  0
 11 30  1  0
 12 13  2  0
 12 31  1  0
 13 32  1  0
 14 15  1  0
 16 14  1  0
 15 33  1  0
 15 34  1  0
 15 35  1  0
 16 17  2  0
 16 18  2  0
 16 19  1  0
 19 20  2  0
 19 24  1  0
 20 21  1  0
 20 36  1  0
 21 22  2  0
 21 37  1  0
 22 23  1  0
 22 25  1  0
 23 24  2  0
 23 38  1  0
 24 39  1  0
 25 40  1  0
 25 41  1  0
 25 42  1  0
M  END

