42
rmsd111.gzmat
C          0.00000        0.00000        0.00000
O          1.18630        0.00000        0.00000
C         -1.07170        0.00000       -1.12310
H         -1.06800        0.97760       -1.66300
C         -2.17210       -0.03330        0.02970
H         -2.71450       -1.00060        0.05630
C         -1.04520        0.03190        1.10050
C         -3.11490        1.11290       -0.03800
C         -4.46090        0.86370       -0.32430
C         -5.36340        1.91950       -0.42320
C         -4.92850        3.23140       -0.24320
C         -3.58610        3.48410        0.03270
C         -2.68150        2.42950        0.13310
N         -1.01720       -1.07530       -2.08320
C         -0.51940       -2.35220       -1.55190
S         -2.41340       -1.21220       -3.15490
O         -2.08300       -2.25830       -4.09310
O         -3.59220       -1.32120       -2.32220
C         -2.41880        0.34990       -3.94200
C         -1.44980        0.65480       -4.89760
C         -1.43510        1.91140       -5.49630
C         -2.39360        2.86800       -5.14750
C         -3.37380        2.55170       -4.20190
C         -3.38680        1.29540       -3.60430
C         -2.36030        4.22200       -5.76650
H         -1.03450        0.93240        1.72340
H         -1.01360       -0.82350        1.78370
H         -4.79910       -0.16400       -0.49360
H         -6.41000        1.71740       -0.64250
H         -5.63370        4.05550       -0.31850
H         -3.24260        4.50720        0.16920
H         -1.63540        2.63960        0.34320
H          0.51470       -2.21760       -1.18140
H         -0.45680       -3.10120       -2.36710
H         -1.13330       -2.77080       -0.73840
H         -0.69290       -0.08320       -5.18700
H         -0.67480        2.14830       -6.23670
H         -4.12630        3.28740       -3.92780
H         -4.16490        1.06710       -2.86210
H         -1.70120        4.89530       -5.19510
H         -3.35110        4.69710       -5.79890
H         -1.98240        4.20440       -6.79860
