rmsd156.gzmat
 OpenBabel08211713413D

 42 44  0  0  1  0  0  0  0  0999 V2000
    0.0000    0.0000    0.0000 C   0  0  0  0  0  0  0  0  0  0  0  0
    1.1874    0.0000    0.0000 O   0  0  0  0  0  0  0  0  0  0  0  0
   -1.0610    0.0000   -1.1318 C   0  0  2  0  0  0  0  0  0  0  0  0
   -1.0394    0.9539   -1.7063 H   0  0  0  0  0  0  0  0  0  0  0  0
   -2.1700   -0.0246    0.0016 C   0  0  1  0  0  0  0  0  0  0  0  0
   -2.7149   -0.9918    0.0154 H   0  0  0  0  0  0  0  0  0  0  0  0
   -1.0490    0.0321    1.0892 C   0  0  0  0  0  0  0  0  0  0  0  0
   -3.1356    1.1071    0.0550 C   0  0  0  0  0  0  0  0  0  0  0  0
   -3.4480    1.8784   -1.0636 C   0  0  0  0  0  0  0  0  0  0  0  0
   -4.3818    2.9085   -0.9656 C   0  0  0  0  0  0  0  0  0  0  0  0
   -5.0038    3.1808    0.2497 C   0  0  0  0  0  0  0  0  0  0  0  0
   -4.6959    2.4103    1.3703 C   0  0  0  0  0  0  0  0  0  0  0  0
   -3.7711    1.3754    1.2728 C   0  0  0  0  0  0  0  0  0  0  0  0
   -1.0667   -1.2017   -1.9550 N   0  0  0  0  0  0  0  0  0  0  0  0
    0.2903   -1.6612   -2.3001 C   0  0  0  0  0  0  0  0  0  0  0  0
   -2.2339   -1.2093   -3.2765 S   0  0  0  0  0  0  0  0  0  0  0  0
   -2.5224    0.1743   -3.5892 O   0  0  0  0  0  0  0  0  0  0  0  0
   -1.7144   -2.1133   -4.2759 O   0  0  0  0  0  0  0  0  0  0  0  0
   -3.6450   -1.9215   -2.5223 C   0  0  0  0  0  0  0  0  0  0  0  0
   -4.7355   -1.1229   -2.1818 C   0  0  0  0  0  0  0  0  0  0  0  0
   -5.8536   -1.6891   -1.5750 C   0  0  0  0  0  0  0  0  0  0  0  0
   -5.8895   -3.0611   -1.3135 C   0  0  0  0  0  0  0  0  0  0  0  0
   -4.7959   -3.8608   -1.6632 C   0  0  0  0  0  0  0  0  0  0  0  0
   -3.6784   -3.2923   -2.2662 C   0  0  0  0  0  0  0  0  0  0  0  0
   -7.0833   -3.6835   -0.6768 C   0  0  0  0  0  0  0  0  0  0  0  0
   -1.0410    0.9413    1.7014 H   0  0  0  0  0  0  0  0  0  0  0  0
   -1.0259   -0.8223    1.7725 H   0  0  0  0  0  0  0  0  0  0  0  0
   -2.9706    1.6889   -2.0318 H   0  0  0  0  0  0  0  0  0  0  0  0
   -4.6204    3.5015   -1.8472 H   0  0  0  0  0  0  0  0  0  0  0  0
   -5.7234    3.9922    0.3269 H   0  0  0  0  0  0  0  0  0  0  0  0
   -5.1776    2.6202    2.3227 H   0  0  0  0  0  0  0  0  0  0  0  0
   -3.5408    0.7732    2.1488 H   0  0  0  0  0  0  0  0  0  0  0  0
    0.9553   -0.8554   -2.6546 H   0  0  0  0  0  0  0  0  0  0  0  0
    0.2639   -2.4500   -3.0758 H   0  0  0  0  0  0  0  0  0  0  0  0
    0.7531   -2.1116   -1.4019 H   0  0  0  0  0  0  0  0  0  0  0  0
   -4.7298   -0.0438   -2.3849 H   0  0  0  0  0  0  0  0  0  0  0  0
   -6.6976   -1.0585   -1.3046 H   0  0  0  0  0  0  0  0  0  0  0  0
   -4.8218   -4.9296   -1.4662 H   0  0  0  0  0  0  0  0  0  0  0  0
   -2.8357   -3.9360   -2.5398 H   0  0  0  0  0  0  0  0  0  0  0  0
   -6.8135   -4.2454    0.2299 H   0  0  0  0  0  0  0  0  0  0  0  0
   -7.5733   -4.3947   -1.3604 H   0  0  0  0  0  0  0  0  0  0  0  0
   -7.8458   -2.9499   -0.3812 H   0  0  0  0  0  0  0  0  0  0  0  0
  1  7  1  0  0  0  0
  2  1  2  0  0  0  0
  3  1  1  0  0  0  0
  3  5  1  0  0  0  0
  3  4  1  6  0  0  0
  5  6  1  1  0  0  0
  5  8  1  0  0  0  0
  5  7  1  0  0  0  0
  7 26  1  0  0  0  0
  7 27  1  0  0  0  0
  8 13  2  0  0  0  0
  9 10  2  0  0  0  0
  9  8  1  0  0  0  0
 10 11  1  0  0  0  0
 11 30  1  0  0  0  0
 11 12  2  0  0  0  0
 12 31  1  0  0  0  0
 13 12  1  0  0  0  0
 13 32  1  0  0  0  0
 14  3  1  0  0  0  0
 15 14  1  0  0  0  0
 15 35  1  0  0  0  0
 16 19  1  0  0  0  0
 16 14  1  0  0  0  0
 17 16  2  0  0  0  0
 18 16  2  0  0  0  0
 19 24  2  0  0  0  0
 19 20  1  0  0  0  0
 20 21  2  0  0  0  0
 21 22  1  0  0  0  0
 21 37  1  0  0  0  0
 22 25  1  0  0  0  0
 23 38  1  0  0  0  0
 23 22  2  0  0  0  0
 24 23  1  0  0  0  0
 25 42  1  0  0  0  0
 25 40  1  0  0  0  0
 28  9  1  0  0  0  0
 29 10  1  0  0  0  0
 33 15  1  0  0  0  0
 34 15  1  0  0  0  0
 36 20  1  0  0  0  0
 39 24  1  0  0  0  0
 41 25  1  0  0  0  0
M  END
$$$$
