rmsd57.gzmat
 OpenBabel08211713413D

 42 44  0  0  1  0  0  0  0  0999 V2000
    0.0000    0.0000    0.0000 C   0  0  0  0  0  0  0  0  0  0  0  0
    1.1857    0.0000    0.0000 O   0  0  0  0  0  0  0  0  0  0  0  0
   -1.0800    0.0000   -1.1203 C   0  0  2  0  0  0  0  0  0  0  0  0
   -1.0843    0.9737   -1.6662 H   0  0  0  0  0  0  0  0  0  0  0  0
   -2.1782   -0.0164    0.0309 C   0  0  1  0  0  0  0  0  0  0  0  0
   -2.7410   -0.9691    0.0600 H   0  0  0  0  0  0  0  0  0  0  0  0
   -1.0448    0.0396    1.1007 C   0  0  0  0  0  0  0  0  0  0  0  0
   -3.1390    1.1210    0.0336 C   0  0  0  0  0  0  0  0  0  0  0  0
   -3.6729    1.6022   -1.1636 C   0  0  0  0  0  0  0  0  0  0  0  0
   -4.5984    2.6424   -1.1502 C   0  0  0  0  0  0  0  0  0  0  0  0
   -5.0027    3.2073    0.0576 C   0  0  0  0  0  0  0  0  0  0  0  0
   -4.4806    2.7223    1.2551 C   0  0  0  0  0  0  0  0  0  0  0  0
   -3.5568    1.6801    1.2446 C   0  0  0  0  0  0  0  0  0  0  0  0
   -0.9577   -1.1174   -2.0175 N   0  0  0  0  0  0  0  0  0  0  0  0
   -1.2037   -2.4437   -1.4371 C   0  0  0  0  0  0  0  0  0  0  0  0
   -1.4239   -0.9068   -3.6953 S   0  0  0  0  0  0  0  0  0  0  0  0
   -1.9924   -2.1630   -4.1223 O   0  0  0  0  0  0  0  0  0  0  0  0
   -2.1706    0.3307   -3.7550 O   0  0  0  0  0  0  0  0  0  0  0  0
    0.1181   -0.6652   -4.4829 C   0  0  0  0  0  0  0  0  0  0  0  0
    0.8211   -1.7550   -4.9941 C   0  0  0  0  0  0  0  0  0  0  0  0
    2.0616   -1.5630   -5.5966 C   0  0  0  0  0  0  0  0  0  0  0  0
    2.6040   -0.2785   -5.6917 C   0  0  0  0  0  0  0  0  0  0  0  0
    1.8906    0.8132   -5.1862 C   0  0  0  0  0  0  0  0  0  0  0  0
    0.6509    0.6205   -4.5849 C   0  0  0  0  0  0  0  0  0  0  0  0
    3.9388   -0.0659   -6.3166 C   0  0  0  0  0  0  0  0  0  0  0  0
   -1.0150    0.9549    1.7033 H   0  0  0  0  0  0  0  0  0  0  0  0
   -1.0184   -0.8057    1.7929 H   0  0  0  0  0  0  0  0  0  0  0  0
   -3.3752    1.1663   -2.1241 H   0  0  0  0  0  0  0  0  0  0  0  0
   -5.0058    3.0114   -2.0902 H   0  0  0  0  0  0  0  0  0  0  0  0
   -5.7251    4.0199    0.0654 H   0  0  0  0  0  0  0  0  0  0  0  0
   -4.7965    3.1556    2.2017 H   0  0  0  0  0  0  0  0  0  0  0  0
   -3.1679    1.3004    2.1868 H   0  0  0  0  0  0  0  0  0  0  0  0
   -0.7095   -2.5295   -0.4540 H   0  0  0  0  0  0  0  0  0  0  0  0
   -0.7617   -3.2230   -2.0879 H   0  0  0  0  0  0  0  0  0  0  0  0
   -2.2758   -2.6816   -1.3169 H   0  0  0  0  0  0  0  0  0  0  0  0
    0.4091   -2.7690   -4.9352 H   0  0  0  0  0  0  0  0  0  0  0  0
    2.6104   -2.4158   -5.9896 H   0  0  0  0  0  0  0  0  0  0  0  0
    2.3082    1.8147   -5.2601 H   0  0  0  0  0  0  0  0  0  0  0  0
    0.1039    1.4898   -4.2017 H   0  0  0  0  0  0  0  0  0  0  0  0
    3.9411    0.7940   -7.0027 H   0  0  0  0  0  0  0  0  0  0  0  0
    4.2858   -0.9345   -6.8932 H   0  0  0  0  0  0  0  0  0  0  0  0
    4.7039    0.1343   -5.5488 H   0  0  0  0  0  0  0  0  0  0  0  0
  1  7  1  0  0  0  0
  2  1  2  0  0  0  0
  3  1  1  0  0  0  0
  3  5  1  0  0  0  0
  3  4  1  6  0  0  0
  5  8  1  0  0  0  0
  5  6  1  1  0  0  0
  5  7  1  0  0  0  0
  7 26  1  0  0  0  0
  7 27  1  0  0  0  0
  8 13  2  0  0  0  0
  9 10  2  0  0  0  0
  9  8  1  0  0  0  0
 10 11  1  0  0  0  0
 11 30  1  0  0  0  0
 11 12  2  0  0  0  0
 12 31  1  0  0  0  0
 13 12  1  0  0  0  0
 13 32  1  0  0  0  0
 14 15  1  0  0  0  0
 14  3  1  0  0  0  0
 15 35  1  0  0  0  0
 15 33  1  0  0  0  0
 16 14  1  0  0  0  0
 17 16  2  0  0  0  0
 18 16  2  0  0  0  0
 19 16  1  0  0  0  0
 20 36  1  0  0  0  0
 20 19  2  0  0  0  0
 21 20  1  0  0  0  0
 22 21  2  0  0  0  0
 22 23  1  0  0  0  0
 23 24  2  0  0  0  0
 24 19  1  0  0  0  0
 24 39  1  0  0  0  0
 25 22  1  0  0  0  0
 25 42  1  0  0  0  0
 28  9  1  0  0  0  0
 29 10  1  0  0  0  0
 34 15  1  0  0  0  0
 37 21  1  0  0  0  0
 38 23  1  0  0  0  0
 40 25  1  0  0  0  0
 41 25  1  0  0  0  0
M  END
$$$$
