88
rmsd191.gzmat
C          0.00000        0.00000        0.00000
C          1.39670        0.00000        0.00000
C          2.10740        0.00000        1.19790
C          1.43250       -0.00440        2.41800
C          0.04100       -0.02360        2.44860
C         -0.64990       -0.02470        1.23600
F         -1.97070       -0.06720        1.28560
C         -0.71560        0.05610       -1.31230
O         -2.06690       -0.35440       -1.14760
C         -3.07310        0.60310       -1.33710
H         -3.96330        0.07570       -0.90740
C         -3.26140        0.87540       -2.84740
H         -2.34140        1.29780       -3.31340
C         -3.76550       -0.37340       -3.61590
H         -4.66330       -0.82260       -3.12770
C         -2.67160       -1.44240       -3.79250
H         -2.20330       -1.68430       -2.79540
O         -3.23140       -2.68360       -4.12100
C         -3.88740       -2.77900       -5.38840
C         -3.43030       -4.08590       -5.95630
C         -3.18350       -4.27220       -7.31690
C         -2.73610       -5.48250       -7.84470
C         -2.52060       -6.54340       -6.96900
C         -2.76420       -6.38890       -5.60430
C         -3.22360       -5.17330       -5.10330
F         -3.37870       -3.26230       -8.15130
C         -1.59870       -1.00490       -4.79160
O         -1.65430        0.07400       -5.36940
N         -0.51830       -1.80530       -5.05060
C         -0.30460       -3.12740       -4.48610
H         -1.28960       -3.62590       -4.25900
C          0.48780       -4.00950       -5.41570
C          1.50590       -4.68360       -4.72030
C          2.33550       -5.57360       -5.37930
C          2.14160       -5.77960       -6.75040
C          1.13870       -5.10300       -7.43880
C          0.29660       -4.20810       -6.77000
C          1.53230       -4.29630       -3.27740
C          0.56610       -3.09050       -3.16660
H         -0.05310       -3.09950       -2.24800
O          1.28070       -1.89440       -3.05290
O         -4.26990        0.07230       -4.85100
O         -4.26000        1.87150       -2.92520
C         -2.82160        1.89800       -0.55640
O         -1.77330        2.13530        0.00540
N         -3.90780        2.75040       -0.44410
C         -3.67550        4.08170        0.12110
H         -3.01820        3.98700        1.02340
C         -3.08150        5.02450       -0.89750
C         -4.00290        6.00980       -1.28600
C         -3.66060        6.95420       -2.23880
C         -2.37870        6.90380       -2.79870
C         -1.46480        5.92900       -2.40640
C         -1.81250        4.97470       -1.44420
C         -5.30050        5.86880       -0.55850
C         -5.05400        4.75360        0.48710
H         -5.03950        5.13930        1.52480
O         -6.13750        3.86580        0.36180
H          1.93410       -0.00180       -0.94900
H          3.19440        0.00940        1.18110
H          1.99340        0.00890        3.35060
H         -0.49350       -0.02680        3.39530
H         -0.30870       -0.69540       -2.02560
H         -0.62430        1.06400       -1.76330
H         -3.67280       -1.90820       -6.03360
H         -4.97410       -2.77940       -5.16450
H         -2.55920       -5.59770       -8.91250
H         -2.16030       -7.49760       -7.35160
H         -2.59500       -7.22410       -4.92700
H         -3.42470       -5.06330       -4.03510
H          0.18040       -1.47080       -5.70740
H          3.12310       -6.10160       -4.84950
H          2.78750       -6.47630       -7.28320
H          1.00300       -5.27010       -8.50610
H         -0.49460       -3.68790       -7.30800
H          1.20760       -5.13100       -2.62880
H          2.54470       -4.02190       -2.92610
H          1.86640       -1.74730       -3.82350
H         -3.51970        0.40520       -5.41620
H         -4.76430        1.78630       -3.77190
H         -4.65620        2.69080       -1.13810
H         -4.36810        7.71590       -2.55090
H         -2.09570        7.63770       -3.55100
H         -0.47200        5.90520       -2.85010
H         -1.10220        4.20730       -1.13280
H         -5.63100        6.80790       -0.08660
H         -6.12010        5.56610       -1.24530
H         -5.97030        3.03830        0.86200
