
     RDKit          3D

 88 93  0  0  0  0  0  0  0  0999 V2000
    0.0176    0.1674    0.0960 C   0  0  0  0  0  0  0  0  0  0  0  0
    1.3965   -0.0702    0.0368 C   0  0  0  0  0  0  0  0  0  0  0  0
    2.2568    0.4408    1.0142 C   0  0  0  0  0  0  0  0  0  0  0  0
    1.7473    1.2125    2.0606 C   0  0  0  0  0  0  0  0  0  0  0  0
    0.3761    1.4811    2.1275 C   0  0  0  0  0  0  0  0  0  0  0  0
   -0.4582    0.9568    1.1475 C   0  0  0  0  0  0  0  0  0  0  0  0
   -1.7798    1.1933    1.2140 F   0  0  0  0  0  0  0  0  0  0  0  0
   -0.9607   -0.4451   -0.8737 C   0  0  0  0  0  0  0  0  0  0  0  0
   -0.2493   -1.2284   -1.8159 O   0  0  0  0  0  0  0  0  0  0  0  0
   -0.8411   -2.4388   -2.2366 C   0  0  2  0  0  0  0  0  0  0  0  0
   -0.1165   -2.8711   -2.9394 H   0  0  0  0  0  0  0  0  0  0  0  0
   -2.1551   -2.2467   -3.0086 C   0  0  1  0  0  0  0  0  0  0  0  0
   -2.0875   -1.2686   -3.5108 H   0  0  0  0  0  0  0  0  0  0  0  0
   -2.4153   -3.3202   -4.0989 C   0  0  2  0  0  0  0  0  0  0  0  0
   -2.1790   -4.3213   -3.6866 H   0  0  0  0  0  0  0  0  0  0  0  0
   -1.5888   -3.0889   -5.3746 C   0  0  1  0  0  0  0  0  0  0  0  0
   -1.8993   -2.0988   -5.7618 H   0  0  0  0  0  0  0  0  0  0  0  0
   -0.2262   -3.1012   -5.0303 O   0  0  0  0  0  0  0  0  0  0  0  0
    0.6336   -2.2968   -5.8352 C   0  0  0  0  0  0  0  0  0  0  0  0
    0.5693   -0.8481   -5.4172 C   0  0  0  0  0  0  0  0  0  0  0  0
    1.2165   -0.4170   -4.2541 C   0  0  0  0  0  0  0  0  0  0  0  0
    1.1184    0.8839   -3.7752 C   0  0  0  0  0  0  0  0  0  0  0  0
    0.3422    1.8038   -4.4841 C   0  0  0  0  0  0  0  0  0  0  0  0
   -0.3133    1.4152   -5.6562 C   0  0  0  0  0  0  0  0  0  0  0  0
   -0.1945    0.0999   -6.1133 C   0  0  0  0  0  0  0  0  0  0  0  0
    1.9605   -1.3055   -3.5670 F   0  0  0  0  0  0  0  0  0  0  0  0
   -1.8243   -4.1186   -6.5111 C   0  0  0  0  0  0  0  0  0  0  0  0
   -0.8842   -4.5092   -7.1906 O   0  0  0  0  0  0  0  0  0  0  0  0
   -3.1036   -4.4989   -6.7219 N   0  0  0  0  0  0  0  0  0  0  0  0
   -3.4581   -5.4313   -7.7639 C   0  0  1  0  0  0  0  0  0  0  0  0
   -2.8243   -5.2183   -8.6426 H   0  0  0  0  0  0  0  0  0  0  0  0
   -3.3238   -6.9067   -7.4201 C   0  0  0  0  0  0  0  0  0  0  0  0
   -4.3778   -7.6296   -7.9995 C   0  0  0  0  0  0  0  0  0  0  0  0
   -4.4625   -9.0111   -7.8248 C   0  0  0  0  0  0  0  0  0  0  0  0
   -3.4789   -9.6590   -7.0673 C   0  0  0  0  0  0  0  0  0  0  0  0
   -2.4240   -8.9340   -6.4987 C   0  0  0  0  0  0  0  0  0  0  0  0
   -2.3366   -7.5477   -6.6739 C   0  0  0  0  0  0  0  0  0  0  0  0
   -5.2818   -6.6908   -8.7705 C   0  0  0  0  0  0  0  0  0  0  0  0
   -4.9608   -5.3197   -8.1412 C   0  0  1  0  0  0  0  0  0  0  0  0
   -5.1537   -4.4756   -8.8181 H   0  0  0  0  0  0  0  0  0  0  0  0
   -5.7503   -5.0756   -6.9906 O   0  0  0  0  0  0  0  0  0  0  0  0
   -3.7815   -3.2334   -4.4493 O   0  0  0  0  0  0  0  0  0  0  0  0
   -3.2890   -2.1854   -2.1540 O   0  0  0  0  0  0  0  0  0  0  0  0
   -0.9691   -3.4016   -1.0465 C   0  0  0  0  0  0  0  0  0  0  0  0
   -1.9515   -4.1398   -0.8849 O   0  0  0  0  0  0  0  0  0  0  0  0
    0.0748   -3.3576   -0.2046 N   0  0  0  0  0  0  0  0  0  0  0  0
    0.1122   -4.0572    1.0739 C   0  0  1  0  0  0  0  0  0  0  0  0
   -0.1850   -5.1007    0.8915 H   0  0  0  0  0  0  0  0  0  0  0  0
    1.4829   -3.9072    1.6915 C   0  0  0  0  0  0  0  0  0  0  0  0
    1.4628   -2.9230    2.6923 C   0  0  0  0  0  0  0  0  0  0  0  0
    2.6441   -2.5728    3.3478 C   0  0  0  0  0  0  0  0  0  0  0  0
    3.8366   -3.2119    2.9911 C   0  0  0  0  0  0  0  0  0  0  0  0
    3.8524   -4.1910    1.9891 C   0  0  0  0  0  0  0  0  0  0  0  0
    2.6704   -4.5428    1.3286 C   0  0  0  0  0  0  0  0  0  0  0  0
    0.0750   -2.3619    2.8659 C   0  0  0  0  0  0  0  0  0  0  0  0
   -0.8165   -3.3869    2.1446 C   0  0  1  0  0  0  0  0  0  0  0  0
   -1.0844   -4.1887    2.8612 H   0  0  0  0  0  0  0  0  0  0  0  0
   -1.9637   -2.7706    1.6229 O   0  0  0  0  0  0  0  0  0  0  0  0
    1.7854   -0.6610   -0.7940 H   0  0  0  0  0  0  0  0  0  0  0  0
    3.3261    0.2284    0.9587 H   0  0  0  0  0  0  0  0  0  0  0  0
    2.4139    1.6102    2.8289 H   0  0  0  0  0  0  0  0  0  0  0  0
   -0.0585    2.0798    2.9298 H   0  0  0  0  0  0  0  0  0  0  0  0
   -1.5423    0.3384   -1.3915 H   0  0  0  0  0  0  0  0  0  0  0  0
   -1.6845   -1.0518   -0.3035 H   0  0  0  0  0  0  0  0  0  0  0  0
    0.3777   -2.4161   -6.8974 H   0  0  0  0  0  0  0  0  0  0  0  0
    1.6419   -2.7028   -5.6807 H   0  0  0  0  0  0  0  0  0  0  0  0
    1.6341    1.1544   -2.8529 H   0  0  0  0  0  0  0  0  0  0  0  0
    0.2514    2.8285   -4.1166 H   0  0  0  0  0  0  0  0  0  0  0  0
   -0.9161    2.1353   -6.2133 H   0  0  0  0  0  0  0  0  0  0  0  0
   -0.6981   -0.2057   -7.0342 H   0  0  0  0  0  0  0  0  0  0  0  0
   -3.8353   -4.1771   -6.0861 H   0  0  0  0  0  0  0  0  0  0  0  0
   -5.2848   -9.5804   -8.2665 H   0  0  0  0  0  0  0  0  0  0  0  0
   -3.5355  -10.7400   -6.9172 H   0  0  0  0  0  0  0  0  0  0  0  0
   -1.6624   -9.4557   -5.9140 H   0  0  0  0  0  0  0  0  0  0  0  0
   -1.5090   -6.9761   -6.2499 H   0  0  0  0  0  0  0  0  0  0  0  0
   -5.0173   -6.6924   -9.8433 H   0  0  0  0  0  0  0  0  0  0  0  0
   -6.3547   -6.9247   -8.6945 H   0  0  0  0  0  0  0  0  0  0  0  0
   -5.6642   -5.8423   -6.4038 H   0  0  0  0  0  0  0  0  0  0  0  0
   -4.2253   -2.8782   -3.6564 H   0  0  0  0  0  0  0  0  0  0  0  0
   -3.2046   -2.9711   -1.5743 H   0  0  0  0  0  0  0  0  0  0  0  0
    0.7705   -2.6387   -0.3776 H   0  0  0  0  0  0  0  0  0  0  0  0
    2.6389   -1.8054    4.1256 H   0  0  0  0  0  0  0  0  0  0  0  0
    4.7664   -2.9463    3.5002 H   0  0  0  0  0  0  0  0  0  0  0  0
    4.7915   -4.6823    1.7244 H   0  0  0  0  0  0  0  0  0  0  0  0
    2.6771   -5.3015    0.5419 H   0  0  0  0  0  0  0  0  0  0  0  0
   -0.2128   -2.2149    3.9175 H   0  0  0  0  0  0  0  0  0  0  0  0
   -0.0155   -1.3862    2.3630 H   0  0  0  0  0  0  0  0  0  0  0  0
   -2.4075   -3.4096    1.0431 H   0  0  0  0  0  0  0  0  0  0  0  0
  1  2  2  0
  1  6  1  0
  1  8  1  0
  2  3  1  0
  2 59  1  0
  3  4  2  0
  3 60  1  0
  4  5  1  0
  4 61  1  0
  5  6  2  0
  5 62  1  0
  6  7  1  0
  8  9  1  0
  8 63  1  0
  8 64  1  0
  9 10  1  0
 10 11  1  6
 10 12  1  0
 10 44  1  0
 12 13  1  6
 12 14  1  0
 12 43  1  0
 14 15  1  1
 14 16  1  0
 14 42  1  0
 16 17  1  6
 16 18  1  0
 16 27  1  0
 18 19  1  0
 19 20  1  0
 19 65  1  0
 19 66  1  0
 20 21  2  0
 20 25  1  0
 21 22  1  0
 21 26  1  0
 22 23  2  0
 22 67  1  0
 23 24  1  0
 23 68  1  0
 24 25  2  0
 24 69  1  0
 25 70  1  0
 27 28  2  0
 27 29  1  0
 29 30  1  0
 29 71  1  0
 30 31  1  6
 30 32  1  0
 30 39  1  0
 32 33  1  0
 32 37  2  0
 33 34  2  0
 33 38  1  0
 34 35  1  0
 34 72  1  0
 35 36  2  0
 35 73  1  0
 36 37  1  0
 36 74  1  0
 37 75  1  0
 38 39  1  0
 38 76  1  0
 38 77  1  0
 39 40  1  6
 39 41  1  0
 41 78  1  0
 42 79  1  0
 43 80  1  0
 44 45  2  0
 44 46  1  0
 46 47  1  0
 46 81  1  0
 47 48  1  6
 47 49  1  0
 47 56  1  0
 49 50  1  0
 49 54  2  0
 50 51  2  0
 50 55  1  0
 51 52  1  0
 51 82  1  0
 52 53  2  0
 52 83  1  0
 53 54  1  0
 53 84  1  0
 54 85  1  0
 55 56  1  0
 55 86  1  0
 55 87  1  0
 56 57  1  1
 56 58  1  0
 58 88  1  0
M  END

