rmsd101.gzmat
 OpenBabel08211713413D

 88 93  0  0  1  0  0  0  0  0999 V2000
    0.0000    0.0000    0.0000 C   0  0  0  0  0  0  0  0  0  0  0  0
    1.3955    0.0000    0.0000 C   0  0  0  0  0  0  0  0  0  0  0  0
    2.1001    0.0000    1.2015 C   0  0  0  0  0  0  0  0  0  0  0  0
    1.4211   -0.0082    2.4200 C   0  0  0  0  0  0  0  0  0  0  0  0
    0.0289   -0.0112    2.4491 C   0  0  0  0  0  0  0  0  0  0  0  0
   -0.6541    0.0006    1.2343 C   0  0  0  0  0  0  0  0  0  0  0  0
   -1.9773   -0.0006    1.2581 F   0  0  0  0  0  0  0  0  0  0  0  0
   -0.7564    0.0191   -1.2880 C   0  0  0  0  0  0  0  0  0  0  0  0
   -1.9051   -0.8188   -1.1231 O   0  0  0  0  0  0  0  0  0  0  0  0
   -2.0497   -1.8353   -2.0940 C   0  0  2  0  0  0  0  0  0  0  0  0
   -1.5355   -1.5827   -3.0532 H   0  0  0  0  0  0  0  0  0  0  0  0
   -3.5806   -2.0151   -2.3114 C   0  0  1  0  0  0  0  0  0  0  0  0
   -4.0693   -2.3434   -1.3641 H   0  0  0  0  0  0  0  0  0  0  0  0
   -4.2957   -0.7562   -2.8556 C   0  0  2  0  0  0  0  0  0  0  0  0
   -5.3947   -0.9496   -2.9565 H   0  0  0  0  0  0  0  0  0  0  0  0
   -3.7320   -0.3116   -4.2271 C   0  0  1  0  0  0  0  0  0  0  0  0
   -3.2251   -1.1598   -4.7468 H   0  0  0  0  0  0  0  0  0  0  0  0
   -4.8645    0.1356   -4.9483 O   0  0  0  0  0  0  0  0  0  0  0  0
   -4.8206   -0.1028   -6.3486 C   0  0  0  0  0  0  0  0  0  0  0  0
   -3.8978    0.8720   -7.0083 C   0  0  0  0  0  0  0  0  0  0  0  0
   -2.6027    0.5364   -7.4060 C   0  0  0  0  0  0  0  0  0  0  0  0
   -1.7075    1.4641   -7.9365 C   0  0  0  0  0  0  0  0  0  0  0  0
   -2.1350    2.7815   -8.0766 C   0  0  0  0  0  0  0  0  0  0  0  0
   -3.4336    3.1438   -7.7143 C   0  0  0  0  0  0  0  0  0  0  0  0
   -4.3060    2.1969   -7.1852 C   0  0  0  0  0  0  0  0  0  0  0  0
   -2.1926   -0.7160   -7.2740 F   0  0  0  0  0  0  0  0  0  0  0  0
   -2.7527    0.8500   -4.0270 C   0  0  0  0  0  0  0  0  0  0  0  0
   -1.5690    0.6167   -3.8012 O   0  0  0  0  0  0  0  0  0  0  0  0
   -3.2715    2.1100   -4.0949 N   0  0  0  0  0  0  0  0  0  0  0  0
   -2.5741    3.3289   -3.7021 C   0  0  1  0  0  0  0  0  0  0  0  0
   -3.2922    4.1814   -3.8550 H   0  0  0  0  0  0  0  0  0  0  0  0
   -2.1382    3.3038   -2.2569 C   0  0  0  0  0  0  0  0  0  0  0  0
   -0.7969    3.6915   -2.1175 C   0  0  0  0  0  0  0  0  0  0  0  0
   -0.2060    3.7393   -0.8653 C   0  0  0  0  0  0  0  0  0  0  0  0
   -0.9781    3.4053    0.2525 C   0  0  0  0  0  0  0  0  0  0  0  0
   -2.3123    3.0312    0.1123 C   0  0  0  0  0  0  0  0  0  0  0  0
   -2.9047    2.9713   -1.1537 C   0  0  0  0  0  0  0  0  0  0  0  0
   -0.1730    4.0090   -3.4340 C   0  0  0  0  0  0  0  0  0  0  0  0
   -1.2524    3.6806   -4.5057 C   0  0  1  0  0  0  0  0  0  0  0  0
   -1.4306    4.5241   -5.2019 H   0  0  0  0  0  0  0  0  0  0  0  0
   -0.8019    2.6683   -5.3404 O   0  0  0  0  0  0  0  0  0  0  0  0
   -4.2202    0.2928   -1.9311 O   0  0  0  0  0  0  0  0  0  0  0  0
   -3.7918   -2.9897   -3.3024 O   0  0  0  0  0  0  0  0  0  0  0  0
   -1.5139   -3.1632   -1.5401 C   0  0  0  0  0  0  0  0  0  0  0  0
   -1.7100   -4.2149   -2.1289 O   0  0  0  0  0  0  0  0  0  0  0  0
   -0.8466   -3.1145   -0.3469 N   0  0  0  0  0  0  0  0  0  0  0  0
   -0.4942   -4.3293    0.3793 C   0  0  1  0  0  0  0  0  0  0  0  0
   -0.3609   -5.1790   -0.3384 H   0  0  0  0  0  0  0  0  0  0  0  0
    0.7373   -4.0680    1.2075 C   0  0  0  0  0  0  0  0  0  0  0  0
    0.4449   -4.0731    2.5812 C   0  0  0  0  0  0  0  0  0  0  0  0
    1.4402   -3.8295    3.5128 C   0  0  0  0  0  0  0  0  0  0  0  0
    2.7361   -3.5693    3.0545 C   0  0  0  0  0  0  0  0  0  0  0  0
    3.0221   -3.5566    1.6914 C   0  0  0  0  0  0  0  0  0  0  0  0
    2.0170   -3.8096    0.7514 C   0  0  0  0  0  0  0  0  0  0  0  0
   -0.9971   -4.3526    2.8406 C   0  0  0  0  0  0  0  0  0  0  0  0
   -1.6027   -4.6940    1.4531 C   0  0  1  0  0  0  0  0  0  0  0  0
   -1.8956   -5.7609    1.3694 H   0  0  0  0  0  0  0  0  0  0  0  0
   -2.8134   -4.0278    1.2687 O   0  0  0  0  0  0  0  0  0  0  0  0
    1.9366    0.0026   -0.9470 H   0  0  0  0  0  0  0  0  0  0  0  0
    3.1884   -0.0016    1.1901 H   0  0  0  0  0  0  0  0  0  0  0  0
    1.9821   -0.0165    3.3539 H   0  0  0  0  0  0  0  0  0  0  0  0
   -0.5068   -0.0186    3.3959 H   0  0  0  0  0  0  0  0  0  0  0  0
   -0.1399   -0.2779   -2.1578 H   0  0  0  0  0  0  0  0  0  0  0  0
   -1.1700    1.0332   -1.5037 H   0  0  0  0  0  0  0  0  0  0  0  0
   -5.8817    0.0674   -6.6308 H   0  0  0  0  0  0  0  0  0  0  0  0
   -4.5822   -1.1638   -6.5502 H   0  0  0  0  0  0  0  0  0  0  0  0
   -0.6945    1.1761   -8.2116 H   0  0  0  0  0  0  0  0  0  0  0  0
   -1.4468    3.5332   -8.4622 H   0  0  0  0  0  0  0  0  0  0  0  0
   -3.7607    4.1735   -7.8373 H   0  0  0  0  0  0  0  0  0  0  0  0
   -5.3141    2.4911   -6.8947 H   0  0  0  0  0  0  0  0  0  0  0  0
   -4.2636    2.2078   -4.2990 H   0  0  0  0  0  0  0  0  0  0  0  0
    0.8338    4.0297   -0.7485 H   0  0  0  0  0  0  0  0  0  0  0  0
   -0.5271    3.4371    1.2431 H   0  0  0  0  0  0  0  0  0  0  0  0
   -2.9030    2.7801    0.9921 H   0  0  0  0  0  0  0  0  0  0  0  0
   -3.9442    2.6597   -1.2652 H   0  0  0  0  0  0  0  0  0  0  0  0
    0.1456    5.0630   -3.4974 H   0  0  0  0  0  0  0  0  0  0  0  0
    0.7371    3.4048   -3.6187 H   0  0  0  0  0  0  0  0  0  0  0  0
   -0.7840    1.8025   -4.8538 H   0  0  0  0  0  0  0  0  0  0  0  0
   -3.3550    0.2689   -1.4529 H   0  0  0  0  0  0  0  0  0  0  0  0
   -3.2266   -3.7886   -3.1151 H   0  0  0  0  0  0  0  0  0  0  0  0
   -0.6687   -2.2352    0.1223 H   0  0  0  0  0  0  0  0  0  0  0  0
    1.2237   -3.8409    4.5771 H   0  0  0  0  0  0  0  0  0  0  0  0
    3.5289   -3.3761    3.7750 H   0  0  0  0  0  0  0  0  0  0  0  0
    4.0340   -3.3500    1.3514 H   0  0  0  0  0  0  0  0  0  0  0  0
    2.2384   -3.7978   -0.3141 H   0  0  0  0  0  0  0  0  0  0  0  0
   -1.1473   -5.1771    3.5582 H   0  0  0  0  0  0  0  0  0  0  0  0
   -1.5139   -3.4782    3.2824 H   0  0  0  0  0  0  0  0  0  0  0  0
   -2.6883   -3.0864    1.0289 H   0  0  0  0  0  0  0  0  0  0  0  0
  1  2  2  0  0  0  0
  1  6  1  0  0  0  0
  2  3  1  0  0  0  0
  3  4  2  0  0  0  0
  4  5  1  0  0  0  0
  4 61  1  0  0  0  0
  5 62  1  0  0  0  0
  6  7  1  0  0  0  0
  6  5  2  0  0  0  0
  8  9  1  0  0  0  0
  8  1  1  0  0  0  0
 10 11  1  6  0  0  0
 10 44  1  0  0  0  0
 10  9  1  0  0  0  0
 12 10  1  0  0  0  0
 12 13  1  1  0  0  0
 14 15  1  6  0  0  0
 14 12  1  0  0  0  0
 14 42  1  0  0  0  0
 16 17  1  6  0  0  0
 16 27  1  0  0  0  0
 16 14  1  0  0  0  0
 18 16  1  0  0  0  0
 19 18  1  0  0  0  0
 20 19  1  0  0  0  0
 21 26  1  0  0  0  0
 21 20  2  0  0  0  0
 22 21  1  0  0  0  0
 23 22  2  0  0  0  0
 23 24  1  0  0  0  0
 24 25  2  0  0  0  0
 25 20  1  0  0  0  0
 25 70  1  0  0  0  0
 27 28  2  0  0  0  0
 29 27  1  0  0  0  0
 29 30  1  0  0  0  0
 30 39  1  0  0  0  0
 30 32  1  0  0  0  0
 30 31  1  6  0  0  0
 32 33  2  0  0  0  0
 32 37  1  0  0  0  0
 33 34  1  0  0  0  0
 34 72  1  0  0  0  0
 34 35  2  0  0  0  0
 35 73  1  0  0  0  0
 36 35  1  0  0  0  0
 36 74  1  0  0  0  0
 37 36  2  0  0  0  0
 38 33  1  0  0  0  0
 39 40  1  6  0  0  0
 39 38  1  0  0  0  0
 41 78  1  0  0  0  0
 41 39  1  0  0  0  0
 42 79  1  0  0  0  0
 43 80  1  0  0  0  0
 43 12  1  0  0  0  0
 44 46  1  0  0  0  0
 45 44  2  0  0  0  0
 46 81  1  0  0  0  0
 46 47  1  0  0  0  0
 47 49  1  0  0  0  0
 47 56  1  0  0  0  0
 47 48  1  6  0  0  0
 49 50  1  0  0  0  0
 50 55  1  0  0  0  0
 50 51  2  0  0  0  0
 51 82  1  0  0  0  0
 52 51  1  0  0  0  0
 52 83  1  0  0  0  0
 53 52  2  0  0  0  0
 54 49  2  0  0  0  0
 54 53  1  0  0  0  0
 55 87  1  0  0  0  0
 55 86  1  0  0  0  0
 56 57  1  6  0  0  0
 56 55  1  0  0  0  0
 58 56  1  0  0  0  0
 59  2  1  0  0  0  0
 60  3  1  0  0  0  0
 63  8  1  0  0  0  0
 64  8  1  0  0  0  0
 65 19  1  0  0  0  0
 66 19  1  0  0  0  0
 67 22  1  0  0  0  0
 68 23  1  0  0  0  0
 69 24  1  0  0  0  0
 71 29  1  0  0  0  0
 75 37  1  0  0  0  0
 76 38  1  0  0  0  0
 77 38  1  0  0  0  0
 84 53  1  0  0  0  0
 85 54  1  0  0  0  0
 88 58  1  0  0  0  0
M  END
$$$$
