
     RDKit          3D

 88 93  0  0  0  0  0  0  0  0999 V2000
   -0.1719   -0.1812    0.5099 C   0  0  0  0  0  0  0  0  0  0  0  0
    1.1484   -0.5853    0.7533 C   0  0  0  0  0  0  0  0  0  0  0  0
    1.6547   -0.6723    2.0507 C   0  0  0  0  0  0  0  0  0  0  0  0
    0.8332   -0.3675    3.1381 C   0  0  0  0  0  0  0  0  0  0  0  0
   -0.4887    0.0338    2.9278 C   0  0  0  0  0  0  0  0  0  0  0  0
   -0.9646    0.1258    1.6235 C   0  0  0  0  0  0  0  0  0  0  0  0
   -2.2362    0.5179    1.4313 F   0  0  0  0  0  0  0  0  0  0  0  0
   -0.7358   -0.0953   -0.8840 C   0  0  0  0  0  0  0  0  0  0  0  0
   -1.9409   -0.8735   -0.9743 O   0  0  0  0  0  0  0  0  0  0  0  0
   -2.0135   -1.8812   -1.9677 C   0  0  2  0  0  0  0  0  0  0  0  0
   -1.4442   -1.5831   -2.8620 H   0  0  0  0  0  0  0  0  0  0  0  0
   -3.4972   -2.0746   -2.3795 C   0  0  1  0  0  0  0  0  0  0  0  0
   -4.0372   -2.4198   -1.4716 H   0  0  0  0  0  0  0  0  0  0  0  0
   -4.2261   -0.7922   -2.8283 C   0  0  2  0  0  0  0  0  0  0  0  0
   -5.2561   -1.1110   -3.0542 H   0  0  0  0  0  0  0  0  0  0  0  0
   -3.7152   -0.2453   -4.1884 C   0  0  1  0  0  0  0  0  0  0  0  0
   -3.2090   -1.0658   -4.7183 H   0  0  0  0  0  0  0  0  0  0  0  0
   -4.8372    0.2004   -4.9374 O   0  0  0  0  0  0  0  0  0  0  0  0
   -4.7914   -0.0258   -6.3447 C   0  0  0  0  0  0  0  0  0  0  0  0
   -4.0496    1.0544   -7.0972 C   0  0  0  0  0  0  0  0  0  0  0  0
   -2.6639    1.0008   -7.2696 C   0  0  0  0  0  0  0  0  0  0  0  0
   -1.9385    2.0192   -7.8762 C   0  0  0  0  0  0  0  0  0  0  0  0
   -2.6226    3.1459   -8.3348 C   0  0  0  0  0  0  0  0  0  0  0  0
   -4.0110    3.2377   -8.1841 C   0  0  0  0  0  0  0  0  0  0  0  0
   -4.7110    2.1979   -7.5692 C   0  0  0  0  0  0  0  0  0  0  0  0
   -1.9995   -0.0709   -6.7994 F   0  0  0  0  0  0  0  0  0  0  0  0
   -2.6946    0.8671   -3.9789 C   0  0  0  0  0  0  0  0  0  0  0  0
   -1.5621    0.6085   -3.5571 O   0  0  0  0  0  0  0  0  0  0  0  0
   -3.1283    2.1066   -4.2568 N   0  0  0  0  0  0  0  0  0  0  0  0
   -2.4010    3.3276   -3.9592 C   0  0  1  0  0  0  0  0  0  0  0  0
   -3.1024    4.1508   -4.1746 H   0  0  0  0  0  0  0  0  0  0  0  0
   -1.9333    3.4412   -2.5209 C   0  0  0  0  0  0  0  0  0  0  0  0
   -0.6777    4.0566   -2.4638 C   0  0  0  0  0  0  0  0  0  0  0  0
   -0.0554    4.2536   -1.2297 C   0  0  0  0  0  0  0  0  0  0  0  0
   -0.7109    3.8421   -0.0627 C   0  0  0  0  0  0  0  0  0  0  0  0
   -1.9766    3.2450   -0.1281 C   0  0  0  0  0  0  0  0  0  0  0  0
   -2.5983    3.0372   -1.3648 C   0  0  0  0  0  0  0  0  0  0  0  0
   -0.2159    4.4350   -3.8504 C   0  0  0  0  0  0  0  0  0  0  0  0
   -1.0986    3.5821   -4.8008 C   0  0  1  0  0  0  0  0  0  0  0  0
   -1.3460    4.1358   -5.7201 H   0  0  0  0  0  0  0  0  0  0  0  0
   -0.4588    2.4067   -5.2127 O   0  0  0  0  0  0  0  0  0  0  0  0
   -4.2863    0.1770   -1.8105 O   0  0  0  0  0  0  0  0  0  0  0  0
   -3.5952   -2.9991   -3.4263 O   0  0  0  0  0  0  0  0  0  0  0  0
   -1.4804   -3.2271   -1.4669 C   0  0  0  0  0  0  0  0  0  0  0  0
   -1.5583   -4.2274   -2.1784 O   0  0  0  0  0  0  0  0  0  0  0  0
   -0.9798   -3.2365   -0.2103 N   0  0  0  0  0  0  0  0  0  0  0  0
   -0.5017   -4.4423    0.4503 C   0  0  1  0  0  0  0  0  0  0  0  0
   -0.5048   -5.2266   -0.3176 H   0  0  0  0  0  0  0  0  0  0  0  0
    0.8399   -4.2354    1.1162 C   0  0  0  0  0  0  0  0  0  0  0  0
    0.6770   -4.0418    2.4976 C   0  0  0  0  0  0  0  0  0  0  0  0
    1.7933   -3.8498    3.3123 C   0  0  0  0  0  0  0  0  0  0  0  0
    3.0665   -3.8354    2.7317 C   0  0  0  0  0  0  0  0  0  0  0  0
    3.2230   -4.0030    1.3497 C   0  0  0  0  0  0  0  0  0  0  0  0
    2.1054   -4.2045    0.5317 C   0  0  0  0  0  0  0  0  0  0  0  0
   -0.7857   -4.0700    2.8632 C   0  0  0  0  0  0  0  0  0  0  0  0
   -1.4233   -4.8097    1.6599 C   0  0  1  0  0  0  0  0  0  0  0  0
   -1.3187   -5.8934    1.8298 H   0  0  0  0  0  0  0  0  0  0  0  0
   -2.7826   -4.5707    1.4462 O   0  0  0  0  0  0  0  0  0  0  0  0
    1.7823   -0.8507   -0.0959 H   0  0  0  0  0  0  0  0  0  0  0  0
    2.6793   -1.0072    2.2116 H   0  0  0  0  0  0  0  0  0  0  0  0
    1.2169   -0.4506    4.1571 H   0  0  0  0  0  0  0  0  0  0  0  0
   -1.1572    0.2807    3.7544 H   0  0  0  0  0  0  0  0  0  0  0  0
    0.0027   -0.4512   -1.6155 H   0  0  0  0  0  0  0  0  0  0  0  0
   -0.9829    0.9411   -1.1489 H   0  0  0  0  0  0  0  0  0  0  0  0
   -5.8402   -0.0422   -6.6747 H   0  0  0  0  0  0  0  0  0  0  0  0
   -4.3495   -1.0151   -6.5472 H   0  0  0  0  0  0  0  0  0  0  0  0
   -0.8545    1.9307   -7.9367 H   0  0  0  0  0  0  0  0  0  0  0  0
   -2.0663    3.9577   -8.8089 H   0  0  0  0  0  0  0  0  0  0  0  0
   -4.5459    4.1182   -8.5464 H   0  0  0  0  0  0  0  0  0  0  0  0
   -5.7956    2.2651   -7.4464 H   0  0  0  0  0  0  0  0  0  0  0  0
   -4.0808    2.1580   -4.6018 H   0  0  0  0  0  0  0  0  0  0  0  0
    0.9321    4.7192   -1.1732 H   0  0  0  0  0  0  0  0  0  0  0  0
   -0.2295    3.9835    0.9081 H   0  0  0  0  0  0  0  0  0  0  0  0
   -2.4699    2.9150    0.7872 H   0  0  0  0  0  0  0  0  0  0  0  0
   -3.5647    2.5328   -1.4311 H   0  0  0  0  0  0  0  0  0  0  0  0
   -0.3831    5.5135   -4.0254 H   0  0  0  0  0  0  0  0  0  0  0  0
    0.8484    4.2319   -4.0415 H   0  0  0  0  0  0  0  0  0  0  0  0
   -0.5606    1.7285   -4.5141 H   0  0  0  0  0  0  0  0  0  0  0  0
   -3.4712    0.0849   -1.2844 H   0  0  0  0  0  0  0  0  0  0  0  0
   -2.9618   -3.7205   -3.2317 H   0  0  0  0  0  0  0  0  0  0  0  0
   -0.9262   -2.3505    0.2818 H   0  0  0  0  0  0  0  0  0  0  0  0
    1.6764   -3.7096    4.3899 H   0  0  0  0  0  0  0  0  0  0  0  0
    3.9479   -3.6908    3.3615 H   0  0  0  0  0  0  0  0  0  0  0  0
    4.2236   -3.9889    0.9111 H   0  0  0  0  0  0  0  0  0  0  0  0
    2.2224   -4.3479   -0.5455 H   0  0  0  0  0  0  0  0  0  0  0  0
   -1.0011   -4.5595    3.8245 H   0  0  0  0  0  0  0  0  0  0  0  0
   -1.1866   -3.0410    2.9278 H   0  0  0  0  0  0  0  0  0  0  0  0
   -2.8697   -3.6914    1.0499 H   0  0  0  0  0  0  0  0  0  0  0  0
  1  2  2  0
  1  6  1  0
  1  8  1  0
  2  3  1  0
  2 59  1  0
  3  4  2  0
  3 60  1  0
  4  5  1  0
  4 61  1  0
  5  6  2  0
  5 62  1  0
  6  7  1  0
  8  9  1  0
  8 63  1  0
  8 64  1  0
  9 10  1  0
 10 11  1  6
 10 12  1  0
 10 44  1  0
 12 13  1  1
 12 14  1  0
 12 43  1  0
 14 15  1  6
 14 16  1  0
 14 42  1  0
 16 17  1  6
 16 18  1  0
 16 27  1  0
 18 19  1  0
 19 20  1  0
 19 65  1  0
 19 66  1  0
 20 21  2  0
 20 25  1  0
 21 22  1  0
 21 26  1  0
 22 23  2  0
 22 67  1  0
 23 24  1  0
 23 68  1  0
 24 25  2  0
 24 69  1  0
 25 70  1  0
 27 28  2  0
 27 29  1  0
 29 30  1  0
 29 71  1  0
 30 31  1  6
 30 32  1  0
 30 39  1  0
 32 33  1  0
 32 37  2  0
 33 34  2  0
 33 38  1  0
 34 35  1  0
 34 72  1  0
 35 36  2  0
 35 73  1  0
 36 37  1  0
 36 74  1  0
 37 75  1  0
 38 39  1  0
 38 76  1  0
 38 77  1  0
 39 40  1  6
 39 41  1  0
 41 78  1  0
 42 79  1  0
 43 80  1  0
 44 45  2  0
 44 46  1  0
 46 47  1  0
 46 81  1  0
 47 48  1  6
 47 49  1  0
 47 56  1  0
 49 50  1  0
 49 54  2  0
 50 51  2  0
 50 55  1  0
 51 52  1  0
 51 82  1  0
 52 53  2  0
 52 83  1  0
 53 54  1  0
 53 84  1  0
 54 85  1  0
 55 56  1  0
 55 86  1  0
 55 87  1  0
 56 57  1  1
 56 58  1  0
 58 88  1  0
M  END

