88

C          0.17560        0.09650       -0.24300
C          1.52230       -0.15760        0.05240
C          2.02620        0.01440        1.34210
C          1.17640        0.43850        2.36980
C         -0.16910        0.69400        2.10260
C         -0.64410        0.52220        0.80460
F         -1.94080        0.76720        0.55980
C         -0.37130       -0.13090       -1.63460
O         -0.01730       -1.41440       -2.15020
C         -0.82570       -2.52620       -1.80420
H         -0.31530       -3.38210       -2.25760
C         -2.24440       -2.50310       -2.40810
H         -2.13890       -2.18780       -3.45770
C         -2.83240       -3.92460       -2.42670
H         -2.19160       -4.58350       -3.02930
C         -4.24690       -3.94000       -3.00960
H         -4.87490       -3.29450       -2.37680
O         -4.29710       -3.34640       -4.29570
C         -3.98440       -4.14570       -5.43070
C         -5.18360       -4.89740       -5.96640
C         -6.33240       -4.20000       -6.36100
C         -7.47320       -4.84370       -6.83080
C         -7.47260       -6.23840       -6.92650
C         -6.33780       -6.96390       -6.55390
C         -5.20870       -6.29330       -6.07480
F         -6.33180       -2.86120       -6.29730
C         -4.78730       -5.37760       -2.99880
O         -4.06960       -6.34430       -3.21880
N         -6.11750       -5.47610       -2.77720
C         -6.82050       -6.73230       -2.84280
H         -6.32600       -7.35320       -3.60840
C         -6.90040       -7.51420       -1.54470
C         -8.15250       -8.13940       -1.44430
C         -8.45460       -8.92760       -0.33350
C         -7.48920       -9.07960        0.67010
C         -6.24110       -8.45250        0.56270
C         -5.93440       -7.66180       -0.55160
C         -8.98990       -7.80810       -2.66370
C         -8.31570       -6.53020       -3.20160
H         -8.45690       -6.37480       -4.27910
O         -8.82060       -5.36260       -2.57010
O         -2.85570       -4.52080       -1.12410
O         -3.11910       -1.58620       -1.77910
C         -0.87990       -2.73790       -0.27830
O         -1.81180       -2.28660        0.40320
N          0.12650       -3.41310        0.30500
C          1.25800       -4.08750       -0.33230
H          1.64750       -3.44130       -1.13060
C          2.28600       -4.42360        0.72330
C          2.11240       -5.74870        1.16040
C          2.93370       -6.26270        2.16470
C          3.91700       -5.44040        2.72770
C          4.08090       -4.11930        2.29280
C          3.26030       -3.60050        1.28510
C          0.99340       -6.41190        0.39540
C          0.87610       -5.51410       -0.85760
H          1.68540       -5.80140       -1.54990
O         -0.30570       -5.61280       -1.58520
H          2.17220       -0.50710       -0.75360
H          3.08100       -0.17790        1.55010
H          1.56130        0.57240        3.38330
H         -0.86210        1.01860        2.88060
H          0.08790        0.58640       -2.33300
H         -1.45790        0.01840       -1.65730
H         -3.17230       -4.85940       -5.22010
H         -3.62750       -3.43030       -6.18820
H         -8.33820       -4.24430       -7.11950
H         -8.36150       -6.75450       -7.29680
H         -6.33290       -8.05360       -6.62690
H         -4.33560       -6.85690       -5.74250
H         -6.68710       -4.64770       -2.63450
H         -9.42930       -9.41420       -0.24120
H         -7.71400       -9.68940        1.54870
H         -5.50180       -8.58100        1.35700
H         -4.96440       -7.16880       -0.64780
H         -8.92210       -8.61690       -3.41320
H        -10.05800       -7.64350       -2.45340
H         -8.84330       -5.53170       -1.61580
H         -3.12380       -3.84520       -0.48040
H         -2.89650       -1.60420       -0.82530
H          0.05510       -3.47030        1.31800
H          2.81490       -7.29380        2.50680
H          4.56660       -5.83450        3.51310
H          4.85550       -3.49260        2.74100
H          3.37670       -2.57020        0.94430
H          1.18380       -7.46560        0.14400
H          0.04820       -6.37980        0.96840
H         -1.09670       -5.38630       -1.05820
