rmsd114.gzmat
 OpenBabel08211713413D

 88 93  0  0  1  0  0  0  0  0999 V2000
    0.0000    0.0000    0.0000 C   0  0  0  0  0  0  0  0  0  0  0  0
    1.3965    0.0000    0.0000 C   0  0  0  0  0  0  0  0  0  0  0  0
    2.1054    0.0000    1.1988 C   0  0  0  0  0  0  0  0  0  0  0  0
    1.4295    0.0151    2.4188 C   0  0  0  0  0  0  0  0  0  0  0  0
    0.0373    0.0247    2.4499 C   0  0  0  0  0  0  0  0  0  0  0  0
   -0.6482    0.0153    1.2366 C   0  0  0  0  0  0  0  0  0  0  0  0
   -1.9723    0.0296    1.2671 F   0  0  0  0  0  0  0  0  0  0  0  0
   -0.7489    0.0027   -1.2950 C   0  0  0  0  0  0  0  0  0  0  0  0
    0.0050   -0.6241   -2.3223 O   0  0  0  0  0  0  0  0  0  0  0  0
    0.0992   -2.0304   -2.2078 C   0  0  2  0  0  0  0  0  0  0  0  0
    0.0741   -2.3613   -1.1417 H   0  0  0  0  0  0  0  0  0  0  0  0
    1.4401   -2.3931   -2.8878 C   0  0  1  0  0  0  0  0  0  0  0  0
    2.1627   -1.5449   -2.8157 H   0  0  0  0  0  0  0  0  0  0  0  0
    2.0517   -3.6805   -2.2836 C   0  0  2  0  0  0  0  0  0  0  0  0
    2.6788   -3.4356   -1.3925 H   0  0  0  0  0  0  0  0  0  0  0  0
    2.8849   -4.4279   -3.3548 C   0  0  1  0  0  0  0  0  0  0  0  0
    2.2428   -4.7078   -4.2255 H   0  0  0  0  0  0  0  0  0  0  0  0
    3.8756   -3.4862   -3.7147 O   0  0  0  0  0  0  0  0  0  0  0  0
    4.4747   -3.7393   -4.9782 C   0  0  0  0  0  0  0  0  0  0  0  0
    3.4716   -3.5314   -6.0691 C   0  0  0  0  0  0  0  0  0  0  0  0
    2.8222   -2.3006   -6.2085 C   0  0  0  0  0  0  0  0  0  0  0  0
    1.8121   -2.0778   -7.1434 C   0  0  0  0  0  0  0  0  0  0  0  0
    1.4481   -3.1349   -7.9756 C   0  0  0  0  0  0  0  0  0  0  0  0
    2.0903   -4.3681   -7.8719 C   0  0  0  0  0  0  0  0  0  0  0  0
    3.0938   -4.5655   -6.9236 C   0  0  0  0  0  0  0  0  0  0  0  0
    3.1866   -1.2982   -5.4255 F   0  0  0  0  0  0  0  0  0  0  0  0
    3.5759   -5.6847   -2.8102 C   0  0  0  0  0  0  0  0  0  0  0  0
    4.7611   -5.9073   -2.9582 O   0  0  0  0  0  0  0  0  0  0  0  0
    2.7383   -6.6039   -2.2202 N   0  0  0  0  0  0  0  0  0  0  0  0
    3.2826   -7.7912   -1.5855 C   0  0  1  0  0  0  0  0  0  0  0  0
    4.1222   -8.1942   -2.2182 H   0  0  0  0  0  0  0  0  0  0  0  0
    3.7878   -7.5642   -0.1790 C   0  0  0  0  0  0  0  0  0  0  0  0
    3.3397   -8.5783    0.6844 C   0  0  0  0  0  0  0  0  0  0  0  0
    3.6952   -8.5727    2.0213 C   0  0  0  0  0  0  0  0  0  0  0  0
    4.5111   -7.5362    2.4909 C   0  0  0  0  0  0  0  0  0  0  0  0
    4.9582   -6.5355    1.6326 C   0  0  0  0  0  0  0  0  0  0  0  0
    4.5996   -6.5443    0.2796 C   0  0  0  0  0  0  0  0  0  0  0  0
    2.4816   -9.5674   -0.0372 C   0  0  0  0  0  0  0  0  0  0  0  0
    2.1731   -8.8967   -1.4013 C   0  0  1  0  0  0  0  0  0  0  0  0
    2.1292   -9.5989   -2.2541 H   0  0  0  0  0  0  0  0  0  0  0  0
    0.8865   -8.3434   -1.3832 O   0  0  0  0  0  0  0  0  0  0  0  0
    1.0801   -4.5438   -1.7663 O   0  0  0  0  0  0  0  0  0  0  0  0
    1.2242   -2.6624   -4.2564 O   0  0  0  0  0  0  0  0  0  0  0  0
   -1.0393   -2.6947   -2.9943 C   0  0  0  0  0  0  0  0  0  0  0  0
   -1.2785   -3.8876   -2.8718 O   0  0  0  0  0  0  0  0  0  0  0  0
   -1.7318   -1.9025   -3.8648 N   0  0  0  0  0  0  0  0  0  0  0  0
   -2.7561   -2.4718   -4.7290 C   0  0  1  0  0  0  0  0  0  0  0  0
   -2.4940   -3.5421   -4.9685 H   0  0  0  0  0  0  0  0  0  0  0  0
   -4.1455   -2.4169   -4.1450 C   0  0  0  0  0  0  0  0  0  0  0  0
   -5.0666   -1.9447   -5.0963 C   0  0  0  0  0  0  0  0  0  0  0  0
   -6.4081   -1.8307   -4.7793 C   0  0  0  0  0  0  0  0  0  0  0  0
   -6.8227   -2.1945   -3.4923 C   0  0  0  0  0  0  0  0  0  0  0  0
   -5.9094   -2.6692   -2.5548 C   0  0  0  0  0  0  0  0  0  0  0  0
   -4.5530   -2.7906   -2.8786 C   0  0  0  0  0  0  0  0  0  0  0  0
   -4.3936   -1.6208   -6.3935 C   0  0  0  0  0  0  0  0  0  0  0  0
   -2.8827   -1.6363   -6.0620 C   0  0  1  0  0  0  0  0  0  0  0  0
   -2.2344   -2.0214   -6.8705 H   0  0  0  0  0  0  0  0  0  0  0  0
   -2.4024   -0.3313   -5.8594 O   0  0  0  0  0  0  0  0  0  0  0  0
    1.9322    0.0005   -0.9531 H   0  0  0  0  0  0  0  0  0  0  0  0
    3.1944   -0.0079    1.1838 H   0  0  0  0  0  0  0  0  0  0  0  0
    1.9906    0.0203    3.3529 H   0  0  0  0  0  0  0  0  0  0  0  0
   -0.4980    0.0373    3.3976 H   0  0  0  0  0  0  0  0  0  0  0  0
   -0.8562    1.0353   -1.6958 H   0  0  0  0  0  0  0  0  0  0  0  0
   -1.7504   -0.4621   -1.2311 H   0  0  0  0  0  0  0  0  0  0  0  0
    4.9316   -4.7490   -4.9869 H   0  0  0  0  0  0  0  0  0  0  0  0
    5.2931   -2.9904   -4.9919 H   0  0  0  0  0  0  0  0  0  0  0  0
    1.3224   -1.1110   -7.2261 H   0  0  0  0  0  0  0  0  0  0  0  0
    0.6568   -2.9941   -8.7102 H   0  0  0  0  0  0  0  0  0  0  0  0
    1.8019   -5.1854   -8.5291 H   0  0  0  0  0  0  0  0  0  0  0  0
    3.5792   -5.5389   -6.8439 H   0  0  0  0  0  0  0  0  0  0  0  0
    1.7773   -6.3470   -2.0019 H   0  0  0  0  0  0  0  0  0  0  0  0
    3.3521   -9.3511    2.6955 H   0  0  0  0  0  0  0  0  0  0  0  0
    4.7980   -7.5166    3.5403 H   0  0  0  0  0  0  0  0  0  0  0  0
    5.5944   -5.7389    2.0121 H   0  0  0  0  0  0  0  0  0  0  0  0
    4.9578   -5.7701   -0.4007 H   0  0  0  0  0  0  0  0  0  0  0  0
    3.0035  -10.5317   -0.1719 H   0  0  0  0  0  0  0  0  0  0  0  0
    1.5474   -9.8020    0.5048 H   0  0  0  0  0  0  0  0  0  0  0  0
    0.7731   -7.7144   -0.6381 H   0  0  0  0  0  0  0  0  0  0  0  0
    0.2247   -4.5311   -2.2764 H   0  0  0  0  0  0  0  0  0  0  0  0
    0.6675   -1.9680   -4.6701 H   0  0  0  0  0  0  0  0  0  0  0  0
   -1.5224   -0.9162   -3.9786 H   0  0  0  0  0  0  0  0  0  0  0  0
   -7.1277   -1.4696   -5.5081 H   0  0  0  0  0  0  0  0  0  0  0  0
   -7.8748   -2.1066   -3.2257 H   0  0  0  0  0  0  0  0  0  0  0  0
   -6.2499   -2.9529   -1.5602 H   0  0  0  0  0  0  0  0  0  0  0  0
   -3.8367   -3.1800   -2.1542 H   0  0  0  0  0  0  0  0  0  0  0  0
   -4.6433   -2.3678   -7.1707 H   0  0  0  0  0  0  0  0  0  0  0  0
   -4.7037   -0.6448   -6.8083 H   0  0  0  0  0  0  0  0  0  0  0  0
   -3.0442    0.2122   -5.3545 H   0  0  0  0  0  0  0  0  0  0  0  0
  1  6  1  0  0  0  0
  2  1  2  0  0  0  0
  2  3  1  0  0  0  0
  3  4  2  0  0  0  0
  4  5  1  0  0  0  0
  4 61  1  0  0  0  0
  5 62  1  0  0  0  0
  6  7  1  0  0  0  0
  6  5  2  0  0  0  0
  8 64  1  0  0  0  0
  8  1  1  0  0  0  0
  9 10  1  0  0  0  0
  9  8  1  0  0  0  0
 10 11  1  1  0  0  0
 12 13  1  1  0  0  0
 12 14  1  0  0  0  0
 12 10  1  0  0  0  0
 14 42  1  0  0  0  0
 14 15  1  1  0  0  0
 16 17  1  6  0  0  0
 16 27  1  0  0  0  0
 16 14  1  0  0  0  0
 18 16  1  0  0  0  0
 19 18  1  0  0  0  0
 20 19  1  0  0  0  0
 21 20  1  0  0  0  0
 21 26  1  0  0  0  0
 22 21  2  0  0  0  0
 23 24  2  0  0  0  0
 23 22  1  0  0  0  0
 24 25  1  0  0  0  0
 25 70  1  0  0  0  0
 25 20  2  0  0  0  0
 27 29  1  0  0  0  0
 28 27  2  0  0  0  0
 29 71  1  0  0  0  0
 29 30  1  0  0  0  0
 30 39  1  0  0  0  0
 30 32  1  0  0  0  0
 30 31  1  6  0  0  0
 32 37  2  0  0  0  0
 32 33  1  0  0  0  0
 33 34  2  0  0  0  0
 34 35  1  0  0  0  0
 34 72  1  0  0  0  0
 35 73  1  0  0  0  0
 36 74  1  0  0  0  0
 36 35  2  0  0  0  0
 37 36  1  0  0  0  0
 38 77  1  0  0  0  0
 38 33  1  0  0  0  0
 39 40  1  6  0  0  0
 39 41  1  0  0  0  0
 39 38  1  0  0  0  0
 41 78  1  0  0  0  0
 43 12  1  0  0  0  0
 44 45  2  0  0  0  0
 44 10  1  0  0  0  0
 46 44  1  0  0  0  0
 47 56  1  0  0  0  0
 47 49  1  0  0  0  0
 47 46  1  0  0  0  0
 47 48  1  6  0  0  0
 49 54  2  0  0  0  0
 50 51  2  0  0  0  0
 50 49  1  0  0  0  0
 51 52  1  0  0  0  0
 52 83  1  0  0  0  0
 52 53  2  0  0  0  0
 53 84  1  0  0  0  0
 54 53  1  0  0  0  0
 54 85  1  0  0  0  0
 55 56  1  0  0  0  0
 55 50  1  0  0  0  0
 56 57  1  6  0  0  0
 56 58  1  0  0  0  0
 58 88  1  0  0  0  0
 59  2  1  0  0  0  0
 60  3  1  0  0  0  0
 63  8  1  0  0  0  0
 65 19  1  0  0  0  0
 66 19  1  0  0  0  0
 67 22  1  0  0  0  0
 68 23  1  0  0  0  0
 69 24  1  0  0  0  0
 75 37  1  0  0  0  0
 76 38  1  0  0  0  0
 79 42  1  0  0  0  0
 80 43  1  0  0  0  0
 81 46  1  0  0  0  0
 82 51  1  0  0  0  0
 86 55  1  0  0  0  0
 87 55  1  0  0  0  0
M  END
$$$$
