88

C         -0.16260       -1.20470        0.04310
C          1.19110       -1.09240        0.39600
C          1.78520       -1.99360        1.27880
C          1.02760       -3.03370        1.83020
C         -0.32300       -3.16200        1.50510
C         -0.88980       -2.25060        0.61730
F         -2.18220       -2.41470        0.26880
C         -0.75170       -0.34120       -1.04770
O         -0.11230       -0.56690       -2.30600
C         -0.06960       -1.92490       -2.70120
H         -0.10180       -2.57190       -1.81320
C          1.23810       -2.24170       -3.44430
H          1.95720       -1.45970       -3.15460
C          1.78690       -3.58790       -2.93250
H          2.20560       -3.38860       -1.92860
C          2.92090       -4.12730       -3.83000
H          2.43580       -4.60870       -4.69910
O          3.70040       -3.02440       -4.23010
C          4.75890       -3.25310       -5.16160
C          4.32800       -4.07270       -6.35120
C          3.41420       -3.56020       -7.27620
C          2.94930       -4.28760       -8.36420
C          3.41600       -5.59380       -8.54140
C          4.32530       -6.14440       -7.63410
C          4.77020       -5.38750       -6.54640
F          2.95800       -2.29970       -7.09390
C          3.73860       -5.18610       -3.06360
O          4.95840       -5.12430       -2.95320
N          2.98470       -6.15770       -2.49900
C          3.51070       -7.05790       -1.50210
H          4.49080       -7.43000       -1.84680
C          3.67000       -6.46600       -0.10650
C          3.29610       -7.41100        0.86130
C          3.34970       -7.08940        2.21810
C          3.79220       -5.81540        2.59610
C          4.17650       -4.88000        1.62700
C          4.11710       -5.19820        0.26500
C          2.88360       -8.70150        0.18750
C          2.53770       -8.24410       -1.24500
H          2.65750       -9.04110       -1.99220
O          1.19010       -7.82640       -1.34790
O          0.79490       -4.58520       -2.78300
O          1.00210       -2.22360       -4.83320
C         -1.28530       -2.35420       -3.52170
O         -1.47100       -3.54430       -3.78330
N         -2.12670       -1.36810       -3.86320
C         -3.38240       -1.59500       -4.52930
H         -3.28030       -2.51330       -5.13210
C         -4.58540       -1.72710       -3.61010
C         -5.70700       -1.13530       -4.21140
C         -6.93660       -1.13610       -3.55300
C         -7.02620       -1.73100       -2.28770
C         -5.90100       -2.31220       -1.68980
C         -4.66560       -2.31460       -2.34970
C         -5.32000       -0.55800       -5.55850
C         -3.79230       -0.39530       -5.42380
H         -3.26210       -0.39580       -6.38610
O         -3.44890        0.82680       -4.79020
H          1.78560       -0.29810       -0.06240
H          2.84350       -1.89860        1.52800
H          1.49630       -3.75710        2.49990
H         -0.94080       -3.96670        1.90700
H         -0.59070        0.72480       -0.83150
H         -1.83730       -0.51880       -1.12420
H          5.59970       -3.74410       -4.65640
H          5.06310       -2.24630       -5.48340
H          2.23430       -3.82920       -9.04920
H          3.06030       -6.18210       -9.39020
H          4.68240       -7.16740       -7.76910
H          5.46340       -5.81420       -5.81750
H          1.96710       -6.05490       -2.54640
H          3.05090       -7.81850        2.97610
H          3.84180       -5.55070        3.65540
H          4.53090       -3.89400        1.93740
H          4.42970       -4.47890       -0.49340
H          3.72770       -9.41440        0.17160
H          2.02970       -9.21010        0.66010
H          1.03200       -7.13210       -0.69010
H         -0.01910       -4.36730       -3.30410
H          1.86180       -2.16380       -5.27510
H         -1.85370       -0.40880       -3.66560
H         -7.81530       -0.67250       -4.00920
H         -7.98190       -1.73340       -1.75770
H         -5.98550       -2.76280       -0.69810
H         -3.78390       -2.75810       -1.88200
H         -5.55790       -1.26770       -6.37110
H         -5.80850        0.39790       -5.80180
H         -4.02830        0.93040       -4.02010
