88
rmsd101.gzmat
C          0.00000        0.00000        0.00000
C          1.39550        0.00000        0.00000
C          2.10010        0.00000        1.20150
C          1.42110       -0.00820        2.42000
C          0.02890       -0.01120        2.44910
C         -0.65410        0.00060        1.23430
F         -1.97730       -0.00060        1.25810
C         -0.75640        0.01910       -1.28800
O         -1.90510       -0.81880       -1.12310
C         -2.04970       -1.83530       -2.09400
H         -1.53550       -1.58270       -3.05320
C         -3.58060       -2.01510       -2.31140
H         -4.06930       -2.34340       -1.36410
C         -4.29570       -0.75620       -2.85560
H         -5.39470       -0.94960       -2.95650
C         -3.73200       -0.31160       -4.22710
H         -3.22510       -1.15980       -4.74680
O         -4.86450        0.13560       -4.94830
C         -4.82060       -0.10280       -6.34860
C         -3.89780        0.87200       -7.00830
C         -2.60270        0.53640       -7.40600
C         -1.70750        1.46410       -7.93650
C         -2.13500        2.78150       -8.07660
C         -3.43360        3.14380       -7.71430
C         -4.30600        2.19690       -7.18520
F         -2.19260       -0.71600       -7.27400
C         -2.75270        0.85000       -4.02700
O         -1.56900        0.61670       -3.80120
N         -3.27150        2.11000       -4.09490
C         -2.57410        3.32890       -3.70210
H         -3.29220        4.18140       -3.85500
C         -2.13820        3.30380       -2.25690
C         -0.79690        3.69150       -2.11750
C         -0.20600        3.73930       -0.86530
C         -0.97810        3.40530        0.25250
C         -2.31230        3.03120        0.11230
C         -2.90470        2.97130       -1.15370
C         -0.17300        4.00900       -3.43400
C         -1.25240        3.68060       -4.50570
H         -1.43060        4.52410       -5.20190
O         -0.80190        2.66830       -5.34040
O         -4.22020        0.29280       -1.93110
O         -3.79180       -2.98970       -3.30240
C         -1.51390       -3.16320       -1.54010
O         -1.71000       -4.21490       -2.12890
N         -0.84660       -3.11450       -0.34690
C         -0.49420       -4.32930        0.37930
H         -0.36090       -5.17900       -0.33840
C          0.73730       -4.06800        1.20750
C          0.44490       -4.07310        2.58120
C          1.44020       -3.82950        3.51280
C          2.73610       -3.56930        3.05450
C          3.02210       -3.55660        1.69140
C          2.01700       -3.80960        0.75140
C         -0.99710       -4.35260        2.84060
C         -1.60270       -4.69400        1.45310
H         -1.89560       -5.76090        1.36940
O         -2.81340       -4.02780        1.26870
H          1.93660        0.00260       -0.94700
H          3.18840       -0.00160        1.19010
H          1.98210       -0.01650        3.35390
H         -0.50680       -0.01860        3.39590
H         -0.13990       -0.27790       -2.15780
H         -1.17000        1.03320       -1.50370
H         -5.88170        0.06740       -6.63080
H         -4.58220       -1.16380       -6.55020
H         -0.69450        1.17610       -8.21160
H         -1.44680        3.53320       -8.46220
H         -3.76070        4.17350       -7.83730
H         -5.31410        2.49110       -6.89470
H         -4.26360        2.20780       -4.29900
H          0.83380        4.02970       -0.74850
H         -0.52710        3.43710        1.24310
H         -2.90300        2.78010        0.99210
H         -3.94420        2.65970       -1.26520
H          0.14560        5.06300       -3.49740
H          0.73710        3.40480       -3.61870
H         -0.78400        1.80250       -4.85380
H         -3.35500        0.26890       -1.45290
H         -3.22660       -3.78860       -3.11510
H         -0.66870       -2.23520        0.12230
H          1.22370       -3.84090        4.57710
H          3.52890       -3.37610        3.77500
H          4.03400       -3.35000        1.35140
H          2.23840       -3.79780       -0.31410
H         -1.14730       -5.17710        3.55820
H         -1.51390       -3.47820        3.28240
H         -2.68830       -3.08640        1.02890
