rmsd164.gzmat
 OpenBabel08211713413D

 88 93  0  0  1  0  0  0  0  0999 V2000
    0.0000    0.0000    0.0000 C   0  0  0  0  0  0  0  0  0  0  0  0
    1.3945    0.0000    0.0000 C   0  0  0  0  0  0  0  0  0  0  0  0
    2.1006    0.0000    1.2025 C   0  0  0  0  0  0  0  0  0  0  0  0
    1.4245    0.0034    2.4212 C   0  0  0  0  0  0  0  0  0  0  0  0
    0.0308    0.0076    2.4513 C   0  0  0  0  0  0  0  0  0  0  0  0
   -0.6494    0.0051    1.2373 C   0  0  0  0  0  0  0  0  0  0  0  0
   -1.9753    0.0075    1.2565 F   0  0  0  0  0  0  0  0  0  0  0  0
   -0.7872    0.0169   -1.2739 C   0  0  0  0  0  0  0  0  0  0  0  0
    0.0987    0.1145   -2.3771 O   0  0  0  0  0  0  0  0  0  0  0  0
    0.2458   -1.0505   -3.1708 C   0  0  2  0  0  0  0  0  0  0  0  0
   -0.7623   -1.3696   -3.5456 H   0  0  0  0  0  0  0  0  0  0  0  0
    0.8913   -2.2066   -2.3758 C   0  0  1  0  0  0  0  0  0  0  0  0
    0.5136   -2.1843   -1.3199 H   0  0  0  0  0  0  0  0  0  0  0  0
    0.5480   -3.5911   -2.9859 C   0  0  2  0  0  0  0  0  0  0  0  0
    0.8225   -4.3921   -2.2604 H   0  0  0  0  0  0  0  0  0  0  0  0
    1.1807   -3.8901   -4.3696 C   0  0  1  0  0  0  0  0  0  0  0  0
    0.8859   -3.1236   -5.1235 H   0  0  0  0  0  0  0  0  0  0  0  0
    2.5745   -3.9434   -4.1801 O   0  0  0  0  0  0  0  0  0  0  0  0
    3.3539   -3.5099   -5.2961 C   0  0  0  0  0  0  0  0  0  0  0  0
    4.0035   -4.7133   -5.9048 C   0  0  0  0  0  0  0  0  0  0  0  0
    3.7793   -5.1182   -7.2223 C   0  0  0  0  0  0  0  0  0  0  0  0
    4.3930   -6.2377   -7.7846 C   0  0  0  0  0  0  0  0  0  0  0  0
    5.2656   -6.9781   -6.9927 C   0  0  0  0  0  0  0  0  0  0  0  0
    5.5091   -6.5999   -5.6716 C   0  0  0  0  0  0  0  0  0  0  0  0
    4.8818   -5.4787   -5.1330 C   0  0  0  0  0  0  0  0  0  0  0  0
    2.9501   -4.4194   -7.9810 F   0  0  0  0  0  0  0  0  0  0  0  0
    0.6398   -5.2565   -4.8127 C   0  0  0  0  0  0  0  0  0  0  0  0
   -0.5477   -5.3690   -5.0972 O   0  0  0  0  0  0  0  0  0  0  0  0
    1.4946   -6.3129   -4.8287 N   0  0  0  0  0  0  0  0  0  0  0  0
    1.0574   -7.6190   -5.3002 C   0  0  1  0  0  0  0  0  0  0  0  0
   -0.0236   -7.7749   -5.0275 H   0  0  0  0  0  0  0  0  0  0  0  0
    1.2359   -7.7998   -6.7884 C   0  0  0  0  0  0  0  0  0  0  0  0
    1.8587   -9.0269   -7.0731 C   0  0  0  0  0  0  0  0  0  0  0  0
    2.1348   -9.3888   -8.3795 C   0  0  0  0  0  0  0  0  0  0  0  0
    1.7741   -8.5078   -9.4062 C   0  0  0  0  0  0  0  0  0  0  0  0
    1.1404   -7.3010   -9.1225 C   0  0  0  0  0  0  0  0  0  0  0  0
    0.8586   -6.9379   -7.8005 C   0  0  0  0  0  0  0  0  0  0  0  0
    2.1453   -9.7945   -5.8219 C   0  0  0  0  0  0  0  0  0  0  0  0
    1.9453   -8.7671   -4.6802 C   0  0  1  0  0  0  0  0  0  0  0  0
    1.5125   -9.1855   -3.7528 H   0  0  0  0  0  0  0  0  0  0  0  0
    3.1832   -8.2623   -4.2585 O   0  0  0  0  0  0  0  0  0  0  0  0
   -0.8564   -3.5632   -3.1133 O   0  0  0  0  0  0  0  0  0  0  0  0
    2.2661   -2.0637   -2.2111 O   0  0  0  0  0  0  0  0  0  0  0  0
    1.1013   -0.5639   -4.3420 C   0  0  0  0  0  0  0  0  0  0  0  0
    2.0886   -1.1733   -4.7293 O   0  0  0  0  0  0  0  0  0  0  0  0
    0.7059    0.5213   -5.0858 N   0  0  0  0  0  0  0  0  0  0  0  0
   -0.3422    1.4640   -4.7162 C   0  0  1  0  0  0  0  0  0  0  0  0
   -1.0594    1.0036   -3.9910 H   0  0  0  0  0  0  0  0  0  0  0  0
    0.2265    2.7464   -4.1601 C   0  0  0  0  0  0  0  0  0  0  0  0
   -0.0854    3.8453   -4.9757 C   0  0  0  0  0  0  0  0  0  0  0  0
    0.3401    5.1184   -4.6348 C   0  0  0  0  0  0  0  0  0  0  0  0
    1.0895    5.2818   -3.4645 C   0  0  0  0  0  0  0  0  0  0  0  0
    1.4027    4.1895   -2.6593 C   0  0  0  0  0  0  0  0  0  0  0  0
    0.9703    2.9045   -3.0047 C   0  0  0  0  0  0  0  0  0  0  0  0
   -0.8798    3.4430   -6.1747 C   0  0  0  0  0  0  0  0  0  0  0  0
   -1.1277    1.9262   -6.0124 C   0  0  1  0  0  0  0  0  0  0  0  0
   -2.2019    1.6729   -5.9312 H   0  0  0  0  0  0  0  0  0  0  0  0
   -0.6098    1.3351   -7.1786 O   0  0  0  0  0  0  0  0  0  0  0  0
    1.9393   -0.0183   -0.9523 H   0  0  0  0  0  0  0  0  0  0  0  0
    3.1894   -0.0089    1.1847 H   0  0  0  0  0  0  0  0  0  0  0  0
    1.9841    0.0009    3.3554 H   0  0  0  0  0  0  0  0  0  0  0  0
   -0.5052    0.0128    3.3975 H   0  0  0  0  0  0  0  0  0  0  0  0
   -1.3837    0.9527   -1.3628 H   0  0  0  0  0  0  0  0  0  0  0  0
   -1.4692   -0.8511   -1.3590 H   0  0  0  0  0  0  0  0  0  0  0  0
    4.1020   -2.8326   -4.8265 H   0  0  0  0  0  0  0  0  0  0  0  0
    2.7692   -2.8989   -6.0088 H   0  0  0  0  0  0  0  0  0  0  0  0
    4.1893   -6.5317   -8.8140 H   0  0  0  0  0  0  0  0  0  0  0  0
    5.7639   -7.8529   -7.4100 H   0  0  0  0  0  0  0  0  0  0  0  0
    6.2020   -7.1780   -5.0611 H   0  0  0  0  0  0  0  0  0  0  0  0
    5.0745   -5.1890   -4.0968 H   0  0  0  0  0  0  0  0  0  0  0  0
    2.4686   -6.2140   -4.5519 H   0  0  0  0  0  0  0  0  0  0  0  0
    2.6188  -10.3331   -8.6087 H   0  0  0  0  0  0  0  0  0  0  0  0
    1.9888   -8.7754  -10.4391 H   0  0  0  0  0  0  0  0  0  0  0  0
    0.8590   -6.6300   -9.9323 H   0  0  0  0  0  0  0  0  0  0  0  0
    0.3506   -5.9997   -7.5732 H   0  0  0  0  0  0  0  0  0  0  0  0
    1.4591  -10.6550   -5.7135 H   0  0  0  0  0  0  0  0  0  0  0  0
    3.1650  -10.2190   -5.7989 H   0  0  0  0  0  0  0  0  0  0  0  0
    3.7571   -8.0336   -5.0255 H   0  0  0  0  0  0  0  0  0  0  0  0
   -1.1714   -4.2421   -3.7665 H   0  0  0  0  0  0  0  0  0  0  0  0
    2.7198   -2.1117   -3.0927 H   0  0  0  0  0  0  0  0  0  0  0  0
    1.3265    0.8377   -5.8349 H   0  0  0  0  0  0  0  0  0  0  0  0
    0.1019    5.9732   -5.2606 H   0  0  0  0  0  0  0  0  0  0  0  0
    1.4318    6.2766   -3.1835 H   0  0  0  0  0  0  0  0  0  0  0  0
    1.9887    4.3317   -1.7533 H   0  0  0  0  0  0  0  0  0  0  0  0
    1.2198    2.0490   -2.3750 H   0  0  0  0  0  0  0  0  0  0  0  0
   -1.8245    4.0053   -6.2648 H   0  0  0  0  0  0  0  0  0  0  0  0
   -0.3202    3.6357   -7.1166 H   0  0  0  0  0  0  0  0  0  0  0  0
   -0.6910    0.3575   -7.1434 H   0  0  0  0  0  0  0  0  0  0  0  0
  1  6  1  0  0  0  0
  2  1  2  0  0  0  0
  2  3  1  0  0  0  0
  3  4  2  0  0  0  0
  4  5  1  0  0  0  0
  4 61  1  0  0  0  0
  5 62  1  0  0  0  0
  6  7  1  0  0  0  0
  6  5  2  0  0  0  0
  8  1  1  0  0  0  0
  9  8  1  0  0  0  0
 10 11  1  6  0  0  0
 10  9  1  0  0  0  0
 10 12  1  0  0  0  0
 12 43  1  0  0  0  0
 12 13  1  1  0  0  0
 14 12  1  0  0  0  0
 14 15  1  1  0  0  0
 16 17  1  6  0  0  0
 16 18  1  0  0  0  0
 16 14  1  0  0  0  0
 19 65  1  0  0  0  0
 19 18  1  0  0  0  0
 20 19  1  0  0  0  0
 20 25  2  0  0  0  0
 21 20  1  0  0  0  0
 22 21  2  0  0  0  0
 22 23  1  0  0  0  0
 23 24  2  0  0  0  0
 24 25  1  0  0  0  0
 24 69  1  0  0  0  0
 25 70  1  0  0  0  0
 26 21  1  0  0  0  0
 27 16  1  0  0  0  0
 28 27  2  0  0  0  0
 29 27  1  0  0  0  0
 29 71  1  0  0  0  0
 30 31  1  1  0  0  0
 30 29  1  0  0  0  0
 30 39  1  0  0  0  0
 32 30  1  0  0  0  0
 33 32  1  0  0  0  0
 33 38  1  0  0  0  0
 34 33  2  0  0  0  0
 35 36  2  0  0  0  0
 35 34  1  0  0  0  0
 36 37  1  0  0  0  0
 37 75  1  0  0  0  0
 37 32  2  0  0  0  0
 38 77  1  0  0  0  0
 38 76  1  0  0  0  0
 38 39  1  0  0  0  0
 39 41  1  0  0  0  0
 39 40  1  1  0  0  0
 42 14  1  0  0  0  0
 44 10  1  0  0  0  0
 45 44  2  0  0  0  0
 46 47  1  0  0  0  0
 46 44  1  0  0  0  0
 47 56  1  0  0  0  0
 47 49  1  0  0  0  0
 47 48  1  1  0  0  0
 49 54  2  0  0  0  0
 50 51  2  0  0  0  0
 50 49  1  0  0  0  0
 51 52  1  0  0  0  0
 52 83  1  0  0  0  0
 52 53  2  0  0  0  0
 53 84  1  0  0  0  0
 54 53  1  0  0  0  0
 54 85  1  0  0  0  0
 55 56  1  0  0  0  0
 55 50  1  0  0  0  0
 56 57  1  1  0  0  0
 58 88  1  0  0  0  0
 58 56  1  0  0  0  0
 59  2  1  0  0  0  0
 60  3  1  0  0  0  0
 63  8  1  0  0  0  0
 64  8  1  0  0  0  0
 66 19  1  0  0  0  0
 67 22  1  0  0  0  0
 68 23  1  0  0  0  0
 72 34  1  0  0  0  0
 73 35  1  0  0  0  0
 74 36  1  0  0  0  0
 78 41  1  0  0  0  0
 79 42  1  0  0  0  0
 80 43  1  0  0  0  0
 81 46  1  0  0  0  0
 82 51  1  0  0  0  0
 86 55  1  0  0  0  0
 87 55  1  0  0  0  0
M  END
$$$$
