
     RDKit          3D

 88 93  0  0  0  0  0  0  0  0999 V2000
   -0.1453   -0.2309    0.2098 C   0  0  0  0  0  0  0  0  0  0  0  0
    1.2435   -0.2323    0.4135 C   0  0  0  0  0  0  0  0  0  0  0  0
    1.7917   -0.5644    1.6531 C   0  0  0  0  0  0  0  0  0  0  0  0
    0.9543   -0.9025    2.7214 C   0  0  0  0  0  0  0  0  0  0  0  0
   -0.4300   -0.9167    2.5436 C   0  0  0  0  0  0  0  0  0  0  0  0
   -0.9521   -0.5863    1.2950 C   0  0  0  0  0  0  0  0  0  0  0  0
   -2.2896   -0.6183    1.1367 F   0  0  0  0  0  0  0  0  0  0  0  0
   -0.7524    0.1085   -1.1348 C   0  0  0  0  0  0  0  0  0  0  0  0
   -0.0305   -0.4452   -2.2297 O   0  0  0  0  0  0  0  0  0  0  0  0
    0.1257   -1.8346   -2.2232 C   0  0  2  0  0  0  0  0  0  0  0  0
    0.5596   -2.1733   -1.2638 H   0  0  0  0  0  0  0  0  0  0  0  0
    1.1319   -2.2280   -3.3254 C   0  0  1  0  0  0  0  0  0  0  0  0
    0.6417   -2.1707   -4.3070 H   0  0  0  0  0  0  0  0  0  0  0  0
    2.3598   -1.3183   -3.3270 C   0  0  2  0  0  0  0  0  0  0  0  0
    2.0271   -0.2684   -3.3738 H   0  0  0  0  0  0  0  0  0  0  0  0
    3.2548   -1.6265   -4.5430 C   0  0  1  0  0  0  0  0  0  0  0  0
    3.5861   -2.6733   -4.4477 H   0  0  0  0  0  0  0  0  0  0  0  0
    2.5361   -1.4374   -5.7423 O   0  0  0  0  0  0  0  0  0  0  0  0
    2.5104   -2.5249   -6.6651 C   0  0  0  0  0  0  0  0  0  0  0  0
    3.6074   -2.4232   -7.7007 C   0  0  0  0  0  0  0  0  0  0  0  0
    4.9206   -2.8135   -7.4155 C   0  0  0  0  0  0  0  0  0  0  0  0
    5.9702   -2.6456   -8.3109 C   0  0  0  0  0  0  0  0  0  0  0  0
    5.7013   -2.0767   -9.5598 C   0  0  0  0  0  0  0  0  0  0  0  0
    4.3986   -1.6877   -9.8895 C   0  0  0  0  0  0  0  0  0  0  0  0
    3.3691   -1.8557   -8.9597 C   0  0  0  0  0  0  0  0  0  0  0  0
    5.1862   -3.3485   -6.2074 F   0  0  0  0  0  0  0  0  0  0  0  0
    4.5297   -0.7840   -4.4912 C   0  0  0  0  0  0  0  0  0  0  0  0
    5.2166   -0.7612   -3.4628 O   0  0  0  0  0  0  0  0  0  0  0  0
    4.8323   -0.1242   -5.6141 N   0  0  0  0  0  0  0  0  0  0  0  0
    6.0633    0.6003   -5.8383 C   0  0  1  0  0  0  0  0  0  0  0  0
    6.2824    1.2128   -4.9466 H   0  0  0  0  0  0  0  0  0  0  0  0
    7.2682   -0.2653   -6.1722 C   0  0  0  0  0  0  0  0  0  0  0  0
    7.9823    0.2918   -7.2427 C   0  0  0  0  0  0  0  0  0  0  0  0
    9.1112   -0.3543   -7.7480 C   0  0  0  0  0  0  0  0  0  0  0  0
    9.5251   -1.5549   -7.1581 C   0  0  0  0  0  0  0  0  0  0  0  0
    8.8251   -2.0918   -6.0696 C   0  0  0  0  0  0  0  0  0  0  0  0
    7.6895   -1.4480   -5.5651 C   0  0  0  0  0  0  0  0  0  0  0  0
    7.3535    1.6011   -7.6633 C   0  0  0  0  0  0  0  0  0  0  0  0
    5.9199    1.5008   -7.1063 C   0  0  1  0  0  0  0  0  0  0  0  0
    5.4877    2.4796   -6.8560 H   0  0  0  0  0  0  0  0  0  0  0  0
    5.0301    0.9192   -8.0397 O   0  0  0  0  0  0  0  0  0  0  0  0
    3.0647   -1.6011   -2.1326 O   0  0  0  0  0  0  0  0  0  0  0  0
    1.5603   -3.5699   -3.1241 O   0  0  0  0  0  0  0  0  0  0  0  0
   -1.2130   -2.5704   -2.4135 C   0  0  0  0  0  0  0  0  0  0  0  0
   -2.2637   -1.9594   -2.5798 O   0  0  0  0  0  0  0  0  0  0  0  0
   -1.1273   -3.9193   -2.3211 N   0  0  0  0  0  0  0  0  0  0  0  0
   -2.2790   -4.7948   -2.2026 C   0  0  1  0  0  0  0  0  0  0  0  0
   -1.8803   -5.7814   -1.9085 H   0  0  0  0  0  0  0  0  0  0  0  0
   -3.2935   -4.3471   -1.1666 C   0  0  0  0  0  0  0  0  0  0  0  0
   -4.5855   -4.6924   -1.5802 C   0  0  0  0  0  0  0  0  0  0  0  0
   -5.6819   -4.3702   -0.7795 C   0  0  0  0  0  0  0  0  0  0  0  0
   -5.4688   -3.6919    0.4269 C   0  0  0  0  0  0  0  0  0  0  0  0
   -4.1738   -3.3421    0.8294 C   0  0  0  0  0  0  0  0  0  0  0  0
   -3.0740   -3.6752    0.0329 C   0  0  0  0  0  0  0  0  0  0  0  0
   -4.5337   -5.3906   -2.9187 C   0  0  0  0  0  0  0  0  0  0  0  0
   -3.1471   -4.9936   -3.4921 C   0  0  1  0  0  0  0  0  0  0  0  0
   -2.7316   -5.7973   -4.1222 H   0  0  0  0  0  0  0  0  0  0  0  0
   -3.2021   -3.8453   -4.2895 O   0  0  0  0  0  0  0  0  0  0  0  0
    1.8985   -0.0133   -0.4317 H   0  0  0  0  0  0  0  0  0  0  0  0
    2.8760   -0.5669    1.7833 H   0  0  0  0  0  0  0  0  0  0  0  0
    1.3771   -1.1622    3.6946 H   0  0  0  0  0  0  0  0  0  0  0  0
   -1.1145   -1.1816    3.3514 H   0  0  0  0  0  0  0  0  0  0  0  0
   -0.7150    1.1969   -1.2996 H   0  0  0  0  0  0  0  0  0  0  0  0
   -1.8033   -0.2057   -1.1707 H   0  0  0  0  0  0  0  0  0  0  0  0
    1.5345   -2.4768   -7.1689 H   0  0  0  0  0  0  0  0  0  0  0  0
    2.5656   -3.4797   -6.1174 H   0  0  0  0  0  0  0  0  0  0  0  0
    6.9774   -2.9413   -8.0175 H   0  0  0  0  0  0  0  0  0  0  0  0
    6.5175   -1.9381  -10.2721 H   0  0  0  0  0  0  0  0  0  0  0  0
    4.1875   -1.2393  -10.8621 H   0  0  0  0  0  0  0  0  0  0  0  0
    2.3546   -1.5324   -9.2053 H   0  0  0  0  0  0  0  0  0  0  0  0
    4.1818   -0.1749   -6.3952 H   0  0  0  0  0  0  0  0  0  0  0  0
    9.6657    0.0684   -8.5899 H   0  0  0  0  0  0  0  0  0  0  0  0
   10.4058   -2.0734   -7.5450 H   0  0  0  0  0  0  0  0  0  0  0  0
    9.1668   -3.0234   -5.6123 H   0  0  0  0  0  0  0  0  0  0  0  0
    7.1395   -1.8599   -4.7188 H   0  0  0  0  0  0  0  0  0  0  0  0
    7.8885    2.4484   -7.1987 H   0  0  0  0  0  0  0  0  0  0  0  0
    7.3452    1.7787   -8.7497 H   0  0  0  0  0  0  0  0  0  0  0  0
    5.4386    0.1271   -8.4243 H   0  0  0  0  0  0  0  0  0  0  0  0
    3.9932   -1.3091   -2.2793 H   0  0  0  0  0  0  0  0  0  0  0  0
    2.2714   -3.4889   -2.4608 H   0  0  0  0  0  0  0  0  0  0  0  0
   -0.1918   -4.3136   -2.3839 H   0  0  0  0  0  0  0  0  0  0  0  0
   -6.6961   -4.6275   -1.0964 H   0  0  0  0  0  0  0  0  0  0  0  0
   -6.3219   -3.4196    1.0533 H   0  0  0  0  0  0  0  0  0  0  0  0
   -4.0202   -2.7862    1.7567 H   0  0  0  0  0  0  0  0  0  0  0  0
   -2.0638   -3.3878    0.3338 H   0  0  0  0  0  0  0  0  0  0  0  0
   -4.6010   -6.4865   -2.7871 H   0  0  0  0  0  0  0  0  0  0  0  0
   -5.3333   -5.0895   -3.6119 H   0  0  0  0  0  0  0  0  0  0  0  0
   -3.1987   -3.0600   -3.7058 H   0  0  0  0  0  0  0  0  0  0  0  0
  1  2  2  0
  1  6  1  0
  1  8  1  0
  2  3  1  0
  2 59  1  0
  3  4  2  0
  3 60  1  0
  4  5  1  0
  4 61  1  0
  5  6  2  0
  5 62  1  0
  6  7  1  0
  8  9  1  0
  8 63  1  0
  8 64  1  0
  9 10  1  0
 10 11  1  1
 10 12  1  0
 10 44  1  0
 12 13  1  6
 12 14  1  0
 12 43  1  0
 14 15  1  1
 14 16  1  0
 14 42  1  0
 16 17  1  1
 16 18  1  0
 16 27  1  0
 18 19  1  0
 19 20  1  0
 19 65  1  0
 19 66  1  0
 20 21  2  0
 20 25  1  0
 21 22  1  0
 21 26  1  0
 22 23  2  0
 22 67  1  0
 23 24  1  0
 23 68  1  0
 24 25  2  0
 24 69  1  0
 25 70  1  0
 27 28  2  0
 27 29  1  0
 29 30  1  0
 29 71  1  0
 30 31  1  1
 30 32  1  0
 30 39  1  0
 32 33  1  0
 32 37  2  0
 33 34  2  0
 33 38  1  0
 34 35  1  0
 34 72  1  0
 35 36  2  0
 35 73  1  0
 36 37  1  0
 36 74  1  0
 37 75  1  0
 38 39  1  0
 38 76  1  0
 38 77  1  0
 39 40  1  1
 39 41  1  0
 41 78  1  0
 42 79  1  0
 43 80  1  0
 44 45  2  0
 44 46  1  0
 46 47  1  0
 46 81  1  0
 47 48  1  1
 47 49  1  0
 47 56  1  0
 49 50  1  0
 49 54  2  0
 50 51  2  0
 50 55  1  0
 51 52  1  0
 51 82  1  0
 52 53  2  0
 52 83  1  0
 53 54  1  0
 53 84  1  0
 54 85  1  0
 55 56  1  0
 55 86  1  0
 55 87  1  0
 56 57  1  6
 56 58  1  0
 58 88  1  0
M  END

