rmsd190.gzmat
 OpenBabel08211713413D

 88 93  0  0  1  0  0  0  0  0999 V2000
    0.0000    0.0000    0.0000 C   0  0  0  0  0  0  0  0  0  0  0  0
    1.3971    0.0000    0.0000 C   0  0  0  0  0  0  0  0  0  0  0  0
    2.1081    0.0000    1.1974 C   0  0  0  0  0  0  0  0  0  0  0  0
    1.4314   -0.0086    2.4177 C   0  0  0  0  0  0  0  0  0  0  0  0
    0.0402   -0.0053    2.4494 C   0  0  0  0  0  0  0  0  0  0  0  0
   -0.6497    0.0052    1.2360 C   0  0  0  0  0  0  0  0  0  0  0  0
   -1.9707    0.0168    1.2730 F   0  0  0  0  0  0  0  0  0  0  0  0
   -0.7241   -0.0501   -1.3092 C   0  0  0  0  0  0  0  0  0  0  0  0
   -0.2684   -1.1901   -2.0282 O   0  0  0  0  0  0  0  0  0  0  0  0
   -0.9460   -2.3985   -1.8099 C   0  0  2  0  0  0  0  0  0  0  0  0
   -0.2663   -3.1106   -2.3560 H   0  0  0  0  0  0  0  0  0  0  0  0
   -2.3368   -2.4250   -2.4808 C   0  0  1  0  0  0  0  0  0  0  0  0
   -2.2907   -1.9699   -3.5002 H   0  0  0  0  0  0  0  0  0  0  0  0
   -2.8372   -3.8885   -2.5448 C   0  0  2  0  0  0  0  0  0  0  0  0
   -2.1244   -4.5608   -3.0811 H   0  0  0  0  0  0  0  0  0  0  0  0
   -4.2345   -3.9280   -3.1937 C   0  0  1  0  0  0  0  0  0  0  0  0
   -4.9004   -3.1434   -2.7502 H   0  0  0  0  0  0  0  0  0  0  0  0
   -4.1580   -3.5058   -4.5356 O   0  0  0  0  0  0  0  0  0  0  0  0
   -3.7209   -4.4708   -5.4823 C   0  0  0  0  0  0  0  0  0  0  0  0
   -4.9035   -5.2433   -5.9784 C   0  0  0  0  0  0  0  0  0  0  0  0
   -6.0734   -4.5794   -6.3568 C   0  0  0  0  0  0  0  0  0  0  0  0
   -7.2159   -5.2503   -6.7891 C   0  0  0  0  0  0  0  0  0  0  0  0
   -7.1757   -6.6415   -6.8479 C   0  0  0  0  0  0  0  0  0  0  0  0
   -6.0218   -7.3305   -6.4757 C   0  0  0  0  0  0  0  0  0  0  0  0
   -4.8940   -6.6365   -6.0404 C   0  0  0  0  0  0  0  0  0  0  0  0
   -6.0991   -3.2588   -6.2928 F   0  0  0  0  0  0  0  0  0  0  0  0
   -4.8105   -5.3391   -3.0754 C   0  0  0  0  0  0  0  0  0  0  0  0
   -4.1372   -6.3419   -3.2010 O   0  0  0  0  0  0  0  0  0  0  0  0
   -6.1618   -5.4086   -2.8230 N   0  0  0  0  0  0  0  0  0  0  0  0
   -6.8200   -6.7065   -2.7954 C   0  0  1  0  0  0  0  0  0  0  0  0
   -6.2417   -7.4398   -3.4271 H   0  0  0  0  0  0  0  0  0  0  0  0
   -6.9797   -7.2703   -1.4050 C   0  0  0  0  0  0  0  0  0  0  0  0
   -8.2706   -7.8005   -1.2312 C   0  0  0  0  0  0  0  0  0  0  0  0
   -8.6333   -8.3851   -0.0316 C   0  0  0  0  0  0  0  0  0  0  0  0
   -7.6874   -8.4340    1.0003 C   0  0  0  0  0  0  0  0  0  0  0  0
   -6.4092   -7.9116    0.8232 C   0  0  0  0  0  0  0  0  0  0  0  0
   -6.0408   -7.3234   -0.3930 C   0  0  0  0  0  0  0  0  0  0  0  0
   -9.1024   -7.6208   -2.4632 C   0  0  0  0  0  0  0  0  0  0  0  0
   -8.3028   -6.6101   -3.3218 C   0  0  1  0  0  0  0  0  0  0  0  0
   -8.3800   -6.7623   -4.4143 H   0  0  0  0  0  0  0  0  0  0  0  0
   -8.8006   -5.3093   -3.1425 O   0  0  0  0  0  0  0  0  0  0  0  0
   -2.8897   -4.4493   -1.2579 O   0  0  0  0  0  0  0  0  0  0  0  0
   -3.2929   -1.6418   -1.8224 O   0  0  0  0  0  0  0  0  0  0  0  0
   -1.0510   -2.7446   -0.3235 C   0  0  0  0  0  0  0  0  0  0  0  0
   -2.0207   -2.4300    0.3606 O   0  0  0  0  0  0  0  0  0  0  0  0
   -0.0641   -3.4690    0.2938 N   0  0  0  0  0  0  0  0  0  0  0  0
    1.2112   -3.8335   -0.3185 C   0  0  1  0  0  0  0  0  0  0  0  0
    1.6170   -2.9726   -0.9042 H   0  0  0  0  0  0  0  0  0  0  0  0
    2.1554   -4.2935    0.7643 C   0  0  0  0  0  0  0  0  0  0  0  0
    2.2848   -5.6945    0.7631 C   0  0  0  0  0  0  0  0  0  0  0  0
    3.0915   -6.3249    1.6944 C   0  0  0  0  0  0  0  0  0  0  0  0
    3.7707   -5.5385    2.6323 C   0  0  0  0  0  0  0  0  0  0  0  0
    3.6390   -4.1522    2.6323 C   0  0  0  0  0  0  0  0  0  0  0  0
    2.8221   -3.5152    1.6913 C   0  0  0  0  0  0  0  0  0  0  0  0
    1.4751   -6.3171   -0.3273 C   0  0  0  0  0  0  0  0  0  0  0  0
    1.0898   -5.1217   -1.2353 C   0  0  1  0  0  0  0  0  0  0  0  0
    1.7742   -5.0330   -2.1074 H   0  0  0  0  0  0  0  0  0  0  0  0
   -0.1488   -5.2685   -1.8356 O   0  0  0  0  0  0  0  0  0  0  0  0
    1.9297   -0.0080   -0.9522 H   0  0  0  0  0  0  0  0  0  0  0  0
    3.1957    0.0120    1.1804 H   0  0  0  0  0  0  0  0  0  0  0  0
    1.9934   -0.0160    3.3511 H   0  0  0  0  0  0  0  0  0  0  0  0
   -0.4981   -0.0167    3.3960 H   0  0  0  0  0  0  0  0  0  0  0  0
   -0.4199    0.7800   -1.9816 H   0  0  0  0  0  0  0  0  0  0  0  0
   -1.8272   -0.0354   -1.2324 H   0  0  0  0  0  0  0  0  0  0  0  0
   -2.9286   -5.1240   -5.0691 H   0  0  0  0  0  0  0  0  0  0  0  0
   -3.2829   -3.8306   -6.2773 H   0  0  0  0  0  0  0  0  0  0  0  0
   -8.1162   -4.7055   -7.0653 H   0  0  0  0  0  0  0  0  0  0  0  0
   -8.0517   -7.1922   -7.1881 H   0  0  0  0  0  0  0  0  0  0  0  0
   -6.0008   -8.4174   -6.5186 H   0  0  0  0  0  0  0  0  0  0  0  0
   -4.0065   -7.1864   -5.7190 H   0  0  0  0  0  0  0  0  0  0  0  0
   -6.7657   -4.5975   -2.8424 H   0  0  0  0  0  0  0  0  0  0  0  0
   -9.6273   -8.7958    0.1143 H   0  0  0  0  0  0  0  0  0  0  0  0
   -7.9603   -8.8862    1.9518 H   0  0  0  0  0  0  0  0  0  0  0  0
   -5.6859   -7.9573    1.6352 H   0  0  0  0  0  0  0  0  0  0  0  0
   -5.0385   -6.9184   -0.5426 H   0  0  0  0  0  0  0  0  0  0  0  0
   -9.2426   -8.5782   -2.9970 H   0  0  0  0  0  0  0  0  0  0  0  0
  -10.1180   -7.2441   -2.2467 H   0  0  0  0  0  0  0  0  0  0  0  0
   -8.9560   -5.1176   -2.1920 H   0  0  0  0  0  0  0  0  0  0  0  0
   -3.3724   -3.8684   -0.6237 H   0  0  0  0  0  0  0  0  0  0  0  0
   -3.1950   -1.7311   -0.8362 H   0  0  0  0  0  0  0  0  0  0  0  0
   -0.1805   -3.7005    1.2781 H   0  0  0  0  0  0  0  0  0  0  0  0
    3.1982   -7.4062    1.7025 H   0  0  0  0  0  0  0  0  0  0  0  0
    4.4101   -6.0208    3.3709 H   0  0  0  0  0  0  0  0  0  0  0  0
    4.1736   -3.5565    3.3692 H   0  0  0  0  0  0  0  0  0  0  0  0
    2.7127   -2.4312    1.6960 H   0  0  0  0  0  0  0  0  0  0  0  0
    2.0213   -7.0940   -0.8866 H   0  0  0  0  0  0  0  0  0  0  0  0
    0.5693   -6.8165    0.0696 H   0  0  0  0  0  0  0  0  0  0  0  0
   -0.9078   -5.2710   -1.2012 H   0  0  0  0  0  0  0  0  0  0  0  0
  1  2  2  0  0  0  0
  1  6  1  0  0  0  0
  2  3  1  0  0  0  0
  3  4  2  0  0  0  0
  4  5  1  0  0  0  0
  4 61  1  0  0  0  0
  5 62  1  0  0  0  0
  6  7  1  0  0  0  0
  6  5  2  0  0  0  0
  8 64  1  0  0  0  0
  8  1  1  0  0  0  0
  9 10  1  0  0  0  0
  9  8  1  0  0  0  0
 10 11  1  6  0  0  0
 10 44  1  0  0  0  0
 12 13  1  6  0  0  0
 12 43  1  0  0  0  0
 12 10  1  0  0  0  0
 14 15  1  6  0  0  0
 14 12  1  0  0  0  0
 14 42  1  0  0  0  0
 16 27  1  0  0  0  0
 16 17  1  1  0  0  0
 16 14  1  0  0  0  0
 18 16  1  0  0  0  0
 19 65  1  0  0  0  0
 19 18  1  0  0  0  0
 20 19  1  0  0  0  0
 21 26  1  0  0  0  0
 21 20  2  0  0  0  0
 22 21  1  0  0  0  0
 23 22  2  0  0  0  0
 23 24  1  0  0  0  0
 24 25  2  0  0  0  0
 25 20  1  0  0  0  0
 25 70  1  0  0  0  0
 27 29  1  0  0  0  0
 28 27  2  0  0  0  0
 29 30  1  0  0  0  0
 30 39  1  0  0  0  0
 30 32  1  0  0  0  0
 30 31  1  6  0  0  0
 32 33  2  0  0  0  0
 32 37  1  0  0  0  0
 33 34  1  0  0  0  0
 34 72  1  0  0  0  0
 34 35  2  0  0  0  0
 35 73  1  0  0  0  0
 36 35  1  0  0  0  0
 36 74  1  0  0  0  0
 37 36  2  0  0  0  0
 38 77  1  0  0  0  0
 38 33  1  0  0  0  0
 39 40  1  6  0  0  0
 39 41  1  0  0  0  0
 39 38  1  0  0  0  0
 41 78  1  0  0  0  0
 42 79  1  0  0  0  0
 43 80  1  0  0  0  0
 44 46  1  0  0  0  0
 44 45  2  0  0  0  0
 46 81  1  0  0  0  0
 47 56  1  0  0  0  0
 47 46  1  0  0  0  0
 47 49  1  0  0  0  0
 47 48  1  6  0  0  0
 49 54  1  0  0  0  0
 50 49  2  0  0  0  0
 50 51  1  0  0  0  0
 51 82  1  0  0  0  0
 51 52  2  0  0  0  0
 52 83  1  0  0  0  0
 53 52  1  0  0  0  0
 53 84  1  0  0  0  0
 54 85  1  0  0  0  0
 54 53  2  0  0  0  0
 55 87  1  0  0  0  0
 55 50  1  0  0  0  0
 56 57  1  6  0  0  0
 56 55  1  0  0  0  0
 58 56  1  0  0  0  0
 58 88  1  0  0  0  0
 59  2  1  0  0  0  0
 60  3  1  0  0  0  0
 63  8  1  0  0  0  0
 66 19  1  0  0  0  0
 67 22  1  0  0  0  0
 68 23  1  0  0  0  0
 69 24  1  0  0  0  0
 71 29  1  0  0  0  0
 75 37  1  0  0  0  0
 76 38  1  0  0  0  0
 86 55  1  0  0  0  0
M  END
$$$$
