
     RDKit          3D

 88 93  0  0  0  0  0  0  0  0999 V2000
   -0.4395    0.2692   -0.6493 C   0  0  0  0  0  0  0  0  0  0  0  0
    0.8712   -0.2145   -0.7613 C   0  0  0  0  0  0  0  0  0  0  0  0
    1.6461   -0.4599    0.3752 C   0  0  0  0  0  0  0  0  0  0  0  0
    1.1192   -0.2221    1.6475 C   0  0  0  0  0  0  0  0  0  0  0  0
   -0.1863    0.2597    1.7872 C   0  0  0  0  0  0  0  0  0  0  0  0
   -0.9329    0.5027    0.6404 C   0  0  0  0  0  0  0  0  0  0  0  0
   -2.1792    0.9975    0.7648 F   0  0  0  0  0  0  0  0  0  0  0  0
   -1.2849    0.6041   -1.8507 C   0  0  0  0  0  0  0  0  0  0  0  0
   -1.3780    2.0174   -2.0586 O   0  0  0  0  0  0  0  0  0  0  0  0
   -0.1688    2.6254   -2.4998 C   0  0  2  0  0  0  0  0  0  0  0  0
    0.6939    2.2179   -1.9544 H   0  0  0  0  0  0  0  0  0  0  0  0
   -0.3429    4.1343   -2.2193 C   0  0  1  0  0  0  0  0  0  0  0  0
   -1.3899    4.3789   -2.4683 H   0  0  0  0  0  0  0  0  0  0  0  0
   -0.1562    4.4584   -0.7226 C   0  0  2  0  0  0  0  0  0  0  0  0
   -0.2520    5.5507   -0.6018 H   0  0  0  0  0  0  0  0  0  0  0  0
    1.2457    4.0752   -0.2163 C   0  0  1  0  0  0  0  0  0  0  0  0
    1.3815    2.9833   -0.3120 H   0  0  0  0  0  0  0  0  0  0  0  0
    2.1890    4.7508   -1.0263 O   0  0  0  0  0  0  0  0  0  0  0  0
    3.5502    4.4556   -0.7343 C   0  0  0  0  0  0  0  0  0  0  0  0
    3.8861    3.0048   -0.9891 C   0  0  0  0  0  0  0  0  0  0  0  0
    4.4471    2.1907   -0.0036 C   0  0  0  0  0  0  0  0  0  0  0  0
    4.8044    0.8665   -0.2329 C   0  0  0  0  0  0  0  0  0  0  0  0
    4.5497    0.3124   -1.4898 C   0  0  0  0  0  0  0  0  0  0  0  0
    3.9307    1.0790   -2.4825 C   0  0  0  0  0  0  0  0  0  0  0  0
    3.6140    2.4143   -2.2325 C   0  0  0  0  0  0  0  0  0  0  0  0
    4.6447    2.7017    1.2391 F   0  0  0  0  0  0  0  0  0  0  0  0
    1.4043    4.4617    1.2597 C   0  0  0  0  0  0  0  0  0  0  0  0
    1.5660    5.6162    1.6103 O   0  0  0  0  0  0  0  0  0  0  0  0
    1.3524    3.3944    2.0978 N   0  0  0  0  0  0  0  0  0  0  0  0
    1.2297    3.5141    3.5322 C   0  0  1  0  0  0  0  0  0  0  0  0
    1.2680    4.5918    3.7569 H   0  0  0  0  0  0  0  0  0  0  0  0
   -0.0437    2.8790    4.0446 C   0  0  0  0  0  0  0  0  0  0  0  0
    0.2143    2.0887    5.1700 C   0  0  0  0  0  0  0  0  0  0  0  0
   -0.8207    1.3631    5.7622 C   0  0  0  0  0  0  0  0  0  0  0  0
   -2.1071    1.4434    5.2129 C   0  0  0  0  0  0  0  0  0  0  0  0
   -2.3566    2.2405    4.0876 C   0  0  0  0  0  0  0  0  0  0  0  0
   -1.3204    2.9663    3.4901 C   0  0  0  0  0  0  0  0  0  0  0  0
    1.6734    2.1773    5.5534 C   0  0  0  0  0  0  0  0  0  0  0  0
    2.3646    2.7557    4.3034 C   0  0  1  0  0  0  0  0  0  0  0  0
    3.1826    3.4484    4.5687 H   0  0  0  0  0  0  0  0  0  0  0  0
    2.8700    1.6749    3.5431 O   0  0  0  0  0  0  0  0  0  0  0  0
   -1.1327    3.8272    0.0751 O   0  0  0  0  0  0  0  0  0  0  0  0
    0.4788    4.9280   -3.0424 O   0  0  0  0  0  0  0  0  0  0  0  0
    0.1321    2.3626   -3.9799 C   0  0  0  0  0  0  0  0  0  0  0  0
    1.2262    1.9604   -4.3465 O   0  0  0  0  0  0  0  0  0  0  0  0
   -0.9010    2.6548   -4.8052 N   0  0  0  0  0  0  0  0  0  0  0  0
   -0.7640    2.7810   -6.2516 C   0  0  1  0  0  0  0  0  0  0  0  0
   -0.0271    2.0337   -6.5751 H   0  0  0  0  0  0  0  0  0  0  0  0
   -2.1186    2.6722   -6.9090 C   0  0  0  0  0  0  0  0  0  0  0  0
   -2.6419    3.9558   -7.1487 C   0  0  0  0  0  0  0  0  0  0  0  0
   -3.9065    4.0958   -7.7223 C   0  0  0  0  0  0  0  0  0  0  0  0
   -4.6409    2.9483   -8.0442 C   0  0  0  0  0  0  0  0  0  0  0  0
   -4.1187    1.6725   -7.7972 C   0  0  0  0  0  0  0  0  0  0  0  0
   -2.8505    1.5279   -7.2235 C   0  0  0  0  0  0  0  0  0  0  0  0
   -1.6592    5.0140   -6.7109 C   0  0  0  0  0  0  0  0  0  0  0  0
   -0.3221    4.2318   -6.6515 C   0  0  1  0  0  0  0  0  0  0  0  0
    0.0640    4.1558   -7.6826 H   0  0  0  0  0  0  0  0  0  0  0  0
    0.6904    4.7978   -5.8910 O   0  0  0  0  0  0  0  0  0  0  0  0
    1.2895   -0.3848   -1.7562 H   0  0  0  0  0  0  0  0  0  0  0  0
    2.6654   -0.8269    0.2646 H   0  0  0  0  0  0  0  0  0  0  0  0
    1.7295   -0.3688    2.5389 H   0  0  0  0  0  0  0  0  0  0  0  0
   -0.6232    0.4561    2.7651 H   0  0  0  0  0  0  0  0  0  0  0  0
   -2.3203    0.2672   -1.7088 H   0  0  0  0  0  0  0  0  0  0  0  0
   -0.8767    0.1173   -2.7523 H   0  0  0  0  0  0  0  0  0  0  0  0
    3.7839    4.7435    0.3010 H   0  0  0  0  0  0  0  0  0  0  0  0
    4.1342    5.1025   -1.4051 H   0  0  0  0  0  0  0  0  0  0  0  0
    5.2591    0.2893    0.5739 H   0  0  0  0  0  0  0  0  0  0  0  0
    4.8193   -0.7283   -1.6841 H   0  0  0  0  0  0  0  0  0  0  0  0
    3.6835    0.6501   -3.4547 H   0  0  0  0  0  0  0  0  0  0  0  0
    3.1197    2.9958   -3.0127 H   0  0  0  0  0  0  0  0  0  0  0  0
    1.1280    2.4848    1.7076 H   0  0  0  0  0  0  0  0  0  0  0  0
   -0.6319    0.7317    6.6344 H   0  0  0  0  0  0  0  0  0  0  0  0
   -2.9229    0.8719    5.6624 H   0  0  0  0  0  0  0  0  0  0  0  0
   -3.3612    2.2786    3.6605 H   0  0  0  0  0  0  0  0  0  0  0  0
   -1.4925    3.5478    2.5811 H   0  0  0  0  0  0  0  0  0  0  0  0
    1.8061    2.8547    6.4148 H   0  0  0  0  0  0  0  0  0  0  0  0
    2.1221    1.2096    5.8237 H   0  0  0  0  0  0  0  0  0  0  0  0
    3.3518    2.0421    2.7868 H   0  0  0  0  0  0  0  0  0  0  0  0
   -1.4894    3.0633   -0.4100 H   0  0  0  0  0  0  0  0  0  0  0  0
    1.3398    5.0178   -2.5875 H   0  0  0  0  0  0  0  0  0  0  0  0
   -1.7821    2.9210   -4.3789 H   0  0  0  0  0  0  0  0  0  0  0  0
   -4.3195    5.0882   -7.9210 H   0  0  0  0  0  0  0  0  0  0  0  0
   -5.6309    3.0483   -8.4962 H   0  0  0  0  0  0  0  0  0  0  0  0
   -4.7033    0.7870   -8.0584 H   0  0  0  0  0  0  0  0  0  0  0  0
   -2.4374    0.5346   -7.0294 H   0  0  0  0  0  0  0  0  0  0  0  0
   -1.6115    5.8854   -7.3807 H   0  0  0  0  0  0  0  0  0  0  0  0
   -1.9092    5.3966   -5.7036 H   0  0  0  0  0  0  0  0  0  0  0  0
    0.4464    4.8426   -4.9469 H   0  0  0  0  0  0  0  0  0  0  0  0
  1  2  2  0
  1  6  1  0
  1  8  1  0
  2  3  1  0
  2 59  1  0
  3  4  2  0
  3 60  1  0
  4  5  1  0
  4 61  1  0
  5  6  2  0
  5 62  1  0
  6  7  1  0
  8  9  1  0
  8 63  1  0
  8 64  1  0
  9 10  1  0
 10 11  1  1
 10 12  1  0
 10 44  1  0
 12 13  1  6
 12 14  1  0
 12 43  1  0
 14 15  1  6
 14 16  1  0
 14 42  1  0
 16 17  1  1
 16 18  1  0
 16 27  1  0
 18 19  1  0
 19 20  1  0
 19 65  1  0
 19 66  1  0
 20 21  2  0
 20 25  1  0
 21 22  1  0
 21 26  1  0
 22 23  2  0
 22 67  1  0
 23 24  1  0
 23 68  1  0
 24 25  2  0
 24 69  1  0
 25 70  1  0
 27 28  2  0
 27 29  1  0
 29 30  1  0
 29 71  1  0
 30 31  1  6
 30 32  1  0
 30 39  1  0
 32 33  1  0
 32 37  2  0
 33 34  2  0
 33 38  1  0
 34 35  1  0
 34 72  1  0
 35 36  2  0
 35 73  1  0
 36 37  1  0
 36 74  1  0
 37 75  1  0
 38 39  1  0
 38 76  1  0
 38 77  1  0
 39 40  1  1
 39 41  1  0
 41 78  1  0
 42 79  1  0
 43 80  1  0
 44 45  2  0
 44 46  1  0
 46 47  1  0
 46 81  1  0
 47 48  1  6
 47 49  1  0
 47 56  1  0
 49 50  1  0
 49 54  2  0
 50 51  2  0
 50 55  1  0
 51 52  1  0
 51 82  1  0
 52 53  2  0
 52 83  1  0
 53 54  1  0
 53 84  1  0
 54 85  1  0
 55 56  1  0
 55 86  1  0
 55 87  1  0
 56 57  1  6
 56 58  1  0
 58 88  1  0
M  END

