88

C          0.92220        0.49750        0.83600
C          2.00770       -0.25830        1.29200
C          2.08660       -0.65720        2.62990
C          1.08430       -0.29640        3.53380
C         -0.00670        0.46280        3.09990
C         -0.06360        0.84330        1.76460
F         -1.11090        1.57860        1.33480
C          0.79760        0.98510       -0.59210
O          1.74110        0.42650       -1.47880
C          1.30720       -0.69160       -2.23710
H          0.24910       -0.57370       -2.49480
C          1.44860       -2.03140       -1.47510
H          0.86700       -1.90370       -0.54560
C          0.74590       -3.20760       -2.20540
H          0.71200       -4.05120       -1.48800
C          1.48760       -3.76750       -3.44820
H          1.77710       -2.93980       -4.10930
O          2.61930       -4.51220       -3.05520
C          3.89570       -4.06730       -3.50590
C          4.30960       -4.75800       -4.78760
C          3.82290       -4.35060       -6.03350
C          4.10790       -5.00760       -7.22180
C          4.94300       -6.12890       -7.17760
C          5.47120       -6.56150       -5.95700
C          5.14540       -5.88290       -4.77890
F          3.00650       -3.26380       -6.08290
C          0.58040       -4.62100       -4.34580
O         -0.53270       -4.21090       -4.70660
N          1.11300       -5.77230       -4.76710
C          0.55630       -6.59160       -5.82160
H         -0.52840       -6.70140       -5.65130
C          0.80500       -6.06630       -7.22690
C          1.21080       -7.10680       -8.07320
C          1.53770       -6.84120       -9.40430
C          1.44250       -5.52690       -9.87990
C          1.01020       -4.49400       -9.03740
C          0.68250       -4.76300       -7.70470
C          1.19580       -8.42010       -7.32330
C          1.25790       -7.98700       -5.84370
H          0.75760       -8.69620       -5.16980
O          2.58900       -7.89200       -5.37720
O         -0.55010       -2.74460       -2.51980
O          2.78140       -2.30360       -1.12540
C          2.20890       -0.68820       -3.47030
O          3.42760       -0.81120       -3.32150
N          1.65080       -0.60510       -4.69670
C          0.25410       -0.48710       -5.06040
H         -0.35000       -0.94660       -4.26510
C         -0.19810        0.92840       -5.33530
C         -1.00690        0.97190       -6.47580
C         -1.54910        2.18640       -6.89800
C         -1.26570        3.34710       -6.16800
C         -0.44860        3.29670       -5.03110
C          0.09540        2.07950       -4.60630
C         -1.15770       -0.40870       -7.07170
C         -0.06550       -1.25700       -6.38830
H         -0.42410       -2.26790       -6.14490
O          1.06580       -1.32670       -7.24340
H          2.77140       -0.56210        0.57610
H          2.93590       -1.25700        2.96370
H          1.14480       -0.60650        4.57950
H         -0.81130        0.76170        3.77410
H          0.95880        2.07730       -0.61020
H         -0.23320        0.81690       -0.95550
H          4.60690       -4.32110       -2.70800
H          3.90520       -2.97600       -3.63440
H          3.66790       -4.65490       -8.15450
H          5.17680       -6.65960       -8.10290
H          6.12200       -7.43710       -5.91910
H          5.53770       -6.23340       -3.82140
H          2.01630       -6.04900       -4.38780
H          1.86550       -7.64550      -10.06810
H          1.70200       -5.30680      -10.91830
H          0.93240       -3.46980       -9.40940
H          0.33600       -3.96980       -7.04690
H          0.25660       -8.96460       -7.52630
H          2.02510       -9.10020       -7.57130
H          3.13020       -7.42590       -6.03420
H         -0.87780       -3.25500       -3.29030
H          3.34730       -1.79080       -1.73590
H          2.30960       -0.56280       -5.47220
H         -2.17880        2.23630       -7.79020
H         -1.68000        4.30470       -6.49290
H         -0.23110        4.21330       -4.47770
H          0.74720        2.03000       -3.72960
H         -2.15660       -0.82320       -6.85210
H         -1.02370       -0.43210       -8.16360
H          1.59210       -2.10180       -7.00450
