
     RDKit          3D

 88 93  0  0  0  0  0  0  0  0999 V2000
    0.1756    0.0965   -0.2430 C   0  0  0  0  0  0  0  0  0  0  0  0
    1.5223   -0.1576    0.0524 C   0  0  0  0  0  0  0  0  0  0  0  0
    2.0262    0.0144    1.3421 C   0  0  0  0  0  0  0  0  0  0  0  0
    1.1764    0.4385    2.3698 C   0  0  0  0  0  0  0  0  0  0  0  0
   -0.1691    0.6940    2.1026 C   0  0  0  0  0  0  0  0  0  0  0  0
   -0.6441    0.5222    0.8046 C   0  0  0  0  0  0  0  0  0  0  0  0
   -1.9408    0.7672    0.5598 F   0  0  0  0  0  0  0  0  0  0  0  0
   -0.3713   -0.1309   -1.6346 C   0  0  0  0  0  0  0  0  0  0  0  0
   -0.0173   -1.4144   -2.1502 O   0  0  0  0  0  0  0  0  0  0  0  0
   -0.8257   -2.5262   -1.8042 C   0  0  2  0  0  0  0  0  0  0  0  0
   -0.3153   -3.3821   -2.2576 H   0  0  0  0  0  0  0  0  0  0  0  0
   -2.2444   -2.5031   -2.4081 C   0  0  1  0  0  0  0  0  0  0  0  0
   -2.1389   -2.1878   -3.4577 H   0  0  0  0  0  0  0  0  0  0  0  0
   -2.8324   -3.9246   -2.4267 C   0  0  2  0  0  0  0  0  0  0  0  0
   -2.1916   -4.5835   -3.0293 H   0  0  0  0  0  0  0  0  0  0  0  0
   -4.2469   -3.9400   -3.0096 C   0  0  1  0  0  0  0  0  0  0  0  0
   -4.8749   -3.2945   -2.3768 H   0  0  0  0  0  0  0  0  0  0  0  0
   -4.2971   -3.3464   -4.2957 O   0  0  0  0  0  0  0  0  0  0  0  0
   -3.9844   -4.1457   -5.4307 C   0  0  0  0  0  0  0  0  0  0  0  0
   -5.1836   -4.8974   -5.9664 C   0  0  0  0  0  0  0  0  0  0  0  0
   -6.3324   -4.2000   -6.3610 C   0  0  0  0  0  0  0  0  0  0  0  0
   -7.4732   -4.8437   -6.8308 C   0  0  0  0  0  0  0  0  0  0  0  0
   -7.4726   -6.2384   -6.9265 C   0  0  0  0  0  0  0  0  0  0  0  0
   -6.3378   -6.9639   -6.5539 C   0  0  0  0  0  0  0  0  0  0  0  0
   -5.2087   -6.2933   -6.0748 C   0  0  0  0  0  0  0  0  0  0  0  0
   -6.3318   -2.8612   -6.2973 F   0  0  0  0  0  0  0  0  0  0  0  0
   -4.7873   -5.3776   -2.9988 C   0  0  0  0  0  0  0  0  0  0  0  0
   -4.0696   -6.3443   -3.2188 O   0  0  0  0  0  0  0  0  0  0  0  0
   -6.1175   -5.4761   -2.7772 N   0  0  0  0  0  0  0  0  0  0  0  0
   -6.8205   -6.7323   -2.8428 C   0  0  1  0  0  0  0  0  0  0  0  0
   -6.3260   -7.3532   -3.6084 H   0  0  0  0  0  0  0  0  0  0  0  0
   -6.9004   -7.5142   -1.5447 C   0  0  0  0  0  0  0  0  0  0  0  0
   -8.1525   -8.1394   -1.4443 C   0  0  0  0  0  0  0  0  0  0  0  0
   -8.4546   -8.9276   -0.3335 C   0  0  0  0  0  0  0  0  0  0  0  0
   -7.4892   -9.0796    0.6701 C   0  0  0  0  0  0  0  0  0  0  0  0
   -6.2411   -8.4525    0.5627 C   0  0  0  0  0  0  0  0  0  0  0  0
   -5.9344   -7.6618   -0.5516 C   0  0  0  0  0  0  0  0  0  0  0  0
   -8.9899   -7.8081   -2.6637 C   0  0  0  0  0  0  0  0  0  0  0  0
   -8.3157   -6.5302   -3.2016 C   0  0  1  0  0  0  0  0  0  0  0  0
   -8.4569   -6.3748   -4.2791 H   0  0  0  0  0  0  0  0  0  0  0  0
   -8.8206   -5.3626   -2.5701 O   0  0  0  0  0  0  0  0  0  0  0  0
   -2.8557   -4.5208   -1.1241 O   0  0  0  0  0  0  0  0  0  0  0  0
   -3.1191   -1.5862   -1.7791 O   0  0  0  0  0  0  0  0  0  0  0  0
   -0.8799   -2.7379   -0.2783 C   0  0  0  0  0  0  0  0  0  0  0  0
   -1.8118   -2.2866    0.4032 O   0  0  0  0  0  0  0  0  0  0  0  0
    0.1265   -3.4131    0.3050 N   0  0  0  0  0  0  0  0  0  0  0  0
    1.2580   -4.0875   -0.3323 C   0  0  1  0  0  0  0  0  0  0  0  0
    1.6475   -3.4413   -1.1306 H   0  0  0  0  0  0  0  0  0  0  0  0
    2.2860   -4.4236    0.7233 C   0  0  0  0  0  0  0  0  0  0  0  0
    2.1124   -5.7487    1.1604 C   0  0  0  0  0  0  0  0  0  0  0  0
    2.9337   -6.2627    2.1647 C   0  0  0  0  0  0  0  0  0  0  0  0
    3.9170   -5.4404    2.7277 C   0  0  0  0  0  0  0  0  0  0  0  0
    4.0809   -4.1193    2.2928 C   0  0  0  0  0  0  0  0  0  0  0  0
    3.2603   -3.6005    1.2851 C   0  0  0  0  0  0  0  0  0  0  0  0
    0.9934   -6.4119    0.3954 C   0  0  0  0  0  0  0  0  0  0  0  0
    0.8761   -5.5141   -0.8576 C   0  0  1  0  0  0  0  0  0  0  0  0
    1.6854   -5.8014   -1.5499 H   0  0  0  0  0  0  0  0  0  0  0  0
   -0.3057   -5.6128   -1.5852 O   0  0  0  0  0  0  0  0  0  0  0  0
    2.1722   -0.5071   -0.7536 H   0  0  0  0  0  0  0  0  0  0  0  0
    3.0810   -0.1779    1.5501 H   0  0  0  0  0  0  0  0  0  0  0  0
    1.5613    0.5724    3.3833 H   0  0  0  0  0  0  0  0  0  0  0  0
   -0.8621    1.0186    2.8806 H   0  0  0  0  0  0  0  0  0  0  0  0
    0.0879    0.5864   -2.3330 H   0  0  0  0  0  0  0  0  0  0  0  0
   -1.4579    0.0184   -1.6573 H   0  0  0  0  0  0  0  0  0  0  0  0
   -3.1723   -4.8594   -5.2201 H   0  0  0  0  0  0  0  0  0  0  0  0
   -3.6275   -3.4303   -6.1882 H   0  0  0  0  0  0  0  0  0  0  0  0
   -8.3382   -4.2443   -7.1195 H   0  0  0  0  0  0  0  0  0  0  0  0
   -8.3615   -6.7545   -7.2968 H   0  0  0  0  0  0  0  0  0  0  0  0
   -6.3329   -8.0536   -6.6269 H   0  0  0  0  0  0  0  0  0  0  0  0
   -4.3356   -6.8569   -5.7425 H   0  0  0  0  0  0  0  0  0  0  0  0
   -6.6871   -4.6477   -2.6345 H   0  0  0  0  0  0  0  0  0  0  0  0
   -9.4293   -9.4142   -0.2412 H   0  0  0  0  0  0  0  0  0  0  0  0
   -7.7140   -9.6894    1.5487 H   0  0  0  0  0  0  0  0  0  0  0  0
   -5.5018   -8.5810    1.3570 H   0  0  0  0  0  0  0  0  0  0  0  0
   -4.9644   -7.1688   -0.6478 H   0  0  0  0  0  0  0  0  0  0  0  0
   -8.9221   -8.6169   -3.4132 H   0  0  0  0  0  0  0  0  0  0  0  0
  -10.0580   -7.6435   -2.4534 H   0  0  0  0  0  0  0  0  0  0  0  0
   -8.8433   -5.5317   -1.6158 H   0  0  0  0  0  0  0  0  0  0  0  0
   -3.1238   -3.8452   -0.4804 H   0  0  0  0  0  0  0  0  0  0  0  0
   -2.8965   -1.6042   -0.8253 H   0  0  0  0  0  0  0  0  0  0  0  0
    0.0551   -3.4703    1.3180 H   0  0  0  0  0  0  0  0  0  0  0  0
    2.8149   -7.2938    2.5068 H   0  0  0  0  0  0  0  0  0  0  0  0
    4.5666   -5.8345    3.5131 H   0  0  0  0  0  0  0  0  0  0  0  0
    4.8555   -3.4926    2.7410 H   0  0  0  0  0  0  0  0  0  0  0  0
    3.3767   -2.5702    0.9443 H   0  0  0  0  0  0  0  0  0  0  0  0
    1.1838   -7.4656    0.1440 H   0  0  0  0  0  0  0  0  0  0  0  0
    0.0482   -6.3798    0.9684 H   0  0  0  0  0  0  0  0  0  0  0  0
   -1.0967   -5.3863   -1.0582 H   0  0  0  0  0  0  0  0  0  0  0  0
  1  2  2  0
  1  6  1  0
  1  8  1  0
  2  3  1  0
  2 59  1  0
  3  4  2  0
  3 60  1  0
  4  5  1  0
  4 61  1  0
  5  6  2  0
  5 62  1  0
  6  7  1  0
  8  9  1  0
  8 63  1  0
  8 64  1  0
  9 10  1  0
 10 11  1  6
 10 12  1  0
 10 44  1  0
 12 13  1  6
 12 14  1  0
 12 43  1  0
 14 15  1  6
 14 16  1  0
 14 42  1  0
 16 17  1  1
 16 18  1  0
 16 27  1  0
 18 19  1  0
 19 20  1  0
 19 65  1  0
 19 66  1  0
 20 21  2  0
 20 25  1  0
 21 22  1  0
 21 26  1  0
 22 23  2  0
 22 67  1  0
 23 24  1  0
 23 68  1  0
 24 25  2  0
 24 69  1  0
 25 70  1  0
 27 28  2  0
 27 29  1  0
 29 30  1  0
 29 71  1  0
 30 31  1  6
 30 32  1  0
 30 39  1  0
 32 33  1  0
 32 37  2  0
 33 34  2  0
 33 38  1  0
 34 35  1  0
 34 72  1  0
 35 36  2  0
 35 73  1  0
 36 37  1  0
 36 74  1  0
 37 75  1  0
 38 39  1  0
 38 76  1  0
 38 77  1  0
 39 40  1  6
 39 41  1  0
 41 78  1  0
 42 79  1  0
 43 80  1  0
 44 45  2  0
 44 46  1  0
 46 47  1  0
 46 81  1  0
 47 48  1  6
 47 49  1  0
 47 56  1  0
 49 50  1  0
 49 54  2  0
 50 51  2  0
 50 55  1  0
 51 52  1  0
 51 82  1  0
 52 53  2  0
 52 83  1  0
 53 54  1  0
 53 84  1  0
 54 85  1  0
 55 56  1  0
 55 86  1  0
 55 87  1  0
 56 57  1  6
 56 58  1  0
 58 88  1  0
M  END

