
     RDKit          3D

 88 93  0  0  0  0  0  0  0  0999 V2000
   -0.3806    0.1255    0.5726 C   0  0  0  0  0  0  0  0  0  0  0  0
    0.9324    0.2514    1.0429 C   0  0  0  0  0  0  0  0  0  0  0  0
    1.1984    0.5177    2.3889 C   0  0  0  0  0  0  0  0  0  0  0  0
    0.1407    0.6738    3.2879 C   0  0  0  0  0  0  0  0  0  0  0  0
   -1.1799    0.5598    2.8443 C   0  0  0  0  0  0  0  0  0  0  0  0
   -1.4134    0.2867    1.5028 C   0  0  0  0  0  0  0  0  0  0  0  0
   -2.6887    0.1688    1.0799 F   0  0  0  0  0  0  0  0  0  0  0  0
   -0.6944   -0.1357   -0.8804 C   0  0  0  0  0  0  0  0  0  0  0  0
   -1.5195    0.8664   -1.4548 O   0  0  0  0  0  0  0  0  0  0  0  0
   -0.9558    2.1662   -1.5216 C   0  0  2  0  0  0  0  0  0  0  0  0
   -0.2423    2.3374   -0.7010 H   0  0  0  0  0  0  0  0  0  0  0  0
   -2.1280    3.1514   -1.3303 C   0  0  1  0  0  0  0  0  0  0  0  0
   -1.7176    4.1709   -1.2983 H   0  0  0  0  0  0  0  0  0  0  0  0
   -3.1485    3.0276   -2.5058 C   0  0  2  0  0  0  0  0  0  0  0  0
   -3.0234    2.0549   -2.9992 H   0  0  0  0  0  0  0  0  0  0  0  0
   -2.8643    4.0934   -3.5927 C   0  0  1  0  0  0  0  0  0  0  0  0
   -1.7815    4.1966   -3.7629 H   0  0  0  0  0  0  0  0  0  0  0  0
   -3.5268    3.6432   -4.7716 O   0  0  0  0  0  0  0  0  0  0  0  0
   -3.5288    4.5072   -5.8962 C   0  0  0  0  0  0  0  0  0  0  0  0
   -4.9297    4.6408   -6.4417 C   0  0  0  0  0  0  0  0  0  0  0  0
   -5.1995    5.5909   -7.4300 C   0  0  0  0  0  0  0  0  0  0  0  0
   -6.4707    5.7810   -7.9601 C   0  0  0  0  0  0  0  0  0  0  0  0
   -7.5202    4.9848   -7.4908 C   0  0  0  0  0  0  0  0  0  0  0  0
   -7.2816    4.0237   -6.5055 C   0  0  0  0  0  0  0  0  0  0  0  0
   -5.9946    3.8542   -5.9864 C   0  0  0  0  0  0  0  0  0  0  0  0
   -4.1801    6.3513   -7.8722 F   0  0  0  0  0  0  0  0  0  0  0  0
   -3.3528    5.4538   -3.0909 C   0  0  0  0  0  0  0  0  0  0  0  0
   -2.6040    6.2140   -2.4975 O   0  0  0  0  0  0  0  0  0  0  0  0
   -4.6745    5.7019   -3.2924 N   0  0  0  0  0  0  0  0  0  0  0  0
   -5.3261    6.7868   -2.5989 C   0  0  1  0  0  0  0  0  0  0  0  0
   -4.7068    7.6899   -2.7368 H   0  0  0  0  0  0  0  0  0  0  0  0
   -6.7436    7.0319   -3.0613 C   0  0  0  0  0  0  0  0  0  0  0  0
   -7.5438    7.4105   -1.9709 C   0  0  0  0  0  0  0  0  0  0  0  0
   -8.8975    7.6870   -2.1603 C   0  0  0  0  0  0  0  0  0  0  0  0
   -9.4403    7.5758   -3.4474 C   0  0  0  0  0  0  0  0  0  0  0  0
   -8.6378    7.1959   -4.5297 C   0  0  0  0  0  0  0  0  0  0  0  0
   -7.2775    6.9229   -4.3437 C   0  0  0  0  0  0  0  0  0  0  0  0
   -6.7091    7.4515   -0.7080 C   0  0  0  0  0  0  0  0  0  0  0  0
   -5.5012    6.5604   -1.0613 C   0  0  1  0  0  0  0  0  0  0  0  0
   -4.5861    6.8135   -0.5128 H   0  0  0  0  0  0  0  0  0  0  0  0
   -5.7577    5.1959   -0.7646 O   0  0  0  0  0  0  0  0  0  0  0  0
   -4.4850    3.0543   -2.0830 O   0  0  0  0  0  0  0  0  0  0  0  0
   -2.7394    2.9254   -0.0887 O   0  0  0  0  0  0  0  0  0  0  0  0
   -0.2337    2.4229   -2.8458 C   0  0  0  0  0  0  0  0  0  0  0  0
    0.5060    3.3872   -2.9876 O   0  0  0  0  0  0  0  0  0  0  0  0
   -0.5757    1.5729   -3.8422 N   0  0  0  0  0  0  0  0  0  0  0  0
   -0.3097    1.8802   -5.2363 C   0  0  1  0  0  0  0  0  0  0  0  0
   -0.2558    2.9773   -5.3175 H   0  0  0  0  0  0  0  0  0  0  0  0
    0.9462    1.2322   -5.7746 C   0  0  0  0  0  0  0  0  0  0  0  0
    0.6300    0.1258   -6.5757 C   0  0  0  0  0  0  0  0  0  0  0  0
    1.6512   -0.6267   -7.1585 C   0  0  0  0  0  0  0  0  0  0  0  0
    2.9824   -0.2617   -6.9244 C   0  0  0  0  0  0  0  0  0  0  0  0
    3.2911    0.8402   -6.1156 C   0  0  0  0  0  0  0  0  0  0  0  0
    2.2699    1.5973   -5.5313 C   0  0  0  0  0  0  0  0  0  0  0  0
   -0.8644   -0.0718   -6.6430 C   0  0  0  0  0  0  0  0  0  0  0  0
   -1.4351    1.2687   -6.1400 C   0  0  1  0  0  0  0  0  0  0  0  0
   -1.5490    1.9477   -7.0073 H   0  0  0  0  0  0  0  0  0  0  0  0
   -2.6597    1.0676   -5.4868 O   0  0  0  0  0  0  0  0  0  0  0  0
    1.7570    0.1437    0.3333 H   0  0  0  0  0  0  0  0  0  0  0  0
    2.2304    0.6131    2.7324 H   0  0  0  0  0  0  0  0  0  0  0  0
    0.3392    0.8907    4.3398 H   0  0  0  0  0  0  0  0  0  0  0  0
   -2.0296    0.6809    3.5180 H   0  0  0  0  0  0  0  0  0  0  0  0
   -1.2629   -1.0714   -0.9918 H   0  0  0  0  0  0  0  0  0  0  0  0
    0.2473   -0.2395   -1.4497 H   0  0  0  0  0  0  0  0  0  0  0  0
   -2.8530    4.0994   -6.6711 H   0  0  0  0  0  0  0  0  0  0  0  0
   -3.1371    5.5027   -5.6334 H   0  0  0  0  0  0  0  0  0  0  0  0
   -6.6193    6.5448   -8.7252 H   0  0  0  0  0  0  0  0  0  0  0  0
   -8.5248    5.1214   -7.8970 H   0  0  0  0  0  0  0  0  0  0  0  0
   -8.1010    3.4056   -6.1334 H   0  0  0  0  0  0  0  0  0  0  0  0
   -5.7986    3.1142   -5.2089 H   0  0  0  0  0  0  0  0  0  0  0  0
   -5.2415    4.9058   -3.5669 H   0  0  0  0  0  0  0  0  0  0  0  0
   -9.5300    7.9781   -1.3177 H   0  0  0  0  0  0  0  0  0  0  0  0
  -10.5017    7.7812   -3.6061 H   0  0  0  0  0  0  0  0  0  0  0  0
   -9.0732    7.1044   -5.5273 H   0  0  0  0  0  0  0  0  0  0  0  0
   -6.6526    6.6211   -5.1849 H   0  0  0  0  0  0  0  0  0  0  0  0
   -6.3713    8.4830   -0.5028 H   0  0  0  0  0  0  0  0  0  0  0  0
   -7.2276    7.0910    0.1933 H   0  0  0  0  0  0  0  0  0  0  0  0
   -6.5895    4.9396   -1.1918 H   0  0  0  0  0  0  0  0  0  0  0  0
   -4.6074    3.7214   -1.3795 H   0  0  0  0  0  0  0  0  0  0  0  0
   -3.0480    2.0052   -0.0823 H   0  0  0  0  0  0  0  0  0  0  0  0
   -1.2733    0.8632   -3.6377 H   0  0  0  0  0  0  0  0  0  0  0  0
    1.4185   -1.4887   -7.7894 H   0  0  0  0  0  0  0  0  0  0  0  0
    3.7898   -0.8416   -7.3786 H   0  0  0  0  0  0  0  0  0  0  0  0
    4.3360    1.1106   -5.9446 H   0  0  0  0  0  0  0  0  0  0  0  0
    2.4888    2.4559   -4.8922 H   0  0  0  0  0  0  0  0  0  0  0  0
   -1.2336   -0.3365   -7.6454 H   0  0  0  0  0  0  0  0  0  0  0  0
   -1.1922   -0.8733   -5.9571 H   0  0  0  0  0  0  0  0  0  0  0  0
   -3.0514    1.9347   -5.2632 H   0  0  0  0  0  0  0  0  0  0  0  0
  1  2  2  0
  1  6  1  0
  1  8  1  0
  2  3  1  0
  2 59  1  0
  3  4  2  0
  3 60  1  0
  4  5  1  0
  4 61  1  0
  5  6  2  0
  5 62  1  0
  6  7  1  0
  8  9  1  0
  8 63  1  0
  8 64  1  0
  9 10  1  0
 10 11  1  1
 10 12  1  0
 10 44  1  0
 12 13  1  1
 12 14  1  0
 12 43  1  0
 14 15  1  6
 14 16  1  0
 14 42  1  0
 16 17  1  6
 16 18  1  0
 16 27  1  0
 18 19  1  0
 19 20  1  0
 19 65  1  0
 19 66  1  0
 20 21  2  0
 20 25  1  0
 21 22  1  0
 21 26  1  0
 22 23  2  0
 22 67  1  0
 23 24  1  0
 23 68  1  0
 24 25  2  0
 24 69  1  0
 25 70  1  0
 27 28  2  0
 27 29  1  0
 29 30  1  0
 29 71  1  0
 30 31  1  1
 30 32  1  0
 30 39  1  0
 32 33  1  0
 32 37  2  0
 33 34  2  0
 33 38  1  0
 34 35  1  0
 34 72  1  0
 35 36  2  0
 35 73  1  0
 36 37  1  0
 36 74  1  0
 37 75  1  0
 38 39  1  0
 38 76  1  0
 38 77  1  0
 39 40  1  1
 39 41  1  0
 41 78  1  0
 42 79  1  0
 43 80  1  0
 44 45  2  0
 44 46  1  0
 46 47  1  0
 46 81  1  0
 47 48  1  1
 47 49  1  0
 47 56  1  0
 49 50  1  0
 49 54  2  0
 50 51  2  0
 50 55  1  0
 51 52  1  0
 51 82  1  0
 52 53  2  0
 52 83  1  0
 53 54  1  0
 53 84  1  0
 54 85  1  0
 55 56  1  0
 55 86  1  0
 55 87  1  0
 56 57  1  6
 56 58  1  0
 58 88  1  0
M  END

