88

C         -0.43950        0.26920       -0.64930
C          0.87120       -0.21450       -0.76130
C          1.64610       -0.45990        0.37520
C          1.11920       -0.22210        1.64750
C         -0.18630        0.25970        1.78720
C         -0.93290        0.50270        0.64040
F         -2.17920        0.99750        0.76480
C         -1.28490        0.60410       -1.85070
O         -1.37800        2.01740       -2.05860
C         -0.16880        2.62540       -2.49980
H          0.69390        2.21790       -1.95440
C         -0.34290        4.13430       -2.21930
H         -1.38990        4.37890       -2.46830
C         -0.15620        4.45840       -0.72260
H         -0.25200        5.55070       -0.60180
C          1.24570        4.07520       -0.21630
H          1.38150        2.98330       -0.31200
O          2.18900        4.75080       -1.02630
C          3.55020        4.45560       -0.73430
C          3.88610        3.00480       -0.98910
C          4.44710        2.19070       -0.00360
C          4.80440        0.86650       -0.23290
C          4.54970        0.31240       -1.48980
C          3.93070        1.07900       -2.48250
C          3.61400        2.41430       -2.23250
F          4.64470        2.70170        1.23910
C          1.40430        4.46170        1.25970
O          1.56600        5.61620        1.61030
N          1.35240        3.39440        2.09780
C          1.22970        3.51410        3.53220
H          1.26800        4.59180        3.75690
C         -0.04370        2.87900        4.04460
C          0.21430        2.08870        5.17000
C         -0.82070        1.36310        5.76220
C         -2.10710        1.44340        5.21290
C         -2.35660        2.24050        4.08760
C         -1.32040        2.96630        3.49010
C          1.67340        2.17730        5.55340
C          2.36460        2.75570        4.30340
H          3.18260        3.44840        4.56870
O          2.87000        1.67490        3.54310
O         -1.13270        3.82720        0.07510
O          0.47880        4.92800       -3.04240
C          0.13210        2.36260       -3.97990
O          1.22620        1.96040       -4.34650
N         -0.90100        2.65480       -4.80520
C         -0.76400        2.78100       -6.25160
H         -0.02710        2.03370       -6.57510
C         -2.11860        2.67220       -6.90900
C         -2.64190        3.95580       -7.14870
C         -3.90650        4.09580       -7.72230
C         -4.64090        2.94830       -8.04420
C         -4.11870        1.67250       -7.79720
C         -2.85050        1.52790       -7.22350
C         -1.65920        5.01400       -6.71090
C         -0.32210        4.23180       -6.65150
H          0.06400        4.15580       -7.68260
O          0.69040        4.79780       -5.89100
H          1.28950       -0.38480       -1.75620
H          2.66540       -0.82690        0.26460
H          1.72950       -0.36880        2.53890
H         -0.62320        0.45610        2.76510
H         -2.32030        0.26720       -1.70880
H         -0.87670        0.11730       -2.75230
H          3.78390        4.74350        0.30100
H          4.13420        5.10250       -1.40510
H          5.25910        0.28930        0.57390
H          4.81930       -0.72830       -1.68410
H          3.68350        0.65010       -3.45470
H          3.11970        2.99580       -3.01270
H          1.12800        2.48480        1.70760
H         -0.63190        0.73170        6.63440
H         -2.92290        0.87190        5.66240
H         -3.36120        2.27860        3.66050
H         -1.49250        3.54780        2.58110
H          1.80610        2.85470        6.41480
H          2.12210        1.20960        5.82370
H          3.35180        2.04210        2.78680
H         -1.48940        3.06330       -0.41000
H          1.33980        5.01780       -2.58750
H         -1.78210        2.92100       -4.37890
H         -4.31950        5.08820       -7.92100
H         -5.63090        3.04830       -8.49620
H         -4.70330        0.78700       -8.05840
H         -2.43740        0.53460       -7.02940
H         -1.61150        5.88540       -7.38070
H         -1.90920        5.39660       -5.70360
H          0.44640        4.84260       -4.94690
