rmsd243.gzmat
 OpenBabel08211713413D

 88 93  0  0  1  0  0  0  0  0999 V2000
    0.0000    0.0000    0.0000 C   0  0  0  0  0  0  0  0  0  0  0  0
    1.3964    0.0000    0.0000 C   0  0  0  0  0  0  0  0  0  0  0  0
    2.1084    0.0000    1.1973 C   0  0  0  0  0  0  0  0  0  0  0  0
    1.4356    0.0076    2.4186 C   0  0  0  0  0  0  0  0  0  0  0  0
    0.0433    0.0152    2.4512 C   0  0  0  0  0  0  0  0  0  0  0  0
   -0.6445    0.0109    1.2385 C   0  0  0  0  0  0  0  0  0  0  0  0
   -1.9683    0.0211    1.2778 F   0  0  0  0  0  0  0  0  0  0  0  0
   -0.7559   -0.0007   -1.2910 C   0  0  0  0  0  0  0  0  0  0  0  0
   -0.0512   -0.6739   -2.3247 O   0  0  0  0  0  0  0  0  0  0  0  0
    0.1212   -2.0581   -2.1240 C   0  0  2  0  0  0  0  0  0  0  0  0
    0.5390   -2.2579   -1.1081 H   0  0  0  0  0  0  0  0  0  0  0  0
    1.1204   -2.4872   -3.2250 C   0  0  1  0  0  0  0  0  0  0  0  0
    0.6280   -2.5600   -4.2232 H   0  0  0  0  0  0  0  0  0  0  0  0
    2.3426   -1.5505   -3.2685 C   0  0  2  0  0  0  0  0  0  0  0  0
    2.0450   -0.4772   -3.2902 H   0  0  0  0  0  0  0  0  0  0  0  0
    3.2272   -1.9226   -4.4863 C   0  0  1  0  0  0  0  0  0  0  0  0
    3.5029   -3.0033   -4.4426 H   0  0  0  0  0  0  0  0  0  0  0  0
    2.4649   -1.5955   -5.6266 O   0  0  0  0  0  0  0  0  0  0  0  0
    2.4247   -2.5893   -6.6419 C   0  0  0  0  0  0  0  0  0  0  0  0
    3.5816   -2.4120   -7.5758 C   0  0  0  0  0  0  0  0  0  0  0  0
    4.7680   -3.1389   -7.4609 C   0  0  0  0  0  0  0  0  0  0  0  0
    5.8562   -2.9584   -8.3139 C   0  0  0  0  0  0  0  0  0  0  0  0
    5.7464   -2.0148   -9.3309 C   0  0  0  0  0  0  0  0  0  0  0  0
    4.5711   -1.2775   -9.4786 C   0  0  0  0  0  0  0  0  0  0  0  0
    3.5028   -1.4708   -8.6058 C   0  0  0  0  0  0  0  0  0  0  0  0
    4.8811   -4.0416   -6.4993 F   0  0  0  0  0  0  0  0  0  0  0  0
    4.5026   -1.0804   -4.4471 C   0  0  0  0  0  0  0  0  0  0  0  0
    5.2504   -1.1581   -3.4780 O   0  0  0  0  0  0  0  0  0  0  0  0
    4.7607   -0.2654   -5.5036 N   0  0  0  0  0  0  0  0  0  0  0  0
    6.0074    0.4844   -5.5839 C   0  0  1  0  0  0  0  0  0  0  0  0
    6.2567    0.9061   -4.5710 H   0  0  0  0  0  0  0  0  0  0  0  0
    7.1692   -0.3369   -6.0906 C   0  0  0  0  0  0  0  0  0  0  0  0
    7.8623    0.3481   -7.1035 C   0  0  0  0  0  0  0  0  0  0  0  0
    8.9572   -0.2285   -7.7216 C   0  0  0  0  0  0  0  0  0  0  0  0
    9.3620   -1.5037   -7.3086 C   0  0  0  0  0  0  0  0  0  0  0  0
    8.6868   -2.1718   -6.2912 C   0  0  0  0  0  0  0  0  0  0  0  0
    7.5806   -1.5857   -5.6653 C   0  0  0  0  0  0  0  0  0  0  0  0
    7.2563    1.6900   -7.3659 C   0  0  0  0  0  0  0  0  0  0  0  0
    5.8859    1.6445   -6.6474 C   0  0  1  0  0  0  0  0  0  0  0  0
    5.5652    2.6029   -6.1989 H   0  0  0  0  0  0  0  0  0  0  0  0
    4.8650    1.3622   -7.5672 O   0  0  0  0  0  0  0  0  0  0  0  0
    3.0480   -1.8023   -2.0737 O   0  0  0  0  0  0  0  0  0  0  0  0
    1.5397   -3.8053   -2.9438 O   0  0  0  0  0  0  0  0  0  0  0  0
   -1.2167   -2.7876   -2.2965 C   0  0  0  0  0  0  0  0  0  0  0  0
   -2.2778   -2.2012   -2.3991 O   0  0  0  0  0  0  0  0  0  0  0  0
   -1.1337   -4.1625   -2.2293 N   0  0  0  0  0  0  0  0  0  0  0  0
   -2.3112   -5.0180   -2.2526 C   0  0  1  0  0  0  0  0  0  0  0  0
   -1.9712   -6.0661   -2.0320 H   0  0  0  0  0  0  0  0  0  0  0  0
   -3.3559   -4.6143   -1.2399 C   0  0  0  0  0  0  0  0  0  0  0  0
   -4.6451   -4.6731   -1.7953 C   0  0  0  0  0  0  0  0  0  0  0  0
   -5.7547   -4.3531   -1.0322 C   0  0  0  0  0  0  0  0  0  0  0  0
   -5.5617   -3.9616    0.2977 C   0  0  0  0  0  0  0  0  0  0  0  0
   -4.2829   -3.8981    0.8441 C   0  0  0  0  0  0  0  0  0  0  0  0
   -3.1623   -4.2302    0.0744 C   0  0  0  0  0  0  0  0  0  0  0  0
   -4.6073   -5.0783   -3.2324 C   0  0  0  0  0  0  0  0  0  0  0  0
   -3.1045   -5.0351   -3.6252 C   0  0  1  0  0  0  0  0  0  0  0  0
   -2.7950   -5.8746   -4.2743 H   0  0  0  0  0  0  0  0  0  0  0  0
   -2.8492   -3.9101   -4.4027 O   0  0  0  0  0  0  0  0  0  0  0  0
    1.9350   -0.0140   -0.9534 H   0  0  0  0  0  0  0  0  0  0  0  0
    3.1967   -0.0078    1.1766 H   0  0  0  0  0  0  0  0  0  0  0  0
    1.9991    0.0075    3.3501 H   0  0  0  0  0  0  0  0  0  0  0  0
   -0.4909    0.0236    3.3985 H   0  0  0  0  0  0  0  0  0  0  0  0
   -0.8307    1.0220   -1.7215 H   0  0  0  0  0  0  0  0  0  0  0  0
   -1.7812   -0.4184   -1.2106 H   0  0  0  0  0  0  0  0  0  0  0  0
    1.4522   -2.3583   -7.1330 H   0  0  0  0  0  0  0  0  0  0  0  0
    2.3502   -3.6052   -6.2115 H   0  0  0  0  0  0  0  0  0  0  0  0
    6.7739   -3.5320   -8.1840 H   0  0  0  0  0  0  0  0  0  0  0  0
    6.5819   -1.8545  -10.0132 H   0  0  0  0  0  0  0  0  0  0  0  0
    4.4846   -0.5543  -10.2891 H   0  0  0  0  0  0  0  0  0  0  0  0
    2.5910   -0.8809   -8.7273 H   0  0  0  0  0  0  0  0  0  0  0  0
    4.1129   -0.1837   -6.2851 H   0  0  0  0  0  0  0  0  0  0  0  0
    9.4957    0.2927   -8.5070 H   0  0  0  0  0  0  0  0  0  0  0  0
   10.2203   -1.9728   -7.7864 H   0  0  0  0  0  0  0  0  0  0  0  0
    9.0223   -3.1566   -5.9700 H   0  0  0  0  0  0  0  0  0  0  0  0
    7.0612   -2.0990   -4.8540 H   0  0  0  0  0  0  0  0  0  0  0  0
    7.8934    2.5016   -6.9671 H   0  0  0  0  0  0  0  0  0  0  0  0
    7.1343    1.9069   -8.4426 H   0  0  0  0  0  0  0  0  0  0  0  0
    5.1188    0.6220   -8.1651 H   0  0  0  0  0  0  0  0  0  0  0  0
    4.0143   -1.5853   -2.1890 H   0  0  0  0  0  0  0  0  0  0  0  0
    2.2405   -3.7899   -2.2449 H   0  0  0  0  0  0  0  0  0  0  0  0
   -0.2301   -4.6064   -2.3721 H   0  0  0  0  0  0  0  0  0  0  0  0
   -6.7538   -4.3921   -1.4556 H   0  0  0  0  0  0  0  0  0  0  0  0
   -6.4235   -3.6956    0.9068 H   0  0  0  0  0  0  0  0  0  0  0  0
   -4.1480   -3.5795    1.8757 H   0  0  0  0  0  0  0  0  0  0  0  0
   -2.1627   -4.1714    0.4981 H   0  0  0  0  0  0  0  0  0  0  0  0
   -5.0395   -6.0805   -3.3896 H   0  0  0  0  0  0  0  0  0  0  0  0
   -5.1860   -4.3884   -3.8770 H   0  0  0  0  0  0  0  0  0  0  0  0
   -2.9575   -3.0829   -3.8664 H   0  0  0  0  0  0  0  0  0  0  0  0
  1  6  1  0  0  0  0
  2  1  2  0  0  0  0
  2  3  1  0  0  0  0
  3  4  2  0  0  0  0
  4  5  1  0  0  0  0
  4 61  1  0  0  0  0
  5 62  1  0  0  0  0
  6  7  1  0  0  0  0
  6  5  2  0  0  0  0
  8 64  1  0  0  0  0
  8  1  1  0  0  0  0
  9 10  1  0  0  0  0
  9  8  1  0  0  0  0
 10 11  1  1  0  0  0
 12 13  1  6  0  0  0
 12 43  1  0  0  0  0
 12 10  1  0  0  0  0
 14 15  1  6  0  0  0
 14 12  1  0  0  0  0
 14 42  1  0  0  0  0
 16 27  1  0  0  0  0
 16 17  1  1  0  0  0
 16 14  1  0  0  0  0
 18 16  1  0  0  0  0
 19 66  1  0  0  0  0
 19 18  1  0  0  0  0
 20 21  1  0  0  0  0
 20 19  1  0  0  0  0
 21 26  1  0  0  0  0
 22 67  1  0  0  0  0
 22 21  2  0  0  0  0
 23 22  1  0  0  0  0
 24 23  2  0  0  0  0
 24 25  1  0  0  0  0
 25 20  2  0  0  0  0
 27 28  2  0  0  0  0
 29 27  1  0  0  0  0
 30 39  1  0  0  0  0
 30 29  1  0  0  0  0
 30 31  1  1  0  0  0
 32 37  1  0  0  0  0
 32 30  1  0  0  0  0
 33 32  2  0  0  0  0
 34 35  2  0  0  0  0
 34 33  1  0  0  0  0
 35 36  1  0  0  0  0
 36 74  1  0  0  0  0
 36 37  2  0  0  0  0
 37 75  1  0  0  0  0
 38 33  1  0  0  0  0
 38 76  1  0  0  0  0
 38 39  1  0  0  0  0
 39 40  1  1  0  0  0
 41 39  1  0  0  0  0
 43 80  1  0  0  0  0
 44 46  1  0  0  0  0
 44 10  1  0  0  0  0
 45 44  2  0  0  0  0
 47 56  1  0  0  0  0
 47 46  1  0  0  0  0
 47 48  1  1  0  0  0
 47 49  1  0  0  0  0
 49 54  1  0  0  0  0
 50 49  2  0  0  0  0
 50 51  1  0  0  0  0
 51 52  2  0  0  0  0
 52 53  1  0  0  0  0
 52 83  1  0  0  0  0
 53 84  1  0  0  0  0
 54 85  1  0  0  0  0
 54 53  2  0  0  0  0
 55 50  1  0  0  0  0
 56 57  1  6  0  0  0
 56 55  1  0  0  0  0
 58 88  1  0  0  0  0
 58 56  1  0  0  0  0
 59  2  1  0  0  0  0
 60  3  1  0  0  0  0
 63  8  1  0  0  0  0
 65 19  1  0  0  0  0
 68 23  1  0  0  0  0
 69 24  1  0  0  0  0
 70 25  1  0  0  0  0
 71 29  1  0  0  0  0
 72 34  1  0  0  0  0
 73 35  1  0  0  0  0
 77 38  1  0  0  0  0
 78 41  1  0  0  0  0
 79 42  1  0  0  0  0
 81 46  1  0  0  0  0
 82 51  1  0  0  0  0
 86 55  1  0  0  0  0
 87 55  1  0  0  0  0
M  END
$$$$
