88
rmsd164.gzmat
C          0.00000        0.00000        0.00000
C          1.39450        0.00000        0.00000
C          2.10060        0.00000        1.20250
C          1.42450        0.00340        2.42120
C          0.03080        0.00760        2.45130
C         -0.64940        0.00510        1.23730
F         -1.97530        0.00750        1.25650
C         -0.78720        0.01690       -1.27390
O          0.09870        0.11450       -2.37710
C          0.24580       -1.05050       -3.17080
H         -0.76230       -1.36960       -3.54560
C          0.89130       -2.20660       -2.37580
H          0.51360       -2.18430       -1.31990
C          0.54800       -3.59110       -2.98590
H          0.82250       -4.39210       -2.26040
C          1.18070       -3.89010       -4.36960
H          0.88590       -3.12360       -5.12350
O          2.57450       -3.94340       -4.18010
C          3.35390       -3.50990       -5.29610
C          4.00350       -4.71330       -5.90480
C          3.77930       -5.11820       -7.22230
C          4.39300       -6.23770       -7.78460
C          5.26560       -6.97810       -6.99270
C          5.50910       -6.59990       -5.67160
C          4.88180       -5.47870       -5.13300
F          2.95010       -4.41940       -7.98100
C          0.63980       -5.25650       -4.81270
O         -0.54770       -5.36900       -5.09720
N          1.49460       -6.31290       -4.82870
C          1.05740       -7.61900       -5.30020
H         -0.02360       -7.77490       -5.02750
C          1.23590       -7.79980       -6.78840
C          1.85870       -9.02690       -7.07310
C          2.13480       -9.38880       -8.37950
C          1.77410       -8.50780       -9.40620
C          1.14040       -7.30100       -9.12250
C          0.85860       -6.93790       -7.80050
C          2.14530       -9.79450       -5.82190
C          1.94530       -8.76710       -4.68020
H          1.51250       -9.18550       -3.75280
O          3.18320       -8.26230       -4.25850
O         -0.85640       -3.56320       -3.11330
O          2.26610       -2.06370       -2.21110
C          1.10130       -0.56390       -4.34200
O          2.08860       -1.17330       -4.72930
N          0.70590        0.52130       -5.08580
C         -0.34220        1.46400       -4.71620
H         -1.05940        1.00360       -3.99100
C          0.22650        2.74640       -4.16010
C         -0.08540        3.84530       -4.97570
C          0.34010        5.11840       -4.63480
C          1.08950        5.28180       -3.46450
C          1.40270        4.18950       -2.65930
C          0.97030        2.90450       -3.00470
C         -0.87980        3.44300       -6.17470
C         -1.12770        1.92620       -6.01240
H         -2.20190        1.67290       -5.93120
O         -0.60980        1.33510       -7.17860
H          1.93930       -0.01830       -0.95230
H          3.18940       -0.00890        1.18470
H          1.98410        0.00090        3.35540
H         -0.50520        0.01280        3.39750
H         -1.38370        0.95270       -1.36280
H         -1.46920       -0.85110       -1.35900
H          4.10200       -2.83260       -4.82650
H          2.76920       -2.89890       -6.00880
H          4.18930       -6.53170       -8.81400
H          5.76390       -7.85290       -7.41000
H          6.20200       -7.17800       -5.06110
H          5.07450       -5.18900       -4.09680
H          2.46860       -6.21400       -4.55190
H          2.61880      -10.33310       -8.60870
H          1.98880       -8.77540      -10.43910
H          0.85900       -6.63000       -9.93230
H          0.35060       -5.99970       -7.57320
H          1.45910      -10.65500       -5.71350
H          3.16500      -10.21900       -5.79890
H          3.75710       -8.03360       -5.02550
H         -1.17140       -4.24210       -3.76650
H          2.71980       -2.11170       -3.09270
H          1.32650        0.83770       -5.83490
H          0.10190        5.97320       -5.26060
H          1.43180        6.27660       -3.18350
H          1.98870        4.33170       -1.75330
H          1.21980        2.04900       -2.37500
H         -1.82450        4.00530       -6.26480
H         -0.32020        3.63570       -7.11660
H         -0.69100        0.35750       -7.14340
