rmsd185.gzmat
 OpenBabel08211713423D

 43 45  0  0  1  0  0  0  0  0999 V2000
    0.0000    0.0000    0.0000 C   0  0  0  0  0  0  0  0  0  0  0  0
    1.4225    0.0000    0.0000 O   0  0  0  0  0  0  0  0  0  0  0  0
    2.0245    0.0000    1.2217 C   0  0  0  0  0  0  0  0  0  0  0  0
    1.3832   -0.0093    2.2394 O   0  0  0  0  0  0  0  0  0  0  0  0
    3.5103    0.0289    1.0088 C   0  0  2  0  0  0  0  0  0  0  0  0
    3.7196    0.6897    0.1212 H   0  0  0  0  0  0  0  0  0  0  0  0
    4.0502   -1.3986    0.6862 C   0  0  2  0  0  0  0  0  0  0  0  0
    3.5018   -1.8293   -0.1780 H   0  0  0  0  0  0  0  0  0  0  0  0
    4.0153   -2.3329    1.8309 N   0  0  0  0  0  0  0  0  0  0  0  0
    2.7076   -2.6958    2.3805 C   0  0  0  0  0  0  0  0  0  0  0  0
    4.9848   -1.7336    2.7817 C   0  0  1  0  0  0  0  0  0  0  0  0
    5.2027   -2.4538    3.5966 H   0  0  0  0  0  0  0  0  0  0  0  0
    6.2101   -1.5019    1.8471 C   0  0  0  0  0  0  0  0  0  0  0  0
    5.5879   -1.3002    0.4420 C   0  0  0  0  0  0  0  0  0  0  0  0
    4.4790   -0.3917    3.3598 C   0  0  0  0  0  0  0  0  0  0  0  0
    4.2539    0.6159    2.2277 C   0  0  2  0  0  0  0  0  0  0  0  0
    5.2145    1.0793    1.8994 H   0  0  0  0  0  0  0  0  0  0  0  0
    3.4384    1.6298    2.8197 O   0  0  0  0  0  0  0  0  0  0  0  0
    3.3584    2.8216    2.1723 C   0  0  0  0  0  0  0  0  0  0  0  0
    4.0387    3.0715    1.2073 O   0  0  0  0  0  0  0  0  0  0  0  0
    2.3517    3.6842    2.8108 C   0  0  0  0  0  0  0  0  0  0  0  0
    2.4084    5.0596    2.5745 C   0  0  0  0  0  0  0  0  0  0  0  0
    1.4569    5.8935    3.1552 C   0  0  0  0  0  0  0  0  0  0  0  0
    0.4529    5.3512    3.9582 C   0  0  0  0  0  0  0  0  0  0  0  0
    0.3943    3.9763    4.1820 C   0  0  0  0  0  0  0  0  0  0  0  0
    1.3468    3.1358    3.6093 C   0  0  0  0  0  0  0  0  0  0  0  0
   -0.3869    0.8222    0.6128 H   0  0  0  0  0  0  0  0  0  0  0  0
   -0.3706   -0.9597    0.3723 H   0  0  0  0  0  0  0  0  0  0  0  0
   -0.2455    0.1441   -1.0588 H   0  0  0  0  0  0  0  0  0  0  0  0
    2.8282   -3.6474    2.9299 H   0  0  0  0  0  0  0  0  0  0  0  0
    1.9878   -2.8745    1.5658 H   0  0  0  0  0  0  0  0  0  0  0  0
    2.2660   -1.9582    3.0719 H   0  0  0  0  0  0  0  0  0  0  0  0
    6.8708   -2.3826    1.8597 H   0  0  0  0  0  0  0  0  0  0  0  0
    6.8165   -0.6443    2.1633 H   0  0  0  0  0  0  0  0  0  0  0  0
    5.9107   -2.0962   -0.2479 H   0  0  0  0  0  0  0  0  0  0  0  0
    5.8806   -0.3452   -0.0123 H   0  0  0  0  0  0  0  0  0  0  0  0
    3.5303   -0.5438    3.9166 H   0  0  0  0  0  0  0  0  0  0  0  0
    5.1931    0.0124    4.0974 H   0  0  0  0  0  0  0  0  0  0  0  0
    3.1930    5.4688    1.9339 H   0  0  0  0  0  0  0  0  0  0  0  0
    1.4955    6.9665    2.9811 H   0  0  0  0  0  0  0  0  0  0  0  0
   -0.2902    6.0058    4.4113 H   0  0  0  0  0  0  0  0  0  0  0  0
   -0.3951    3.5574    4.8028 H   0  0  0  0  0  0  0  0  0  0  0  0
    1.3053    2.0532    3.7754 H   0  0  0  0  0  0  0  0  0  0  0  0
  1 28  1  0  0  0  0
  1 27  1  0  0  0  0
  2  1  1  0  0  0  0
  2  3  1  0  0  0  0
  3  4  2  0  0  0  0
  5  7  1  0  0  0  0
  5  3  1  0  0  0  0
  5  6  1  6  0  0  0
  7  8  1  6  0  0  0
  7  9  1  0  0  0  0
  9 10  1  0  0  0  0
  9 11  1  0  0  0  0
 10 30  1  0  0  0  0
 10 32  1  0  0  0  0
 11 15  1  0  0  0  0
 11 12  1  1  0  0  0
 13 33  1  0  0  0  0
 13 34  1  0  0  0  0
 13 11  1  0  0  0  0
 14  7  1  0  0  0  0
 14 13  1  0  0  0  0
 15 37  1  0  0  0  0
 15 38  1  0  0  0  0
 16  5  1  0  0  0  0
 16 18  1  0  0  0  0
 16 15  1  0  0  0  0
 16 17  1  6  0  0  0
 19 21  1  0  0  0  0
 19 18  1  0  0  0  0
 20 19  2  0  0  0  0
 21 26  1  0  0  0  0
 22 21  2  0  0  0  0
 22 23  1  0  0  0  0
 23 24  2  0  0  0  0
 24 25  1  0  0  0  0
 24 41  1  0  0  0  0
 25 42  1  0  0  0  0
 26 43  1  0  0  0  0
 26 25  2  0  0  0  0
 29  1  1  0  0  0  0
 31 10  1  0  0  0  0
 35 14  1  0  0  0  0
 36 14  1  0  0  0  0
 39 22  1  0  0  0  0
 40 23  1  0  0  0  0
M  END
$$$$
