43
rmsd185.gzmat
C          0.00000        0.00000        0.00000
O          1.42250        0.00000        0.00000
C          2.02450        0.00000        1.22170
O          1.38320       -0.00930        2.23940
C          3.51030        0.02890        1.00880
H          3.71960        0.68970        0.12120
C          4.05020       -1.39860        0.68620
H          3.50180       -1.82930       -0.17800
N          4.01530       -2.33290        1.83090
C          2.70760       -2.69580        2.38050
C          4.98480       -1.73360        2.78170
H          5.20270       -2.45380        3.59660
C          6.21010       -1.50190        1.84710
C          5.58790       -1.30020        0.44200
C          4.47900       -0.39170        3.35980
C          4.25390        0.61590        2.22770
H          5.21450        1.07930        1.89940
O          3.43840        1.62980        2.81970
C          3.35840        2.82160        2.17230
O          4.03870        3.07150        1.20730
C          2.35170        3.68420        2.81080
C          2.40840        5.05960        2.57450
C          1.45690        5.89350        3.15520
C          0.45290        5.35120        3.95820
C          0.39430        3.97630        4.18200
C          1.34680        3.13580        3.60930
H         -0.38690        0.82220        0.61280
H         -0.37060       -0.95970        0.37230
H         -0.24550        0.14410       -1.05880
H          2.82820       -3.64740        2.92990
H          1.98780       -2.87450        1.56580
H          2.26600       -1.95820        3.07190
H          6.87080       -2.38260        1.85970
H          6.81650       -0.64430        2.16330
H          5.91070       -2.09620       -0.24790
H          5.88060       -0.34520       -0.01230
H          3.53030       -0.54380        3.91660
H          5.19310        0.01240        4.09740
H          3.19300        5.46880        1.93390
H          1.49550        6.96650        2.98110
H         -0.29020        6.00580        4.41130
H         -0.39510        3.55740        4.80280
H          1.30530        2.05320        3.77540
