43
rmsd198.gzmat
C          0.00000        0.00000        0.00000
O          1.42300        0.00000        0.00000
C          2.02260        0.00000        1.22280
O          1.37910       -0.05440        2.23780
C          3.50640        0.09730        1.01560
H          3.68480        0.74200        0.10830
C          4.12490       -1.30640        0.73740
H          3.59580       -1.79880       -0.10530
N          4.15500       -2.20130        1.91320
C          2.87510       -2.61290        2.49340
C          5.09940       -1.51620        2.83080
H          5.36940       -2.19660        3.66440
C          6.29840       -1.24120        1.87450
C          5.65130       -1.12650        0.47140
C          4.52120       -0.18970        3.37360
C          4.20890        0.76630        2.21720
H          5.12590        1.29880        1.87040
O          3.32120        1.72340        2.79950
C          3.10650        2.87930        2.11890
O          3.72320        3.15840        1.12060
C          2.04880        3.66200        2.77810
C          2.00800        5.04190        2.56820
C          1.01110        5.79660        3.18040
C          0.06140        5.17190        3.99000
C          0.09860        3.79200        4.18420
C          1.09480        3.02990        3.57740
H         -0.38300       -0.88550        0.51700
H         -0.24640       -0.01960       -1.06800
H         -0.37310        0.91260        0.47790
H          3.05190       -3.53860        3.07070
H          2.15410       -2.85330        1.69650
H          2.40570       -1.87600        3.16720
H          7.01330       -2.07780        1.90880
H          6.85170       -0.33650        2.15540
H          6.01350       -1.92680       -0.19390
H          5.88270       -0.17310       -0.02020
H          3.59520       -0.38250        3.95550
H          5.22140        0.28340        4.08290
H          2.75190        5.51660        1.92480
H          0.97240        6.87260        3.02670
H         -0.71480        5.76600        4.47050
H         -0.64870        3.30650        4.80870
H          1.12690        1.94320        3.71770
