43

C         -0.04500       -0.60820       -0.04310
O          1.35850       -0.35520       -0.01460
C          1.89390       -0.11130        1.19930
O          1.23200       -0.09060        2.20900
C          3.38940        0.10650        1.07110
H          3.51740        0.85940        0.27810
C          4.12150       -1.19950        0.60620
H          3.64920       -1.55350       -0.32110
N          4.12240       -2.24190        1.62090
C          2.90630       -2.93160        1.98530
C          4.97620       -1.69760        2.67410
H          5.20380       -2.47540        3.42010
C          6.21980       -1.28340        1.85330
C          5.63880       -0.94250        0.45110
C          4.31280       -0.48640        3.37190
C          4.05900        0.62250        2.35660
H          5.01160        1.07790        2.05460
O          3.28670        1.65430        2.98450
C          3.34390        2.88660        2.45070
O          4.09750        3.19390        1.55230
C          2.36710        3.81330        3.08870
C          2.46230        5.18290        2.80230
C          1.55680        6.07790        3.37040
C          0.54710        5.60640        4.21690
C          0.44280        4.23920        4.49310
C          1.35130        3.33970        3.93340
H         -0.29230       -1.50030        0.55230
H         -0.30650       -0.76790       -1.09610
H         -0.60400        0.24660        0.36600
H          3.16060       -3.85620        2.53090
H          2.37020       -3.22610        1.06920
H          2.20200       -2.35510        2.61310
H          6.91900       -2.12790        1.78750
H          6.75980       -0.44090        2.31050
H          6.04300       -1.62210       -0.31120
H          5.85840        0.08600        0.12960
H          3.35670       -0.78600        3.82630
H          4.95620       -0.10170        4.17930
H          3.25360        5.52220        2.13150
H          1.63430        7.14570        3.15260
H         -0.16450        6.30790        4.65970
H         -0.35260        3.87250        5.14610
H          1.27570        2.26880        4.12370
