rmsd174.gzmat
 OpenBabel08211713423D

 43 45  0  0  1  0  0  0  0  0999 V2000
    0.0000    0.0000    0.0000 C   0  0  0  0  0  0  0  0  0  0  0  0
    1.4232    0.0000    0.0000 O   0  0  0  0  0  0  0  0  0  0  0  0
    2.0216    0.0000    1.2236 C   0  0  0  0  0  0  0  0  0  0  0  0
    1.3758   -0.0387    2.2376 O   0  0  0  0  0  0  0  0  0  0  0  0
    3.5071    0.0692    1.0193 C   0  0  2  0  0  0  0  0  0  0  0  0
    3.7042    0.7733    0.1631 H   0  0  0  0  0  0  0  0  0  0  0  0
    4.0751   -1.3319    0.6344 C   0  0  2  0  0  0  0  0  0  0  0  0
    3.5324   -1.7370   -0.2459 H   0  0  0  0  0  0  0  0  0  0  0  0
    4.0601   -2.3148    1.7381 N   0  0  0  0  0  0  0  0  0  0  0  0
    2.7604   -2.7200    2.2772 C   0  0  0  0  0  0  0  0  0  0  0  0
    5.0230   -1.7408    2.7109 C   0  0  1  0  0  0  0  0  0  0  0  0
    5.2569   -2.4930    3.4919 H   0  0  0  0  0  0  0  0  0  0  0  0
    6.2402   -1.4469    1.7835 C   0  0  0  0  0  0  0  0  0  0  0  0
    5.6092   -1.1932    0.3909 C   0  0  0  0  0  0  0  0  0  0  0  0
    4.4954   -0.4355    3.3492 C   0  0  0  0  0  0  0  0  0  0  0  0
    4.2366    0.6172    2.2658 C   0  0  2  0  0  0  0  0  0  0  0  0
    5.1813    1.1253    1.9588 H   0  0  0  0  0  0  0  0  0  0  0  0
    3.3916    1.5725    2.9104 O   0  0  0  0  0  0  0  0  0  0  0  0
    3.2711    2.7969    2.3345 C   0  0  0  0  0  0  0  0  0  0  0  0
    3.9572    3.1358    1.4019 O   0  0  0  0  0  0  0  0  0  0  0  0
    2.2102    3.5682    3.0021 C   0  0  0  0  0  0  0  0  0  0  0  0
    2.2201    4.9603    2.8893 C   0  0  0  0  0  0  0  0  0  0  0  0
    1.2051    5.7019    3.4879 C   0  0  0  0  0  0  0  0  0  0  0  0
    0.1874    5.0530    4.1882 C   0  0  0  0  0  0  0  0  0  0  0  0
    0.1811    3.6628    4.2959 C   0  0  0  0  0  0  0  0  0  0  0  0
    1.1952    2.9139    3.7030 C   0  0  0  0  0  0  0  0  0  0  0  0
   -0.3728    0.9189    0.4666 H   0  0  0  0  0  0  0  0  0  0  0  0
   -0.3821   -0.8784    0.5297 H   0  0  0  0  0  0  0  0  0  0  0  0
   -0.2472   -0.0343   -1.0675 H   0  0  0  0  0  0  0  0  0  0  0  0
    2.9002   -3.6835    2.8011 H   0  0  0  0  0  0  0  0  0  0  0  0
    2.0457   -2.8919    1.4563 H   0  0  0  0  0  0  0  0  0  0  0  0
    2.3037   -2.0112    2.9886 H   0  0  0  0  0  0  0  0  0  0  0  0
    6.9153   -2.3163    1.7543 H   0  0  0  0  0  0  0  0  0  0  0  0
    6.8327   -0.5938    2.1362 H   0  0  0  0  0  0  0  0  0  0  0  0
    5.9445   -1.9511   -0.3355 H   0  0  0  0  0  0  0  0  0  0  0  0
    5.8828   -0.2132   -0.0204 H   0  0  0  0  0  0  0  0  0  0  0  0
    3.5563   -0.6311    3.9086 H   0  0  0  0  0  0  0  0  0  0  0  0
    5.2078   -0.0473    4.0971 H   0  0  0  0  0  0  0  0  0  0  0  0
    3.0168    5.4555    2.3300 H   0  0  0  0  0  0  0  0  0  0  0  0
    1.2043    6.7869    3.4071 H   0  0  0  0  0  0  0  0  0  0  0  0
   -0.6080    5.6355    4.6511 H   0  0  0  0  0  0  0  0  0  0  0  0
   -0.6151    3.1587    4.8402 H   0  0  0  0  0  0  0  0  0  0  0  0
    1.1928    1.8198    3.7769 H   0  0  0  0  0  0  0  0  0  0  0  0
  1 27  1  0  0  0  0
  1 28  1  0  0  0  0
  2  1  1  0  0  0  0
  2  3  1  0  0  0  0
  3  4  2  0  0  0  0
  5  7  1  0  0  0  0
  5  3  1  0  0  0  0
  5  6  1  6  0  0  0
  7  8  1  6  0  0  0
  7  9  1  0  0  0  0
  9 10  1  0  0  0  0
  9 11  1  0  0  0  0
 10 30  1  0  0  0  0
 10 32  1  0  0  0  0
 11 15  1  0  0  0  0
 11 12  1  1  0  0  0
 13 34  1  0  0  0  0
 13 11  1  0  0  0  0
 14  7  1  0  0  0  0
 14 13  1  0  0  0  0
 15 37  1  0  0  0  0
 15 38  1  0  0  0  0
 16  5  1  0  0  0  0
 16 18  1  0  0  0  0
 16 15  1  0  0  0  0
 16 17  1  6  0  0  0
 19 18  1  0  0  0  0
 19 21  1  0  0  0  0
 20 19  2  0  0  0  0
 21 26  1  0  0  0  0
 22 21  2  0  0  0  0
 22 23  1  0  0  0  0
 23 24  2  0  0  0  0
 24 25  1  0  0  0  0
 24 41  1  0  0  0  0
 25 42  1  0  0  0  0
 26 43  1  0  0  0  0
 26 25  2  0  0  0  0
 29  1  1  0  0  0  0
 31 10  1  0  0  0  0
 33 13  1  0  0  0  0
 35 14  1  0  0  0  0
 36 14  1  0  0  0  0
 39 22  1  0  0  0  0
 40 23  1  0  0  0  0
M  END
$$$$
