43
rmsd167.gzmat
C          0.00000        0.00000        0.00000
O          1.42290        0.00000        0.00000
C          2.02340        0.00000        1.22250
O          1.38020       -0.01840        2.23880
C          3.50940        0.04380        1.01280
H          3.71190        0.65810        0.09060
C          4.08170       -1.38690        0.77330
H          3.54670       -1.87870       -0.06590
N          4.06630       -2.25640        1.96760
C          2.76810       -2.62570        2.53410
C          5.01720       -1.58190        2.88590
H          5.24950       -2.25050        3.74010
C          6.23980       -1.37310        1.94210
C          5.61730       -1.26430        0.52690
C          4.47660       -0.22280        3.38760
C          4.23120        0.71510        2.20150
H          5.18010        1.18750        1.85260
O          3.38210        1.73630        2.73200
C          3.27340        2.88740        2.01860
O          3.96290        3.10810        1.05350
C          2.22360        3.74690        2.58810
C          2.23190        5.10660        2.26920
C          1.23400        5.93430        2.77560
C          0.23560        5.40190        3.59190
C          0.22920        4.04280        3.90280
C          1.22460        3.20780        3.39980
H         -0.37980        0.87750        0.53420
H         -0.37720       -0.91890        0.45870
H         -0.24590        0.04720       -1.06720
H          2.31030       -1.86870        3.19310
H          2.91230       -3.54920        3.12490
H          2.05170       -2.85750        1.73050
H          6.92140       -2.23540        2.00450
H          6.82390       -0.48510        2.21290
H          5.96140       -2.08840       -0.11800
H          5.88840       -0.32920        0.02100
H          3.52940       -0.36740        3.94920
H          5.17720        0.23840        4.10440
H          3.01520        5.50780        1.62240
H          1.23170        6.99470        2.53280
H         -0.54450        6.05130        3.98680
H         -0.55310        3.63110        4.53710
H          1.22040        2.13630        3.63020
