43
rmsd174.gzmat
C          0.00000        0.00000        0.00000
O          1.42320        0.00000        0.00000
C          2.02160        0.00000        1.22360
O          1.37580       -0.03870        2.23760
C          3.50710        0.06920        1.01930
H          3.70420        0.77330        0.16310
C          4.07510       -1.33190        0.63440
H          3.53240       -1.73700       -0.24590
N          4.06010       -2.31480        1.73810
C          2.76040       -2.72000        2.27720
C          5.02300       -1.74080        2.71090
H          5.25690       -2.49300        3.49190
C          6.24020       -1.44690        1.78350
C          5.60920       -1.19320        0.39090
C          4.49540       -0.43550        3.34920
C          4.23660        0.61720        2.26580
H          5.18130        1.12530        1.95880
O          3.39160        1.57250        2.91040
C          3.27110        2.79690        2.33450
O          3.95720        3.13580        1.40190
C          2.21020        3.56820        3.00210
C          2.22010        4.96030        2.88930
C          1.20510        5.70190        3.48790
C          0.18740        5.05300        4.18820
C          0.18110        3.66280        4.29590
C          1.19520        2.91390        3.70300
H         -0.37280        0.91890        0.46660
H         -0.38210       -0.87840        0.52970
H         -0.24720       -0.03430       -1.06750
H          2.90020       -3.68350        2.80110
H          2.04570       -2.89190        1.45630
H          2.30370       -2.01120        2.98860
H          6.91530       -2.31630        1.75430
H          6.83270       -0.59380        2.13620
H          5.94450       -1.95110       -0.33550
H          5.88280       -0.21320       -0.02040
H          3.55630       -0.63110        3.90860
H          5.20780       -0.04730        4.09710
H          3.01680        5.45550        2.33000
H          1.20430        6.78690        3.40710
H         -0.60800        5.63550        4.65110
H         -0.61510        3.15870        4.84020
H          1.19280        1.81980        3.77690
