rmsd167.gzmat
 OpenBabel08211713423D

 43 45  0  0  1  0  0  0  0  0999 V2000
    0.0000    0.0000    0.0000 C   0  0  0  0  0  0  0  0  0  0  0  0
    1.4229    0.0000    0.0000 O   0  0  0  0  0  0  0  0  0  0  0  0
    2.0234    0.0000    1.2225 C   0  0  0  0  0  0  0  0  0  0  0  0
    1.3802   -0.0184    2.2388 O   0  0  0  0  0  0  0  0  0  0  0  0
    3.5094    0.0438    1.0128 C   0  0  2  0  0  0  0  0  0  0  0  0
    3.7119    0.6581    0.0906 H   0  0  0  0  0  0  0  0  0  0  0  0
    4.0817   -1.3869    0.7733 C   0  0  2  0  0  0  0  0  0  0  0  0
    3.5467   -1.8787   -0.0659 H   0  0  0  0  0  0  0  0  0  0  0  0
    4.0663   -2.2564    1.9676 N   0  0  0  0  0  0  0  0  0  0  0  0
    2.7681   -2.6257    2.5341 C   0  0  0  0  0  0  0  0  0  0  0  0
    5.0172   -1.5819    2.8859 C   0  0  1  0  0  0  0  0  0  0  0  0
    5.2495   -2.2505    3.7401 H   0  0  0  0  0  0  0  0  0  0  0  0
    6.2398   -1.3731    1.9421 C   0  0  0  0  0  0  0  0  0  0  0  0
    5.6173   -1.2643    0.5269 C   0  0  0  0  0  0  0  0  0  0  0  0
    4.4766   -0.2228    3.3876 C   0  0  0  0  0  0  0  0  0  0  0  0
    4.2312    0.7151    2.2015 C   0  0  2  0  0  0  0  0  0  0  0  0
    5.1801    1.1875    1.8526 H   0  0  0  0  0  0  0  0  0  0  0  0
    3.3821    1.7363    2.7320 O   0  0  0  0  0  0  0  0  0  0  0  0
    3.2734    2.8874    2.0186 C   0  0  0  0  0  0  0  0  0  0  0  0
    3.9629    3.1081    1.0535 O   0  0  0  0  0  0  0  0  0  0  0  0
    2.2236    3.7469    2.5881 C   0  0  0  0  0  0  0  0  0  0  0  0
    2.2319    5.1066    2.2692 C   0  0  0  0  0  0  0  0  0  0  0  0
    1.2340    5.9343    2.7756 C   0  0  0  0  0  0  0  0  0  0  0  0
    0.2356    5.4019    3.5919 C   0  0  0  0  0  0  0  0  0  0  0  0
    0.2292    4.0428    3.9028 C   0  0  0  0  0  0  0  0  0  0  0  0
    1.2246    3.2078    3.3998 C   0  0  0  0  0  0  0  0  0  0  0  0
   -0.3798    0.8775    0.5342 H   0  0  0  0  0  0  0  0  0  0  0  0
   -0.3772   -0.9189    0.4587 H   0  0  0  0  0  0  0  0  0  0  0  0
   -0.2459    0.0472   -1.0672 H   0  0  0  0  0  0  0  0  0  0  0  0
    2.3103   -1.8687    3.1931 H   0  0  0  0  0  0  0  0  0  0  0  0
    2.9123   -3.5492    3.1249 H   0  0  0  0  0  0  0  0  0  0  0  0
    2.0517   -2.8575    1.7305 H   0  0  0  0  0  0  0  0  0  0  0  0
    6.9214   -2.2354    2.0045 H   0  0  0  0  0  0  0  0  0  0  0  0
    6.8239   -0.4851    2.2129 H   0  0  0  0  0  0  0  0  0  0  0  0
    5.9614   -2.0884   -0.1180 H   0  0  0  0  0  0  0  0  0  0  0  0
    5.8884   -0.3292    0.0210 H   0  0  0  0  0  0  0  0  0  0  0  0
    3.5294   -0.3674    3.9492 H   0  0  0  0  0  0  0  0  0  0  0  0
    5.1772    0.2384    4.1044 H   0  0  0  0  0  0  0  0  0  0  0  0
    3.0152    5.5078    1.6224 H   0  0  0  0  0  0  0  0  0  0  0  0
    1.2317    6.9947    2.5328 H   0  0  0  0  0  0  0  0  0  0  0  0
   -0.5445    6.0513    3.9868 H   0  0  0  0  0  0  0  0  0  0  0  0
   -0.5531    3.6311    4.5371 H   0  0  0  0  0  0  0  0  0  0  0  0
    1.2204    2.1363    3.6302 H   0  0  0  0  0  0  0  0  0  0  0  0
  1 28  1  0  0  0  0
  1 27  1  0  0  0  0
  2  1  1  0  0  0  0
  2  3  1  0  0  0  0
  3  4  2  0  0  0  0
  5  7  1  0  0  0  0
  5  3  1  0  0  0  0
  5  6  1  6  0  0  0
  7  8  1  6  0  0  0
  7  9  1  0  0  0  0
  9 10  1  0  0  0  0
  9 11  1  0  0  0  0
 10 31  1  0  0  0  0
 10 30  1  0  0  0  0
 11 15  1  0  0  0  0
 11 12  1  1  0  0  0
 13 33  1  0  0  0  0
 13 34  1  0  0  0  0
 13 11  1  0  0  0  0
 14  7  1  0  0  0  0
 14 13  1  0  0  0  0
 15 37  1  0  0  0  0
 15 38  1  0  0  0  0
 16  5  1  0  0  0  0
 16 18  1  0  0  0  0
 16 15  1  0  0  0  0
 16 17  1  6  0  0  0
 19 21  1  0  0  0  0
 19 18  1  0  0  0  0
 20 19  2  0  0  0  0
 21 26  1  0  0  0  0
 22 21  2  0  0  0  0
 22 23  1  0  0  0  0
 23 24  2  0  0  0  0
 24 25  1  0  0  0  0
 24 41  1  0  0  0  0
 25 42  1  0  0  0  0
 26 43  1  0  0  0  0
 26 25  2  0  0  0  0
 29  1  1  0  0  0  0
 32 10  1  0  0  0  0
 35 14  1  0  0  0  0
 36 14  1  0  0  0  0
 39 22  1  0  0  0  0
 40 23  1  0  0  0  0
M  END
$$$$
