43

C         -0.02420       -0.62730       -0.17040
O          1.37860       -0.38000       -0.09540
C          1.87700       -0.15220        1.13750
O          1.18440       -0.13510        2.12610
C          3.37920        0.04320        1.05750
H          3.54370        0.73080        0.21260
C          4.11170       -1.30250        0.71680
H          3.66740       -1.71910       -0.19880
N          4.06930       -2.26810        1.80210
C          2.84170       -2.93460        2.17220
C          4.89160       -1.65600        2.84320
H          5.08760       -2.38060        3.64920
C          6.16590       -1.30610        2.03950
C          5.63640       -1.06910        0.59610
C          4.21330       -0.39540        3.42820
C          4.00240        0.64150        2.32350
H          4.97810        1.06810        2.05570
O          3.18380        1.72860        2.77330
C          3.78500        2.75670        3.39780
O          4.98390        2.84620        3.54470
C          2.79390        3.76120        3.87890
C          3.27510        4.94660        4.45340
C          2.38020        5.90930        4.91840
C          1.00220        5.68870        4.81590
C          0.52040        4.50430        4.24880
C          1.41140        3.53860        3.77850
H         -0.29560       -1.51660        0.41860
H         -0.25120       -0.78830       -1.23130
H         -0.59320        0.23080        0.21740
H          3.07960       -3.83090        2.77000
H          2.32660       -3.27500        1.25970
H          2.12520       -2.32370        2.75100
H          6.86320       -2.15450        2.06040
H          6.69170       -0.43290        2.45300
H          6.05880       -1.80770       -0.09860
H          5.87900       -0.06990        0.20540
H          3.23840       -0.65530        3.86680
H          4.83510        0.04730        4.22150
H          4.35470        5.09020        4.52450
H          2.75500        6.83390        5.36360
H          0.30080        6.44260        5.18210
H         -0.55600        4.33200        4.17530
H          1.05220        2.60620        3.34090
