43
rmsd153.gzmat
C          0.00000        0.00000        0.00000
O          1.42260        0.00000        0.00000
C          2.02360        0.00000        1.22360
O          1.37880       -0.02780        2.23860
C          3.50910        0.05670        1.01730
H          3.72490        0.95500        0.37260
C          4.00510       -1.21700        0.26380
H          3.44490       -1.34230       -0.68720
N          3.92110       -2.45370        1.07090
C          2.59110       -2.88640        1.50450
C          4.91770       -2.21910        2.14590
H          5.09900       -3.16310        2.69940
C          6.15420       -1.76970        1.31140
C          5.54470       -1.11000        0.04860
C          4.47920       -1.09370        3.11080
C          4.29000        0.21780        2.33900
H          5.26930        0.71430        2.13650
O          3.55450        1.04140        3.24480
C          3.45570        2.36230        2.94770
O          4.04370        2.85320        2.01470
C          2.56180        3.03660        3.90240
C          2.71240        4.41080        4.10170
C          1.86690        5.06920        4.98990
C          0.87730        4.35650        5.66820
C          0.72400        2.98720        5.45690
C          1.56720        2.32020        4.57020
H         -0.36880        0.94770        0.40760
H         -0.38730       -0.84290        0.58130
H         -0.24730       -0.10140       -1.06300
H          2.66190       -3.94800        1.80430
H          1.88590       -2.82950        0.65840
H          2.16360       -2.32300        2.35060
H          6.76880       -2.64180        1.04000
H          6.80320       -1.08410        1.87030
H          5.83590       -1.66000       -0.86080
H          5.87860       -0.07330       -0.08570
H          3.53290       -1.36640        3.62180
H          5.22020       -0.95860        3.91770
H          3.48520        4.95780        3.55780
H          1.97600        6.13920        5.15300
H          0.21950        4.87440        6.36460
H         -0.05440        2.43780        5.98200
H          1.44690        1.24660        4.38570
