rmsd242.gzmat
 OpenBabel08211713423D

 43 45  0  0  1  0  0  0  0  0999 V2000
    0.0000    0.0000    0.0000 C   0  0  0  0  0  0  0  0  0  0  0  0
    1.4228    0.0000    0.0000 O   0  0  0  0  0  0  0  0  0  0  0  0
    2.0241    0.0000    1.2226 C   0  0  0  0  0  0  0  0  0  0  0  0
    1.3813   -0.0336    2.2388 O   0  0  0  0  0  0  0  0  0  0  0  0
    3.5086    0.0672    1.0100 C   0  0  2  0  0  0  0  0  0  0  0  0
    3.6985    0.7492    0.1334 H   0  0  0  0  0  0  0  0  0  0  0  0
    4.0848   -1.3388    0.6581 C   0  0  2  0  0  0  0  0  0  0  0  0
    3.5379   -1.7714   -0.2060 H   0  0  0  0  0  0  0  0  0  0  0  0
    4.0938   -2.2930    1.7865 N   0  0  0  0  0  0  0  0  0  0  0  0
    2.8060   -2.7043    2.3482 C   0  0  0  0  0  0  0  0  0  0  0  0
    5.0579   -1.6815    2.7348 C   0  0  1  0  0  0  0  0  0  0  0  0
    5.3109   -2.4097    3.5324 H   0  0  0  0  0  0  0  0  0  0  0  0
    6.2619   -1.3928    1.7886 C   0  0  0  0  0  0  0  0  0  0  0  0
    5.6151   -1.1909    0.3949 C   0  0  0  0  0  0  0  0  0  0  0  0
    4.5169   -0.3681    3.3449 C   0  0  0  0  0  0  0  0  0  0  0  0
    4.2415    0.6531    2.2362 C   0  0  2  0  0  0  0  0  0  0  0  0
    5.1813    1.1587    1.9088 H   0  0  0  0  0  0  0  0  0  0  0  0
    3.3958    1.6224    2.8595 O   0  0  0  0  0  0  0  0  0  0  0  0
    3.2855    2.8348    2.2570 C   0  0  0  0  0  0  0  0  0  0  0  0
    3.9498    3.1338    1.2954 O   0  0  0  0  0  0  0  0  0  0  0  0
    2.2742    3.6541    2.9440 C   0  0  0  0  0  0  0  0  0  0  0  0
    2.3347    5.0422    2.8021 C   0  0  0  0  0  0  0  0  0  0  0  0
    1.3832    5.8365    3.4355 C   0  0  0  0  0  0  0  0  0  0  0  0
    0.3798    5.2433    4.2028 C   0  0  0  0  0  0  0  0  0  0  0  0
    0.3194    3.8567    4.3341 C   0  0  0  0  0  0  0  0  0  0  0  0
    1.2673    3.0548    3.7017 C   0  0  0  0  0  0  0  0  0  0  0  0
   -0.3760   -0.9343    0.4275 H   0  0  0  0  0  0  0  0  0  0  0  0
   -0.2460    0.0831   -1.0649 H   0  0  0  0  0  0  0  0  0  0  0  0
   -0.3814    0.8583    0.5640 H   0  0  0  0  0  0  0  0  0  0  0  0
    2.9715   -3.6348    2.9217 H   0  0  0  0  0  0  0  0  0  0  0  0
    2.0986   -2.9390    1.5369 H   0  0  0  0  0  0  0  0  0  0  0  0
    2.3289   -1.9719    3.0209 H   0  0  0  0  0  0  0  0  0  0  0  0
    6.9532   -2.2494    1.7787 H   0  0  0  0  0  0  0  0  0  0  0  0
    6.8410   -0.5187    2.1117 H   0  0  0  0  0  0  0  0  0  0  0  0
    5.9514   -1.9680   -0.3101 H   0  0  0  0  0  0  0  0  0  0  0  0
    5.8737   -0.2221   -0.0509 H   0  0  0  0  0  0  0  0  0  0  0  0
    3.5830   -0.5623    3.9130 H   0  0  0  0  0  0  0  0  0  0  0  0
    5.2279    0.0464    4.0797 H   0  0  0  0  0  0  0  0  0  0  0  0
    3.1216    5.4919    2.1934 H   0  0  0  0  0  0  0  0  0  0  0  0
    1.4207    6.9185    3.3297 H   0  0  0  0  0  0  0  0  0  0  0  0
   -0.3622    5.8672    4.6994 H   0  0  0  0  0  0  0  0  0  0  0  0
   -0.4672    3.3976    4.9302 H   0  0  0  0  0  0  0  0  0  0  0  0
    1.2209    1.9635    3.7908 H   0  0  0  0  0  0  0  0  0  0  0  0
  1 27  1  0  0  0  0
  1 29  1  0  0  0  0
  2  1  1  0  0  0  0
  2  3  1  0  0  0  0
  3  4  2  0  0  0  0
  5  7  1  0  0  0  0
  5  3  1  0  0  0  0
  5  6  1  6  0  0  0
  7  8  1  6  0  0  0
  7  9  1  0  0  0  0
  9 10  1  0  0  0  0
  9 11  1  0  0  0  0
 10 30  1  0  0  0  0
 10 32  1  0  0  0  0
 11 15  1  0  0  0  0
 11 12  1  1  0  0  0
 13 34  1  0  0  0  0
 13 11  1  0  0  0  0
 14  7  1  0  0  0  0
 14 13  1  0  0  0  0
 15 37  1  0  0  0  0
 15 38  1  0  0  0  0
 16  5  1  0  0  0  0
 16 18  1  0  0  0  0
 16 15  1  0  0  0  0
 16 17  1  6  0  0  0
 19 18  1  0  0  0  0
 19 21  1  0  0  0  0
 20 19  2  0  0  0  0
 21 26  1  0  0  0  0
 22 21  2  0  0  0  0
 22 23  1  0  0  0  0
 23 24  2  0  0  0  0
 24 25  1  0  0  0  0
 24 41  1  0  0  0  0
 25 42  1  0  0  0  0
 26 43  1  0  0  0  0
 26 25  2  0  0  0  0
 28  1  1  0  0  0  0
 31 10  1  0  0  0  0
 33 13  1  0  0  0  0
 35 14  1  0  0  0  0
 36 14  1  0  0  0  0
 39 22  1  0  0  0  0
 40 23  1  0  0  0  0
M  END
$$$$
