rmsd98.gzmat
 OpenBabel08211713423D

 29 29  0  0  1  0  0  0  0  0999 V2000
    0.0000    0.0000    0.0000 O   0  0  0  0  0  0  0  0  0  0  0  0
    1.2032    0.0000    0.0000 C   0  0  0  0  0  0  0  0  0  0  0  0
    1.8970    0.0000    1.1633 O   0  0  0  0  0  0  0  0  0  0  0  0
    2.1189    0.0234   -1.1953 C   0  0  1  0  0  0  0  0  0  0  0  0
    2.3387    1.1101   -1.4422 H   0  0  0  0  0  0  0  0  0  0  0  0
    3.4889   -0.6473   -0.9087 C   0  0  1  0  0  0  0  0  0  0  0  0
    3.8392   -0.4133    0.1294 H   0  0  0  0  0  0  0  0  0  0  0  0
    3.4961   -2.1228   -1.1947 C   0  0  0  0  0  0  0  0  0  0  0  0
    2.6324   -2.6780   -2.0561 C   0  0  0  0  0  0  0  0  0  0  0  0
    1.6265   -1.8705   -2.7297 C   0  0  0  0  0  0  0  0  0  0  0  0
    1.3889   -0.6093   -2.3381 C   0  0  0  0  0  0  0  0  0  0  0  0
    0.3820    0.2675   -2.9979 C   0  0  0  0  0  0  0  0  0  0  0  0
    0.6972    1.3478   -3.4309 O   0  0  0  0  0  0  0  0  0  0  0  0
   -1.0204   -0.2663   -3.0627 C   0  0  0  0  0  0  0  0  0  0  0  0
   -1.9769    0.7601   -3.6623 C   0  0  0  0  0  0  0  0  0  0  0  0
   -3.2334    0.0920   -4.1145 C   0  0  0  0  0  0  0  0  0  0  0  0
   -3.4022   -1.0455   -4.4691 O   0  0  0  0  0  0  0  0  0  0  0  0
   -4.2679    0.9729   -4.1023 O   0  0  0  0  0  0  0  0  0  0  0  0
    4.4719   -0.0166   -1.6974 O   0  0  0  0  0  0  0  0  0  0  0  0
    1.3201    0.0019    1.9696 H   0  0  0  0  0  0  0  0  0  0  0  0
    4.2737   -2.6891   -0.6881 H   0  0  0  0  0  0  0  0  0  0  0  0
    2.6456   -3.7429   -2.2866 H   0  0  0  0  0  0  0  0  0  0  0  0
    1.0905   -2.3372   -3.5571 H   0  0  0  0  0  0  0  0  0  0  0  0
   -1.3498   -0.5556   -2.0345 H   0  0  0  0  0  0  0  0  0  0  0  0
   -1.0424   -1.2153   -3.6464 H   0  0  0  0  0  0  0  0  0  0  0  0
   -1.5044    1.2851   -4.5285 H   0  0  0  0  0  0  0  0  0  0  0  0
   -2.1921    1.5765   -2.9349 H   0  0  0  0  0  0  0  0  0  0  0  0
   -5.1250    0.5859   -4.4067 H   0  0  0  0  0  0  0  0  0  0  0  0
    4.3469   -0.2149   -2.6501 H   0  0  0  0  0  0  0  0  0  0  0  0
  2  1  2  0  0  0  0
  2  3  1  0  0  0  0
  3 20  1  0  0  0  0
  4  6  1  0  0  0  0
  4  2  1  0  0  0  0
  4  5  1  6  0  0  0
  6  7  1  1  0  0  0
  8  6  1  0  0  0  0
  8 21  1  0  0  0  0
  9  8  2  0  0  0  0
 10 11  2  0  0  0  0
 10  9  1  0  0  0  0
 11  4  1  0  0  0  0
 12 11  1  0  0  0  0
 13 12  2  0  0  0  0
 14 12  1  0  0  0  0
 14 24  1  0  0  0  0
 15 14  1  0  0  0  0
 15 27  1  0  0  0  0
 16 18  1  0  0  0  0
 16 15  1  0  0  0  0
 17 16  2  0  0  0  0
 19  6  1  0  0  0  0
 22  9  1  0  0  0  0
 23 10  1  0  0  0  0
 25 14  1  0  0  0  0
 26 15  1  0  0  0  0
 28 18  1  0  0  0  0
 29 19  1  0  0  0  0
M  END
$$$$
