
     RDKit          3D

 29 29  0  0  0  0  0  0  0  0999 V2000
   -0.2356   -0.4989   -0.5708 O   0  0  0  0  0  0  0  0  0  0  0  0
    0.8861   -0.2005   -0.2475 C   0  0  0  0  0  0  0  0  0  0  0  0
    1.2314    0.0458    1.0283 O   0  0  0  0  0  0  0  0  0  0  0  0
    2.0629   -0.0915   -1.2196 C   0  0  1  0  0  0  0  0  0  0  0  0
    2.4010   -1.1317   -1.3626 H   0  0  0  0  0  0  0  0  0  0  0  0
    1.5659    0.4291   -2.5815 C   0  0  1  0  0  0  0  0  0  0  0  0
    0.5646    0.0065   -2.7413 H   0  0  0  0  0  0  0  0  0  0  0  0
    1.5097    1.9371   -2.6061 C   0  0  0  0  0  0  0  0  0  0  0  0
    2.3460    2.6704   -1.8420 C   0  0  0  0  0  0  0  0  0  0  0  0
    3.2885    2.0298   -0.9325 C   0  0  0  0  0  0  0  0  0  0  0  0
    3.2050    0.7074   -0.6478 C   0  0  0  0  0  0  0  0  0  0  0  0
    4.1652   -0.0182    0.2252 C   0  0  0  0  0  0  0  0  0  0  0  0
    4.1254   -1.2346    0.3000 O   0  0  0  0  0  0  0  0  0  0  0  0
    5.1865    0.7847    1.0126 C   0  0  0  0  0  0  0  0  0  0  0  0
    6.0507   -0.0862    1.9099 C   0  0  0  0  0  0  0  0  0  0  0  0
    7.2134    0.6718    2.5019 C   0  0  0  0  0  0  0  0  0  0  0  0
    7.5871    1.7676    2.1590 O   0  0  0  0  0  0  0  0  0  0  0  0
    7.8266   -0.0318    3.4733 O   0  0  0  0  0  0  0  0  0  0  0  0
    2.3562   -0.0370   -3.6635 O   0  0  0  0  0  0  0  0  0  0  0  0
    0.4338   -0.0979    1.5667 H   0  0  0  0  0  0  0  0  0  0  0  0
    0.8536    2.4127   -3.3396 H   0  0  0  0  0  0  0  0  0  0  0  0
    2.3675    3.7600   -1.9275 H   0  0  0  0  0  0  0  0  0  0  0  0
    4.0811    2.6448   -0.5013 H   0  0  0  0  0  0  0  0  0  0  0  0
    4.6588    1.5521    1.6024 H   0  0  0  0  0  0  0  0  0  0  0  0
    5.8264    1.3493    0.3150 H   0  0  0  0  0  0  0  0  0  0  0  0
    6.4565   -0.9409    1.3435 H   0  0  0  0  0  0  0  0  0  0  0  0
    5.4676   -0.5443    2.7232 H   0  0  0  0  0  0  0  0  0  0  0  0
    8.5749    0.5086    3.7803 H   0  0  0  0  0  0  0  0  0  0  0  0
    3.2166    0.4026   -3.6093 H   0  0  0  0  0  0  0  0  0  0  0  0
  1  2  2  0
  2  3  1  0
  2  4  1  0
  3 20  1  0
  4  5  1  6
  4  6  1  0
  4 11  1  0
  6  7  1  6
  6  8  1  0
  6 19  1  0
  8  9  2  0
  8 21  1  0
  9 10  1  0
  9 22  1  0
 10 11  2  0
 10 23  1  0
 11 12  1  0
 12 13  2  0
 12 14  1  0
 14 15  1  0
 14 24  1  0
 14 25  1  0
 15 16  1  0
 15 26  1  0
 15 27  1  0
 16 17  2  0
 16 18  1  0
 18 28  1  0
 19 29  1  0
M  END

