29
rmsd120.gzmat
O          0.00000        0.00000        0.00000
C          1.20110        0.00000        0.00000
O          1.89140        0.00000        1.17280
C          2.13510       -0.02590       -1.17820
H          2.46510       -1.10170       -1.33570
C          1.36180        0.39830       -2.45830
H          0.29550        0.05520       -2.40260
C          1.46600        1.86480       -2.76520
C          2.46340        2.62160       -2.28750
C          3.48580        2.05010       -1.42560
C          3.33840        0.81780       -0.91420
C          4.38810        0.17670       -0.08240
O          4.86090       -0.88920       -0.39210
C          4.82160        0.90260        1.16960
C          6.33400        0.81810        1.34250
C          7.02460        1.73320        0.38250
O          6.54960        2.53550       -0.37890
O          8.36950        1.57060        0.46500
O          1.86000       -0.34370       -3.54710
H          1.30500       -0.01240        1.97040
H          0.69690        2.25160       -3.42950
H          2.55550        3.68120       -2.52500
H          4.37670        2.65860       -1.23240
H          4.29930        0.42980        2.03290
H          4.48010        1.95840        1.16600
H          6.68830       -0.23240        1.18800
H          6.63520        1.06970        2.38270
H          8.87860        2.14040       -0.16320
H          2.78030       -0.07790       -3.76260
