29
rmsd101.gzmat
O          0.00000        0.00000        0.00000
C          1.20430        0.00000        0.00000
O          1.89290        0.00000        1.16570
C          2.11410        0.02220       -1.19880
H          2.17210        1.09640       -1.56330
C          3.57010       -0.40710       -0.87250
H          3.88270       -0.03610        0.13610
C          3.81240       -1.88080       -1.03810
C          3.05080       -2.63660       -1.84120
C          1.92110       -2.06080       -2.55450
C          1.48680       -0.82630       -2.25920
C          0.34680       -0.20030       -2.97930
O          0.50810        0.76400       -3.68410
C         -1.01210       -0.81220       -2.74780
C         -1.82890       -0.82850       -4.03360
C         -1.34350       -1.91130       -4.94350
O         -0.38660       -2.63200       -4.82540
O         -2.16540       -2.02470       -6.01870
O          4.43940        0.30040       -1.72910
H          1.31160       -0.00130        1.96870
H          4.67140       -2.27120       -0.49850
H          3.23950       -3.69950       -1.99100
H          1.45060       -2.67100       -3.33440
H         -1.52530       -0.21430       -1.95590
H         -0.92750       -1.83040       -2.31400
H         -1.76010        0.15860       -4.55700
H         -2.91200       -0.96250       -3.82030
H         -1.88230       -2.71730       -6.66500
H          4.32890        0.01230       -2.66100
