29
rmsd112.gzmat
O          0.00000        0.00000        0.00000
C          1.20400        0.00000        0.00000
O          1.89450        0.00000        1.16480
C          2.11230        0.01800       -1.19960
H          2.11330        1.07790       -1.60860
C          3.58840       -0.32160       -0.86200
H          3.88430        0.10460        0.12950
C          3.90660       -1.78650       -0.96870
C          3.18210       -2.61320       -1.73570
C          2.02450       -2.12480       -2.46880
C          1.52670       -0.90320       -2.22240
C          0.35690       -0.36410       -2.96350
O          0.45450        0.61840       -3.65520
C         -0.95280       -1.08910       -2.77400
C         -1.73750       -1.13730       -4.07930
C         -1.11480       -2.11720       -5.02200
O         -0.11080       -2.76820       -4.88910
O         -1.86270       -2.22330       -6.15000
O          4.41820        0.39460       -1.74980
H          1.31530        0.00870        1.96910
H          4.78580       -2.10910       -0.41680
H          3.42340       -3.67060       -1.84300
H          1.58970       -2.78800       -3.22600
H         -1.52690       -0.55230       -1.97990
H         -0.79620       -2.10920       -2.36560
H         -1.76770       -0.12510       -4.55640
H         -2.80270       -1.40150       -3.90050
H         -1.48390       -2.83990       -6.82360
H          4.30620        0.07570       -2.67130
