rmsd97.gzmat
 OpenBabel08211713423D

 29 29  0  0  1  0  0  0  0  0999 V2000
    0.0000    0.0000    0.0000 O   0  0  0  0  0  0  0  0  0  0  0  0
    1.2039    0.0000    0.0000 C   0  0  0  0  0  0  0  0  0  0  0  0
    1.8920    0.0000    1.1667 O   0  0  0  0  0  0  0  0  0  0  0  0
    2.1189    0.0461   -1.1938 C   0  0  1  0  0  0  0  0  0  0  0  0
    2.2744    1.1411   -1.4553 H   0  0  0  0  0  0  0  0  0  0  0  0
    3.5276   -0.5363   -0.8992 C   0  0  1  0  0  0  0  0  0  0  0  0
    3.8581   -0.2883    0.1409 H   0  0  0  0  0  0  0  0  0  0  0  0
    3.6376   -2.0056   -1.1955 C   0  0  0  0  0  0  0  0  0  0  0  0
    2.8261   -2.6141   -2.0715 C   0  0  0  0  0  0  0  0  0  0  0  0
    1.7681   -1.8747   -2.7432 C   0  0  0  0  0  0  0  0  0  0  0  0
    1.4385   -0.6395   -2.3364 C   0  0  0  0  0  0  0  0  0  0  0  0
    0.3795    0.1594   -3.0109 C   0  0  0  0  0  0  0  0  0  0  0  0
    0.6523    1.1828   -3.5865 O   0  0  0  0  0  0  0  0  0  0  0  0
   -1.0282   -0.3600   -2.8853 C   0  0  0  0  0  0  0  0  0  0  0  0
   -1.9202    0.1591   -4.0056 C   0  0  0  0  0  0  0  0  0  0  0  0
   -1.6804   -0.6139   -5.2633 C   0  0  0  0  0  0  0  0  0  0  0  0
   -0.8831   -1.4884   -5.4810 O   0  0  0  0  0  0  0  0  0  0  0  0
   -2.5465   -0.2087   -6.2300 O   0  0  0  0  0  0  0  0  0  0  0  0
    4.4716    0.1614   -1.6803 O   0  0  0  0  0  0  0  0  0  0  0  0
    1.3100    0.0051    1.9698 H   0  0  0  0  0  0  0  0  0  0  0  0
    4.4466   -2.5189   -0.6826 H   0  0  0  0  0  0  0  0  0  0  0  0
    2.9211   -3.6719   -2.3147 H   0  0  0  0  0  0  0  0  0  0  0  0
    1.2695   -2.3634   -3.5859 H   0  0  0  0  0  0  0  0  0  0  0  0
   -1.4236   -0.0460   -1.8870 H   0  0  0  0  0  0  0  0  0  0  0  0
   -1.0390   -1.4703   -2.8510 H   0  0  0  0  0  0  0  0  0  0  0  0
   -1.7282    1.2463   -4.1921 H   0  0  0  0  0  0  0  0  0  0  0  0
   -2.9946    0.1056   -3.7230 H   0  0  0  0  0  0  0  0  0  0  0  0
   -2.4339   -0.6817   -7.0893 H   0  0  0  0  0  0  0  0  0  0  0  0
    4.2984    0.0340   -2.6383 H   0  0  0  0  0  0  0  0  0  0  0  0
  2  1  2  0  0  0  0
  2  3  1  0  0  0  0
  3 20  1  0  0  0  0
  4  6  1  0  0  0  0
  4  2  1  0  0  0  0
  4  5  1  6  0  0  0
  6  7  1  1  0  0  0
  8  6  1  0  0  0  0
  8 21  1  0  0  0  0
  9  8  2  0  0  0  0
 10 11  2  0  0  0  0
 10  9  1  0  0  0  0
 11  4  1  0  0  0  0
 12 14  1  0  0  0  0
 12 11  1  0  0  0  0
 13 12  2  0  0  0  0
 14 25  1  0  0  0  0
 14 24  1  0  0  0  0
 15 27  1  0  0  0  0
 15 14  1  0  0  0  0
 16 15  1  0  0  0  0
 17 16  2  0  0  0  0
 18 16  1  0  0  0  0
 19  6  1  0  0  0  0
 22  9  1  0  0  0  0
 23 10  1  0  0  0  0
 26 15  1  0  0  0  0
 28 18  1  0  0  0  0
 29 19  1  0  0  0  0
M  END
$$$$
