29
rmsd117.gzmat
O          0.00000        0.00000        0.00000
C          1.20260        0.00000        0.00000
O          1.89710        0.00000        1.16320
C          2.13080        0.03410       -1.18500
H          2.58740        1.07300       -1.24200
C          3.31640       -0.95390       -1.01520
H          3.64800       -0.99590        0.05410
C          3.04040       -2.31760       -1.58220
C          2.12550       -2.51310       -2.54150
C          1.32110       -1.40930       -3.04380
C          1.32330       -0.22280       -2.41740
C          0.51690        0.93960       -2.88200
O          1.03990        2.00460       -3.09800
C         -0.95900        0.70420       -3.02420
C         -1.70420        2.00050       -3.32480
C         -3.03990        1.70270       -3.92150
O         -3.41820        0.70310       -4.47400
O         -3.86580        2.77360       -3.78620
O          4.45050       -0.41070       -1.65190
H          1.32080       -0.00110        1.96980
H          3.66610       -3.11520       -1.18930
H          1.94220       -3.49500       -2.97780
H          0.72610       -1.59670       -3.93870
H         -1.34950        0.23610       -2.08740
H         -1.14930       -0.05510       -3.81750
H         -1.11890        2.64440       -4.02660
H         -1.80550        2.62470       -2.40800
H         -4.76190        2.63700       -4.17990
H          4.33990       -0.39850       -2.62680
