29

O          0.56300       -0.39840        0.66300
C          1.62130        0.07010        0.33030
O          2.43210        0.71960        1.18820
C          2.20840        0.03090       -1.07880
H          2.27690        1.08310       -1.39710
C          3.64380       -0.53970       -1.10040
H          4.17090       -0.16480       -0.21340
C          3.63810       -2.04950       -1.11500
C          2.61790       -2.72390       -1.68300
C          1.45880       -2.02280       -2.22290
C          1.25650       -0.70610       -1.98280
C          0.08670        0.06370       -2.47990
O          0.02740        1.26760       -2.29320
C         -1.02260       -0.67680       -3.20540
C         -2.17760        0.23190       -3.59320
C         -3.14690       -0.43810       -4.53570
O         -2.95330       -1.47360       -5.12600
O         -4.28320        0.27220       -4.67330
O          4.39060       -0.05600       -2.20590
H          1.98450        0.71860        2.05150
H          4.53170       -2.57040       -0.76270
H          2.65630       -3.81160       -1.78130
H          0.75440       -2.59310       -2.83120
H         -1.37390       -1.50330       -2.56680
H         -0.61190       -1.16230       -4.10550
H         -1.80270        1.14420       -4.08590
H         -2.72580        0.59760       -2.71210
H         -4.83730       -0.20830       -5.31190
H          4.02030       -0.45460       -3.00630
