29
rmsd54.gzmat
O          0.00000        0.00000        0.00000
C          1.20320        0.00000        0.00000
O          1.89530        0.00000        1.16570
C          2.12740        0.03810       -1.18660
H          2.45440        1.11670       -1.33400
C          3.42420       -0.78270       -0.95590
H          3.77940       -0.68410        0.10110
C          3.30350       -2.21780       -1.38660
C          2.41380       -2.60390       -2.31160
C          1.49730       -1.64510       -2.90950
C          1.36060       -0.41550       -2.38870
C          0.45440        0.60330       -2.97520
O          0.85540        1.71290       -3.23010
C         -0.98410        0.20860       -3.20690
C         -1.47630        0.74250       -4.54750
C         -0.94680       -0.09120       -5.67040
O         -0.27830       -1.09170       -5.62470
O         -1.33350        0.42930       -6.86280
O          4.47210       -0.17400       -1.67690
H          1.31750       -0.00030        1.96990
H          4.01660       -2.89900       -0.92950
H          2.33710       -3.63620       -2.65230
H          0.94250       -1.96830       -3.79830
H         -1.59200        0.62280       -2.36780
H         -1.12300       -0.89090       -3.13940
H         -1.16150        1.80800       -4.68590
H         -2.58730        0.76830       -4.58770
H         -0.99670       -0.07250       -7.64540
H          4.31300       -0.22960       -2.64420
