29

O          0.35170        0.15330        0.17810
C          1.50360        0.37030       -0.09750
O          2.33740        1.03210        0.72890
C          2.20150       -0.03510       -1.39360
H          2.49920        0.90970       -1.87540
C          3.49640       -0.83660       -1.13570
H          4.00260       -0.39390       -0.26770
C          3.20170       -2.29680       -0.88830
C          2.12620       -2.88310       -1.45240
C          1.18120       -2.11130       -2.25100
C          1.21660       -0.75820       -2.27320
C          0.27310        0.08920       -3.04300
O          0.41890        1.29970       -3.06380
C         -0.89220       -0.56630       -3.77100
C         -1.64320        0.43140       -4.63790
C         -0.79980        0.89600       -5.80400
O          0.19660        0.34420       -6.20380
O         -1.30650        1.99670       -6.38750
O          4.42010       -0.71140       -2.20520
H          1.81920        1.26990        1.51680
H          3.94370       -2.88540       -0.34260
H          1.96320       -3.95950       -1.35440
H          0.44220       -2.65870       -2.83920
H         -1.56150       -1.00420       -3.01180
H         -0.51590       -1.39540       -4.38840
H         -1.95200        1.31400       -4.06100
H         -2.55990       -0.02090       -5.05230
H         -0.71600        2.21630       -7.12860
H          4.04040       -1.15850       -2.97550
