
     RDKit          3D

 29 29  0  0  0  0  0  0  0  0999 V2000
    0.2569   -1.0572   -0.6377 O   0  0  0  0  0  0  0  0  0  0  0  0
    1.2869   -0.5176   -0.3215 C   0  0  0  0  0  0  0  0  0  0  0  0
    1.6551   -0.3560    0.9617 O   0  0  0  0  0  0  0  0  0  0  0  0
    2.3173    0.0227   -1.3148 C   0  0  1  0  0  0  0  0  0  0  0  0
    2.8963   -0.8641   -1.6234 H   0  0  0  0  0  0  0  0  0  0  0  0
    1.6003    0.5696   -2.5634 C   0  0  1  0  0  0  0  0  0  0  0  0
    0.7306   -0.0767   -2.7442 H   0  0  0  0  0  0  0  0  0  0  0  0
    1.1579    1.9987   -2.3598 C   0  0  0  0  0  0  0  0  0  0  0  0
    1.8344    2.8180   -1.5279 C   0  0  0  0  0  0  0  0  0  0  0  0
    2.9799    2.3341   -0.7671 C   0  0  0  0  0  0  0  0  0  0  0  0
    3.2614    1.0112   -0.6812 C   0  0  0  0  0  0  0  0  0  0  0  0
    4.4420    0.4557    0.0265 C   0  0  0  0  0  0  0  0  0  0  0  0
    4.7127   -0.7292   -0.0689 O   0  0  0  0  0  0  0  0  0  0  0  0
    5.2928    1.3785    0.8890 C   0  0  0  0  0  0  0  0  0  0  0  0
    6.5380    0.6738    1.4031 C   0  0  0  0  0  0  0  0  0  0  0  0
    7.5013    0.3647    0.2786 C   0  0  0  0  0  0  0  0  0  0  0  0
    7.4825    0.8811   -0.8121 O   0  0  0  0  0  0  0  0  0  0  0  0
    8.4268   -0.5410    0.6406 O   0  0  0  0  0  0  0  0  0  0  0  0
    2.3968    0.4772   -3.7327 O   0  0  0  0  0  0  0  0  0  0  0  0
    0.9649   -0.7747    1.5048 H   0  0  0  0  0  0  0  0  0  0  0  0
    0.3476    2.3776   -2.9880 H   0  0  0  0  0  0  0  0  0  0  0  0
    1.5695    3.8757   -1.4503 H   0  0  0  0  0  0  0  0  0  0  0  0
    3.6239    3.0733   -0.2868 H   0  0  0  0  0  0  0  0  0  0  0  0
    4.6693    1.7326    1.7269 H   0  0  0  0  0  0  0  0  0  0  0  0
    5.5780    2.2642    0.3021 H   0  0  0  0  0  0  0  0  0  0  0  0
    6.2887   -0.2663    1.9139 H   0  0  0  0  0  0  0  0  0  0  0  0
    7.0732    1.3063    2.1313 H   0  0  0  0  0  0  0  0  0  0  0  0
    9.0081   -0.6691   -0.1286 H   0  0  0  0  0  0  0  0  0  0  0  0
    3.1366    1.0939   -3.6355 H   0  0  0  0  0  0  0  0  0  0  0  0
  1  2  2  0
  2  3  1  0
  2  4  1  0
  3 20  1  0
  4  5  1  6
  4  6  1  0
  4 11  1  0
  6  7  1  6
  6  8  1  0
  6 19  1  0
  8  9  2  0
  8 21  1  0
  9 10  1  0
  9 22  1  0
 10 11  2  0
 10 23  1  0
 11 12  1  0
 12 13  2  0
 12 14  1  0
 14 15  1  0
 14 24  1  0
 14 25  1  0
 15 16  1  0
 15 26  1  0
 15 27  1  0
 16 17  2  0
 16 18  1  0
 18 28  1  0
 19 29  1  0
M  END

