
     RDKit          3D

 49 52  0  0  0  0  0  0  0  0999 V2000
   -0.5306    0.5346   -0.1560 O   0  0  0  0  0  0  0  0  0  0  0  0
    0.7894    0.8567   -0.0478 C   0  0  0  0  0  0  0  0  0  0  0  0
    1.2138    1.2158    1.0144 O   0  0  0  0  0  0  0  0  0  0  0  0
    1.5796    0.7672   -1.3253 C   0  0  0  0  0  0  0  0  0  0  0  0
    1.1789   -0.4291   -2.2077 C   0  0  1  0  0  0  0  0  0  0  0  0
    1.4828   -1.3532   -1.6825 H   0  0  0  0  0  0  0  0  0  0  0  0
   -0.3334   -0.4348   -2.3661 C   0  0  0  0  0  0  0  0  0  0  0  0
   -1.0296   -1.0301   -3.4423 C   0  0  0  0  0  0  0  0  0  0  0  0
   -0.4191   -1.6411   -4.4780 O   0  0  0  0  0  0  0  0  0  0  0  0
   -2.4288   -1.0209   -3.4767 C   0  0  0  0  0  0  0  0  0  0  0  0
   -3.1725   -0.4707   -2.4326 C   0  0  0  0  0  0  0  0  0  0  0  0
   -4.5186   -0.4398   -2.4703 O   0  0  0  0  0  0  0  0  0  0  0  0
   -2.5197    0.1071   -1.3194 C   0  0  0  0  0  0  0  0  0  0  0  0
   -1.1184    0.0837   -1.3245 C   0  0  0  0  0  0  0  0  0  0  0  0
   -3.3040    0.6505   -0.1551 C   0  0  0  0  0  0  0  0  0  0  0  0
   -4.2590    0.0484    0.2870 O   0  0  0  0  0  0  0  0  0  0  0  0
   -2.8988    1.9934    0.4388 C   0  0  0  0  0  0  0  0  0  0  0  0
   -2.5952    1.8850    1.9451 C   0  0  0  0  0  0  0  0  0  0  0  0
   -2.1989    3.2124    2.5423 C   0  0  0  0  0  0  0  0  0  0  0  0
   -0.8462    3.5744    2.6385 C   0  0  0  0  0  0  0  0  0  0  0  0
   -0.4780    4.8221    3.1495 C   0  0  0  0  0  0  0  0  0  0  0  0
   -1.4555    5.7279    3.5710 C   0  0  0  0  0  0  0  0  0  0  0  0
   -2.8057    5.3766    3.4803 C   0  0  0  0  0  0  0  0  0  0  0  0
   -3.1715    4.1291    2.9696 C   0  0  0  0  0  0  0  0  0  0  0  0
    1.9708   -0.3663   -3.5053 C   0  0  0  0  0  0  0  0  0  0  0  0
    3.0007   -1.2843   -3.7570 C   0  0  0  0  0  0  0  0  0  0  0  0
    3.7619   -1.2020   -4.9276 C   0  0  0  0  0  0  0  0  0  0  0  0
    3.5019   -0.1975   -5.8615 C   0  0  0  0  0  0  0  0  0  0  0  0
    2.4761    0.7236   -5.6215 C   0  0  0  0  0  0  0  0  0  0  0  0
    1.7182    0.6401   -4.4539 C   0  0  0  0  0  0  0  0  0  0  0  0
    2.6460    0.7476   -1.0686 H   0  0  0  0  0  0  0  0  0  0  0  0
    1.3905    1.7027   -1.8806 H   0  0  0  0  0  0  0  0  0  0  0  0
    0.5400   -1.5035   -4.4402 H   0  0  0  0  0  0  0  0  0  0  0  0
   -2.9218   -1.4705   -4.3413 H   0  0  0  0  0  0  0  0  0  0  0  0
   -4.8251   -0.8472   -3.2909 H   0  0  0  0  0  0  0  0  0  0  0  0
   -3.7628    2.6642    0.2915 H   0  0  0  0  0  0  0  0  0  0  0  0
   -2.0471    2.4365   -0.0927 H   0  0  0  0  0  0  0  0  0  0  0  0
   -1.7824    1.1580    2.0872 H   0  0  0  0  0  0  0  0  0  0  0  0
   -3.4901    1.4828    2.4440 H   0  0  0  0  0  0  0  0  0  0  0  0
   -0.0793    2.8663    2.3133 H   0  0  0  0  0  0  0  0  0  0  0  0
    0.5803    5.0859    3.2227 H   0  0  0  0  0  0  0  0  0  0  0  0
   -1.1669    6.7023    3.9732 H   0  0  0  0  0  0  0  0  0  0  0  0
   -3.5771    6.0758    3.8133 H   0  0  0  0  0  0  0  0  0  0  0  0
   -4.2292    3.8568    2.9053 H   0  0  0  0  0  0  0  0  0  0  0  0
    3.2059   -2.0729   -3.0281 H   0  0  0  0  0  0  0  0  0  0  0  0
    4.5589   -1.9269   -5.1081 H   0  0  0  0  0  0  0  0  0  0  0  0
    4.0932   -0.1332   -6.7776 H   0  0  0  0  0  0  0  0  0  0  0  0
    2.2628    1.5077   -6.3515 H   0  0  0  0  0  0  0  0  0  0  0  0
    0.9061    1.3508   -4.2803 H   0  0  0  0  0  0  0  0  0  0  0  0
  1  2  1  0
  1 14  1  0
  2  3  2  0
  2  4  1  0
  4  5  1  0
  4 31  1  0
  4 32  1  0
  5  6  1  1
  5  7  1  0
  5 25  1  0
  7  8  1  0
  7 14  2  0
  8  9  1  0
  8 10  2  0
  9 33  1  0
 10 11  1  0
 10 34  1  0
 11 12  1  0
 11 13  2  0
 12 35  1  0
 13 14  1  0
 13 15  1  0
 15 16  2  0
 15 17  1  0
 17 18  1  0
 17 36  1  0
 17 37  1  0
 18 19  1  0
 18 38  1  0
 18 39  1  0
 19 20  2  0
 19 24  1  0
 20 21  1  0
 20 40  1  0
 21 22  2  0
 21 41  1  0
 22 23  1  0
 22 42  1  0
 23 24  2  0
 23 43  1  0
 24 44  1  0
 25 26  2  0
 25 30  1  0
 26 27  1  0
 26 45  1  0
 27 28  2  0
 27 46  1  0
 28 29  1  0
 28 47  1  0
 29 30  2  0
 29 48  1  0
 30 49  1  0
M  END

