rmsd135.gzmat
 OpenBabel08211713413D

 49 52  0  0  1  0  0  0  0  0999 V2000
    0.0000    0.0000    0.0000 O   0  0  0  0  0  0  0  0  0  0  0  0
    1.3916    0.0000    0.0000 C   0  0  0  0  0  0  0  0  0  0  0  0
    1.8970    0.0000    1.0830 O   0  0  0  0  0  0  0  0  0  0  0  0
    2.0594    0.0548   -1.3306 C   0  0  0  0  0  0  0  0  0  0  0  0
    1.4059   -0.9242   -2.3274 C   0  0  1  0  0  0  0  0  0  0  0  0
    1.6612   -1.9748   -2.0138 H   0  0  0  0  0  0  0  0  0  0  0  0
   -0.0824   -0.7781   -2.2920 C   0  0  0  0  0  0  0  0  0  0  0  0
   -0.9462   -1.1735   -3.3263 C   0  0  0  0  0  0  0  0  0  0  0  0
   -0.5513   -1.8011   -4.4475 O   0  0  0  0  0  0  0  0  0  0  0  0
   -2.3314   -0.9650   -3.2699 C   0  0  0  0  0  0  0  0  0  0  0  0
   -2.8575   -0.3664   -2.1287 C   0  0  0  0  0  0  0  0  0  0  0  0
   -4.1771   -0.1152   -1.9925 O   0  0  0  0  0  0  0  0  0  0  0  0
   -2.0560    0.0053   -1.0423 C   0  0  0  0  0  0  0  0  0  0  0  0
   -0.6842   -0.2414   -1.1443 C   0  0  0  0  0  0  0  0  0  0  0  0
   -2.6196    0.6618    0.1609 C   0  0  0  0  0  0  0  0  0  0  0  0
   -2.2068    1.7248    0.5468 O   0  0  0  0  0  0  0  0  0  0  0  0
   -3.7352   -0.0794    0.8506 C   0  0  0  0  0  0  0  0  0  0  0  0
   -3.7264    0.2102    2.3552 C   0  0  0  0  0  0  0  0  0  0  0  0
   -4.9167   -0.4318    2.9975 C   0  0  0  0  0  0  0  0  0  0  0  0
   -4.8989   -1.7962    3.2990 C   0  0  0  0  0  0  0  0  0  0  0  0
   -6.0139   -2.3985    3.8759 C   0  0  0  0  0  0  0  0  0  0  0  0
   -7.1499   -1.6417    4.1595 C   0  0  0  0  0  0  0  0  0  0  0  0
   -7.1679   -0.2803    3.8629 C   0  0  0  0  0  0  0  0  0  0  0  0
   -6.0553    0.3243    3.2821 C   0  0  0  0  0  0  0  0  0  0  0  0
    2.0041   -0.6374   -3.6823 C   0  0  0  0  0  0  0  0  0  0  0  0
    2.9533   -1.5107   -4.2157 C   0  0  0  0  0  0  0  0  0  0  0  0
    3.5187   -1.2484   -5.4618 C   0  0  0  0  0  0  0  0  0  0  0  0
    3.1413   -0.1133   -6.1761 C   0  0  0  0  0  0  0  0  0  0  0  0
    2.1966    0.7624   -5.6423 C   0  0  0  0  0  0  0  0  0  0  0  0
    1.6280    0.5019   -4.3987 C   0  0  0  0  0  0  0  0  0  0  0  0
    3.1450   -0.1637   -1.2308 H   0  0  0  0  0  0  0  0  0  0  0  0
    2.0092    1.0987   -1.7206 H   0  0  0  0  0  0  0  0  0  0  0  0
    0.4290   -1.9467   -4.5123 H   0  0  0  0  0  0  0  0  0  0  0  0
   -2.9531   -1.2743   -4.1023 H   0  0  0  0  0  0  0  0  0  0  0  0
   -4.6982   -0.3764   -2.7953 H   0  0  0  0  0  0  0  0  0  0  0  0
   -3.6669   -1.1691    0.6655 H   0  0  0  0  0  0  0  0  0  0  0  0
   -4.7027    0.2332    0.3981 H   0  0  0  0  0  0  0  0  0  0  0  0
   -3.7102    1.3084    2.5291 H   0  0  0  0  0  0  0  0  0  0  0  0
   -2.7816   -0.1562    2.8090 H   0  0  0  0  0  0  0  0  0  0  0  0
   -4.0117   -2.3873    3.0831 H   0  0  0  0  0  0  0  0  0  0  0  0
   -5.9989   -3.4611    4.1082 H   0  0  0  0  0  0  0  0  0  0  0  0
   -8.0183   -2.1118    4.6137 H   0  0  0  0  0  0  0  0  0  0  0  0
   -8.0524    0.3123    4.0873 H   0  0  0  0  0  0  0  0  0  0  0  0
   -6.0748    1.3871    3.0502 H   0  0  0  0  0  0  0  0  0  0  0  0
    3.2630   -2.3951   -3.6608 H   0  0  0  0  0  0  0  0  0  0  0  0
    4.2582   -1.9315   -5.8768 H   0  0  0  0  0  0  0  0  0  0  0  0
    3.5844    0.0907   -7.1493 H   0  0  0  0  0  0  0  0  0  0  0  0
    1.9021    1.6510   -6.1991 H   0  0  0  0  0  0  0  0  0  0  0  0
    0.8818    1.1828   -3.9862 H   0  0  0  0  0  0  0  0  0  0  0  0
  2  1  1  0  0  0  0
  2  3  2  0  0  0  0
  4 31  1  0  0  0  0
  4  2  1  0  0  0  0
  5  7  1  0  0  0  0
  5  6  1  1  0  0  0
  5  4  1  0  0  0  0
  7 14  2  0  0  0  0
  8 10  2  0  0  0  0
  8  7  1  0  0  0  0
  9  8  1  0  0  0  0
 10 11  1  0  0  0  0
 11 12  1  0  0  0  0
 11 13  2  0  0  0  0
 13 15  1  0  0  0  0
 14 13  1  0  0  0  0
 14  1  1  0  0  0  0
 15 16  2  0  0  0  0
 15 17  1  0  0  0  0
 17 18  1  0  0  0  0
 18 38  1  0  0  0  0
 18 39  1  0  0  0  0
 18 19  1  0  0  0  0
 19 24  2  0  0  0  0
 19 20  1  0  0  0  0
 20 21  2  0  0  0  0
 21 41  1  0  0  0  0
 21 22  1  0  0  0  0
 22 42  1  0  0  0  0
 23 43  1  0  0  0  0
 23 22  2  0  0  0  0
 24 23  1  0  0  0  0
 25  5  1  0  0  0  0
 26 25  1  0  0  0  0
 26 45  1  0  0  0  0
 27 26  2  0  0  0  0
 28 29  2  0  0  0  0
 28 27  1  0  0  0  0
 29 30  1  0  0  0  0
 30 49  1  0  0  0  0
 30 25  2  0  0  0  0
 32  4  1  0  0  0  0
 33  9  1  0  0  0  0
 34 10  1  0  0  0  0
 35 12  1  0  0  0  0
 36 17  1  0  0  0  0
 37 17  1  0  0  0  0
 40 20  1  0  0  0  0
 44 24  1  0  0  0  0
 46 27  1  0  0  0  0
 47 28  1  0  0  0  0
 48 29  1  0  0  0  0
M  END
$$$$
