49
rmsd248.gzmat
O          0.00000        0.00000        0.00000
C          1.39000        0.00000        0.00000
O          1.88980        0.00000        1.08600
C          2.06720        0.07840       -1.32340
C          1.39120       -0.82620       -2.37290
H          1.61870       -1.89930       -2.11610
C         -0.09410       -0.65210       -2.33360
C         -0.96140       -0.95770       -3.39680
O         -0.57520       -1.49390       -4.56750
C         -2.34330       -0.73760       -3.32630
C         -2.87230       -0.25150       -2.13280
O         -4.18190        0.02910       -1.98670
C         -2.06870        0.00210       -1.01250
C         -0.69610       -0.21060       -1.14770
C         -2.67650        0.40460        0.28090
O         -3.40540       -0.33370        0.88960
C         -2.31960        1.78570        0.76350
C         -3.07010        2.12140        2.05680
C         -2.67810        3.48370        2.53630
C         -1.46240        3.66440        3.20120
C         -1.08820        4.93210        3.63760
C         -1.92570        6.02510        3.41680
C         -3.13960        5.84590        2.75610
C         -3.51500        4.57880        2.31460
C          2.00250       -0.48280       -3.70890
C          2.91130       -1.36170       -4.30110
C          3.47390       -1.05310       -5.53820
C          3.13590        0.13490       -6.18310
C          2.23730        1.01920       -5.58690
C          1.67120        0.71190       -4.35290
H          3.14250       -0.18880       -1.22350
H          2.06670        1.13960       -1.66730
H          0.39960       -1.66550       -4.64130
H         -2.96440       -0.96120       -4.18620
H         -4.71520       -0.22120       -2.78570
H         -2.54520        2.53300       -0.02380
H         -1.22200        1.84950        0.92900
H         -2.85310        1.35060        2.82890
H         -4.16470        2.04310        1.89040
H         -0.80950        2.81160        3.37940
H         -0.14100        5.07010        4.15430
H         -1.63260        7.01350        3.76110
H         -3.79660        6.69580        2.58520
H         -4.46220        4.44380        1.79740
H          3.18900       -2.28780       -3.79960
H          4.17950       -1.74210       -6.00130
H          3.57260        0.37260       -7.15190
H          1.97450        1.94970       -6.08850
H          0.95910        1.39840       -3.89260
