rmsd109.gzmat
 OpenBabel08211713413D

 49 52  0  0  1  0  0  0  0  0999 V2000
    0.0000    0.0000    0.0000 O   0  0  0  0  0  0  0  0  0  0  0  0
    1.3919    0.0000    0.0000 C   0  0  0  0  0  0  0  0  0  0  0  0
    1.8972    0.0000    1.0830 O   0  0  0  0  0  0  0  0  0  0  0  0
    2.0587    0.0588   -1.3308 C   0  0  0  0  0  0  0  0  0  0  0  0
    1.4152   -0.9247   -2.3295 C   0  0  1  0  0  0  0  0  0  0  0  0
    1.7005   -1.9721   -2.0317 H   0  0  0  0  0  0  0  0  0  0  0  0
   -0.0760   -0.8151   -2.2793 C   0  0  0  0  0  0  0  0  0  0  0  0
   -0.9372   -1.2476   -3.3013 C   0  0  0  0  0  0  0  0  0  0  0  0
   -0.5329   -1.8851   -4.4137 O   0  0  0  0  0  0  0  0  0  0  0  0
   -2.3260   -1.0694   -3.2400 C   0  0  0  0  0  0  0  0  0  0  0  0
   -2.8583   -0.4555   -2.1095 C   0  0  0  0  0  0  0  0  0  0  0  0
   -4.1823   -0.2291   -1.9711 O   0  0  0  0  0  0  0  0  0  0  0  0
   -2.0584   -0.0405   -1.0375 C   0  0  0  0  0  0  0  0  0  0  0  0
   -0.6828   -0.2691   -1.1385 C   0  0  0  0  0  0  0  0  0  0  0  0
   -2.6258    0.6507    0.1429 C   0  0  0  0  0  0  0  0  0  0  0  0
   -2.2150    1.7274    0.4929 O   0  0  0  0  0  0  0  0  0  0  0  0
   -3.7406   -0.0581    0.8705 C   0  0  0  0  0  0  0  0  0  0  0  0
   -3.3781   -0.1968    2.3549 C   0  0  0  0  0  0  0  0  0  0  0  0
   -4.5576   -0.7258    3.1106 C   0  0  0  0  0  0  0  0  0  0  0  0
   -4.8186   -2.0979    3.1338 C   0  0  0  0  0  0  0  0  0  0  0  0
   -5.9315   -2.5848    3.8154 C   0  0  0  0  0  0  0  0  0  0  0  0
   -6.7844   -1.7057    4.4815 C   0  0  0  0  0  0  0  0  0  0  0  0
   -6.5223   -0.3368    4.4631 C   0  0  0  0  0  0  0  0  0  0  0  0
   -5.4121    0.1535    3.7797 C   0  0  0  0  0  0  0  0  0  0  0  0
    1.9873   -0.6073   -3.6897 C   0  0  0  0  0  0  0  0  0  0  0  0
    2.9725   -1.4323   -4.2347 C   0  0  0  0  0  0  0  0  0  0  0  0
    3.5067   -1.1437   -5.4891 C   0  0  0  0  0  0  0  0  0  0  0  0
    3.0583   -0.0332   -6.2015 C   0  0  0  0  0  0  0  0  0  0  0  0
    2.0787    0.7951   -5.6548 C   0  0  0  0  0  0  0  0  0  0  0  0
    1.5471    0.5122   -4.3998 C   0  0  0  0  0  0  0  0  0  0  0  0
    3.1459   -0.1508   -1.2306 H   0  0  0  0  0  0  0  0  0  0  0  0
    2.0007    1.1028   -1.7204 H   0  0  0  0  0  0  0  0  0  0  0  0
    0.4513   -1.9987   -4.4851 H   0  0  0  0  0  0  0  0  0  0  0  0
   -2.9461   -1.4103   -4.0609 H   0  0  0  0  0  0  0  0  0  0  0  0
   -4.7010   -0.5168   -2.7668 H   0  0  0  0  0  0  0  0  0  0  0  0
   -3.9586   -1.0489    0.4288 H   0  0  0  0  0  0  0  0  0  0  0  0
   -4.6762    0.5302    0.7526 H   0  0  0  0  0  0  0  0  0  0  0  0
   -3.0495    0.7879    2.7557 H   0  0  0  0  0  0  0  0  0  0  0  0
   -2.4974   -0.8613    2.4742 H   0  0  0  0  0  0  0  0  0  0  0  0
   -4.1520   -2.7858    2.6189 H   0  0  0  0  0  0  0  0  0  0  0  0
   -6.1354   -3.6533    3.8295 H   0  0  0  0  0  0  0  0  0  0  0  0
   -7.6510   -2.0872    5.0156 H   0  0  0  0  0  0  0  0  0  0  0  0
   -7.1862    0.3502    4.9836 H   0  0  0  0  0  0  0  0  0  0  0  0
   -5.2100    1.2232    3.7663 H   0  0  0  0  0  0  0  0  0  0  0  0
    3.3337   -2.2986   -3.6824 H   0  0  0  0  0  0  0  0  0  0  0  0
    4.2765   -1.7871   -5.9127 H   0  0  0  0  0  0  0  0  0  0  0  0
    3.4735    0.1886   -7.1835 H   0  0  0  0  0  0  0  0  0  0  0  0
    1.7266    1.6631   -6.2112 H   0  0  0  0  0  0  0  0  0  0  0  0
    0.7786    1.1595   -3.9737 H   0  0  0  0  0  0  0  0  0  0  0  0
  2  1  1  0  0  0  0
  2  3  2  0  0  0  0
  4 31  1  0  0  0  0
  4  2  1  0  0  0  0
  5  7  1  0  0  0  0
  5  6  1  1  0  0  0
  5  4  1  0  0  0  0
  7 14  2  0  0  0  0
  8 10  2  0  0  0  0
  8  7  1  0  0  0  0
  9  8  1  0  0  0  0
 10 11  1  0  0  0  0
 11 12  1  0  0  0  0
 11 13  2  0  0  0  0
 13 15  1  0  0  0  0
 14 13  1  0  0  0  0
 14  1  1  0  0  0  0
 15 16  2  0  0  0  0
 15 17  1  0  0  0  0
 17 18  1  0  0  0  0
 18 39  1  0  0  0  0
 18 38  1  0  0  0  0
 18 19  1  0  0  0  0
 19 20  2  0  0  0  0
 19 24  1  0  0  0  0
 20 21  1  0  0  0  0
 21 41  1  0  0  0  0
 21 22  2  0  0  0  0
 22 42  1  0  0  0  0
 23 22  1  0  0  0  0
 23 43  1  0  0  0  0
 24 23  2  0  0  0  0
 25  5  1  0  0  0  0
 26 25  1  0  0  0  0
 26 45  1  0  0  0  0
 27 26  2  0  0  0  0
 28 29  2  0  0  0  0
 28 27  1  0  0  0  0
 29 30  1  0  0  0  0
 30 49  1  0  0  0  0
 30 25  2  0  0  0  0
 32  4  1  0  0  0  0
 33  9  1  0  0  0  0
 34 10  1  0  0  0  0
 35 12  1  0  0  0  0
 36 17  1  0  0  0  0
 37 17  1  0  0  0  0
 40 20  1  0  0  0  0
 44 24  1  0  0  0  0
 46 27  1  0  0  0  0
 47 28  1  0  0  0  0
 48 29  1  0  0  0  0
M  END
$$$$
