rmsd115.gzmat
 OpenBabel08211713413D

 49 52  0  0  1  0  0  0  0  0999 V2000
    0.0000    0.0000    0.0000 O   0  0  0  0  0  0  0  0  0  0  0  0
    1.3904    0.0000    0.0000 C   0  0  0  0  0  0  0  0  0  0  0  0
    1.8899    0.0000    1.0866 O   0  0  0  0  0  0  0  0  0  0  0  0
    2.0628    0.0743   -1.3256 C   0  0  0  0  0  0  0  0  0  0  0  0
    1.4037   -0.8601   -2.3611 C   0  0  1  0  0  0  0  0  0  0  0  0
    1.6750   -1.9223   -2.1058 H   0  0  0  0  0  0  0  0  0  0  0  0
   -0.0857   -0.7369   -2.3066 C   0  0  0  0  0  0  0  0  0  0  0  0
   -0.9510   -1.1120   -3.3498 C   0  0  0  0  0  0  0  0  0  0  0  0
   -0.5511   -1.6948   -4.4937 O   0  0  0  0  0  0  0  0  0  0  0  0
   -2.3366   -0.9257   -3.2797 C   0  0  0  0  0  0  0  0  0  0  0  0
   -2.8695   -0.3664   -2.1188 C   0  0  0  0  0  0  0  0  0  0  0  0
   -4.1904   -0.1581   -1.9646 O   0  0  0  0  0  0  0  0  0  0  0  0
   -2.0642   -0.0260   -1.0221 C   0  0  0  0  0  0  0  0  0  0  0  0
   -0.6925   -0.2512   -1.1417 C   0  0  0  0  0  0  0  0  0  0  0  0
   -2.6516    0.5666    0.2024 C   0  0  0  0  0  0  0  0  0  0  0  0
   -3.2981    1.5819    0.1597 O   0  0  0  0  0  0  0  0  0  0  0  0
   -2.3722   -0.1627    1.4929 C   0  0  0  0  0  0  0  0  0  0  0  0
   -3.5880   -0.1183    2.4261 C   0  0  0  0  0  0  0  0  0  0  0  0
   -4.5823   -1.1757    2.0501 C   0  0  0  0  0  0  0  0  0  0  0  0
   -4.7121   -2.3271    2.8283 C   0  0  0  0  0  0  0  0  0  0  0  0
   -5.6281   -3.3143    2.4697 C   0  0  0  0  0  0  0  0  0  0  0  0
   -6.4150   -3.1574    1.3313 C   0  0  0  0  0  0  0  0  0  0  0  0
   -6.2889   -2.0065    0.5540 C   0  0  0  0  0  0  0  0  0  0  0  0
   -5.3788   -1.0168    0.9130 C   0  0  0  0  0  0  0  0  0  0  0  0
    1.9839   -0.4942   -3.7056 C   0  0  0  0  0  0  0  0  0  0  0  0
    2.9585   -1.3096   -4.2831 C   0  0  0  0  0  0  0  0  0  0  0  0
    3.5060   -0.9718   -5.5192 C   0  0  0  0  0  0  0  0  0  0  0  0
    3.0837    0.1801   -6.1797 C   0  0  0  0  0  0  0  0  0  0  0  0
    2.1168    1.0002   -5.5994 C   0  0  0  0  0  0  0  0  0  0  0  0
    1.5678    0.6652   -4.3650 C   0  0  0  0  0  0  0  0  0  0  0  0
    3.1443   -0.1656   -1.2259 H   0  0  0  0  0  0  0  0  0  0  0  0
    2.0357    1.1308   -1.6847 H   0  0  0  0  0  0  0  0  0  0  0  0
    0.4303   -1.8230   -4.5680 H   0  0  0  0  0  0  0  0  0  0  0  0
   -2.9588   -1.2202   -4.1173 H   0  0  0  0  0  0  0  0  0  0  0  0
   -4.7096   -0.4054   -2.7747 H   0  0  0  0  0  0  0  0  0  0  0  0
   -1.4911    0.3139    1.9774 H   0  0  0  0  0  0  0  0  0  0  0  0
   -2.0662   -1.2107    1.3046 H   0  0  0  0  0  0  0  0  0  0  0  0
   -4.0610    0.8896    2.3845 H   0  0  0  0  0  0  0  0  0  0  0  0
   -3.2564   -0.2385    3.4768 H   0  0  0  0  0  0  0  0  0  0  0  0
   -4.0980   -2.4578    3.7159 H   0  0  0  0  0  0  0  0  0  0  0  0
   -5.7276   -4.2091    3.0797 H   0  0  0  0  0  0  0  0  0  0  0  0
   -7.1264   -3.9291    1.0500 H   0  0  0  0  0  0  0  0  0  0  0  0
   -6.9040   -1.8812   -0.3336 H   0  0  0  0  0  0  0  0  0  0  0  0
   -5.2800   -0.1169    0.3020 H   0  0  0  0  0  0  0  0  0  0  0  0
    3.3011   -2.2072   -3.7705 H   0  0  0  0  0  0  0  0  0  0  0  0
    4.2673   -1.6085   -5.9678 H   0  0  0  0  0  0  0  0  0  0  0  0
    3.5091    0.4409   -7.1476 H   0  0  0  0  0  0  0  0  0  0  0  0
    1.7892    1.9035   -6.1128 H   0  0  0  0  0  0  0  0  0  0  0  0
    0.8050    1.3031   -3.9155 H   0  0  0  0  0  0  0  0  0  0  0  0
  2  1  1  0  0  0  0
  2  3  2  0  0  0  0
  4 31  1  0  0  0  0
  4  2  1  0  0  0  0
  5  7  1  0  0  0  0
  5  6  1  1  0  0  0
  5  4  1  0  0  0  0
  7 14  2  0  0  0  0
  8 10  2  0  0  0  0
  8  7  1  0  0  0  0
  9  8  1  0  0  0  0
 10 11  1  0  0  0  0
 11 12  1  0  0  0  0
 11 13  2  0  0  0  0
 13 15  1  0  0  0  0
 14 13  1  0  0  0  0
 14  1  1  0  0  0  0
 15 17  1  0  0  0  0
 16 15  2  0  0  0  0
 17 36  1  0  0  0  0
 17 18  1  0  0  0  0
 18 39  1  0  0  0  0
 19 18  1  0  0  0  0
 19 20  2  0  0  0  0
 20 40  1  0  0  0  0
 21 20  1  0  0  0  0
 21 41  1  0  0  0  0
 22 21  2  0  0  0  0
 23 24  2  0  0  0  0
 23 22  1  0  0  0  0
 24 19  1  0  0  0  0
 25  5  1  0  0  0  0
 26 45  1  0  0  0  0
 26 25  1  0  0  0  0
 27 26  2  0  0  0  0
 28 29  2  0  0  0  0
 28 27  1  0  0  0  0
 29 30  1  0  0  0  0
 30 49  1  0  0  0  0
 30 25  2  0  0  0  0
 32  4  1  0  0  0  0
 33  9  1  0  0  0  0
 34 10  1  0  0  0  0
 35 12  1  0  0  0  0
 37 17  1  0  0  0  0
 38 18  1  0  0  0  0
 42 22  1  0  0  0  0
 43 23  1  0  0  0  0
 44 24  1  0  0  0  0
 46 27  1  0  0  0  0
 47 28  1  0  0  0  0
 48 29  1  0  0  0  0
M  END
$$$$
