49
rmsd122.gzmat
O          0.00000        0.00000        0.00000
C          1.39030        0.00000        0.00000
O          1.89120        0.00000        1.08550
C          2.05740        0.06470       -1.32820
C          1.40420       -0.89810       -2.34160
H          1.67390       -1.95330       -2.05590
C         -0.08530       -0.77530       -2.29430
C         -0.95050       -1.17000       -3.32980
O         -0.54690       -1.76090       -4.46830
C         -2.33850       -1.00020       -3.25500
C         -2.87340       -0.43340       -2.09860
O         -4.19660       -0.24500       -1.93480
C         -2.06630       -0.06300       -1.01470
C         -0.69270       -0.27390       -1.13640
C         -2.63970        0.56880        0.20160
O         -3.08820        1.68500        0.17000
C         -2.58270       -0.27320        1.44890
C         -3.37930        0.34410        2.60410
C         -4.81340       -0.08750        2.54550
C         -5.27160       -1.11600        3.37090
C         -6.60340       -1.52030        3.30760
C         -7.48100       -0.90130        2.41990
C         -7.02410        0.12510        1.59390
C         -5.69500        0.53280        1.65700
C          1.99680       -0.56790       -3.68920
C          2.98310       -1.39570       -4.22780
C          3.55210       -1.08840       -5.46190
C          3.13980        0.04520       -6.15940
C          2.15850        0.87580       -5.61950
C          1.58770        0.57090       -4.38710
H          3.14240       -0.15840       -1.22960
H          2.01280        1.11330       -1.70750
H          0.43680       -1.87420       -4.54440
H         -2.96150       -1.31210       -4.08580
H         -4.72020       -0.51370       -2.73530
H         -1.51600       -0.39860        1.74320
H         -2.94880       -1.29760        1.22950
H         -3.30770        1.45490        2.56360
H         -2.91890        0.06140        3.57180
H         -4.59100       -1.60360        4.06440
H         -6.95830       -2.31980        3.95360
H         -8.51960       -1.21700        2.37250
H         -7.70660        0.61000        0.89950
H         -5.33520        1.33410        1.00830
H          3.31730       -2.27910       -3.68590
H          4.32150       -1.73540       -5.87990
H          3.58430        0.28410       -7.12430
H          1.83810        1.76460       -6.16180
H          0.81450        1.21750       -3.96930
