49

O         -0.07830        0.20100       -0.07260
C          1.28660        0.25520       -0.03120
O          1.83630        0.35460        1.02660
C          1.96150        0.21580       -1.37760
C          1.33810       -0.82340       -2.32850
H          1.54950       -1.82790       -1.91810
C         -0.16720       -0.61350       -2.35700
C         -1.01310       -1.01750       -3.41410
O         -0.56720       -1.63230       -4.53020
C         -2.39540       -0.80380       -3.34440
C         -2.96540       -0.21510       -2.21680
O         -4.29950        0.02200       -2.13090
C         -2.16520        0.17140       -1.12840
C         -0.78870       -0.06160       -1.22420
C         -2.74040        0.86090        0.08750
O         -2.39550        1.98270        0.38290
C         -3.71790        0.05950        0.92100
C         -4.34490        0.85750        2.06680
C         -5.28070        0.01460        2.89790
C         -4.81250       -0.68780        4.01850
C         -5.66590       -1.50750        4.76120
C         -7.00770       -1.63980        4.39340
C         -7.48780       -0.94530        3.27940
C         -6.63010       -0.12730        2.54010
C          2.03150       -0.73230       -3.67960
C          2.91300       -1.73960       -4.09810
C          3.58790       -1.63790       -5.31910
C          3.38940       -0.52390       -6.13670
C          2.51170        0.48710       -5.72970
C          1.83940        0.38390       -4.51230
H          3.03130        0.03230       -1.22040
H          1.85380        1.21930       -1.82450
H          0.40190       -1.62320       -4.56120
H         -3.00750       -1.11140       -4.19490
H         -4.73570       -0.28300       -2.93720
H         -3.15930       -0.81240        1.30960
H         -4.48660       -0.36130        0.25340
H         -4.88120        1.72150        1.64410
H         -3.54080        1.27310        2.69220
H         -3.76430       -0.58500        4.31380
H         -5.28210       -2.04230        5.63370
H         -7.67760       -2.27790        4.97490
H         -8.53700       -1.03800        2.98710
H         -7.01250        0.41690        1.67160
H          3.07000       -2.61340       -3.46010
H          4.26940       -2.43300       -5.62990
H          3.91330       -0.44350       -7.09180
H          2.34680        1.35830       -6.36770
H          1.14160        1.16780       -4.20710
