49
rmsd115.gzmat
O          0.00000        0.00000        0.00000
C          1.39040        0.00000        0.00000
O          1.88990        0.00000        1.08660
C          2.06280        0.07430       -1.32560
C          1.40370       -0.86010       -2.36110
H          1.67500       -1.92230       -2.10580
C         -0.08570       -0.73690       -2.30660
C         -0.95100       -1.11200       -3.34980
O         -0.55110       -1.69480       -4.49370
C         -2.33660       -0.92570       -3.27970
C         -2.86950       -0.36640       -2.11880
O         -4.19040       -0.15810       -1.96460
C         -2.06420       -0.02600       -1.02210
C         -0.69250       -0.25120       -1.14170
C         -2.65160        0.56660        0.20240
O         -3.29810        1.58190        0.15970
C         -2.37220       -0.16270        1.49290
C         -3.58800       -0.11830        2.42610
C         -4.58230       -1.17570        2.05010
C         -4.71210       -2.32710        2.82830
C         -5.62810       -3.31430        2.46970
C         -6.41500       -3.15740        1.33130
C         -6.28890       -2.00650        0.55400
C         -5.37880       -1.01680        0.91300
C          1.98390       -0.49420       -3.70560
C          2.95850       -1.30960       -4.28310
C          3.50600       -0.97180       -5.51920
C          3.08370        0.18010       -6.17970
C          2.11680        1.00020       -5.59940
C          1.56780        0.66520       -4.36500
H          3.14430       -0.16560       -1.22590
H          2.03570        1.13080       -1.68470
H          0.43030       -1.82300       -4.56800
H         -2.95880       -1.22020       -4.11730
H         -4.70960       -0.40540       -2.77470
H         -1.49110        0.31390        1.97740
H         -2.06620       -1.21070        1.30460
H         -4.06100        0.88960        2.38450
H         -3.25640       -0.23850        3.47680
H         -4.09800       -2.45780        3.71590
H         -5.72760       -4.20910        3.07970
H         -7.12640       -3.92910        1.05000
H         -6.90400       -1.88120       -0.33360
H         -5.28000       -0.11690        0.30200
H          3.30110       -2.20720       -3.77050
H          4.26730       -1.60850       -5.96780
H          3.50910        0.44090       -7.14760
H          1.78920        1.90350       -6.11280
H          0.80500        1.30310       -3.91550
