
     RDKit          3D

 49 52  0  0  0  0  0  0  0  0999 V2000
   -0.0574    0.2580    0.0610 O   0  0  0  0  0  0  0  0  0  0  0  0
    1.3079    0.3279    0.0418 C   0  0  0  0  0  0  0  0  0  0  0  0
    1.8973    0.4509    1.0758 O   0  0  0  0  0  0  0  0  0  0  0  0
    1.9256    0.2901   -1.3306 C   0  0  0  0  0  0  0  0  0  0  0  0
    1.2608   -0.7372   -2.2652 C   0  0  1  0  0  0  0  0  0  0  0  0
    1.4936   -1.7461   -1.8777 H   0  0  0  0  0  0  0  0  0  0  0  0
   -0.2455   -0.5351   -2.2228 C   0  0  0  0  0  0  0  0  0  0  0  0
   -1.1348   -0.9112   -3.2549 C   0  0  0  0  0  0  0  0  0  0  0  0
   -0.7371   -1.5025   -4.4004 O   0  0  0  0  0  0  0  0  0  0  0  0
   -2.5097   -0.6847   -3.1292 C   0  0  0  0  0  0  0  0  0  0  0  0
   -3.0424   -0.1136   -1.9732 C   0  0  0  0  0  0  0  0  0  0  0  0
   -4.3669    0.0993   -1.8439 O   0  0  0  0  0  0  0  0  0  0  0  0
   -2.1979    0.2110   -0.8872 C   0  0  0  0  0  0  0  0  0  0  0  0
   -0.8262   -0.0239   -1.0513 C   0  0  0  0  0  0  0  0  0  0  0  0
   -2.7738    0.7654    0.3844 C   0  0  0  0  0  0  0  0  0  0  0  0
   -3.5947    1.6583    0.3535 O   0  0  0  0  0  0  0  0  0  0  0  0
   -2.3682    0.1305    1.7132 C   0  0  0  0  0  0  0  0  0  0  0  0
   -3.6060   -0.1589    2.5812 C   0  0  0  0  0  0  0  0  0  0  0  0
   -4.4668   -1.2535    1.9918 C   0  0  0  0  0  0  0  0  0  0  0  0
   -4.2128   -2.6005    2.2933 C   0  0  0  0  0  0  0  0  0  0  0  0
   -4.9584   -3.6235    1.7030 C   0  0  0  0  0  0  0  0  0  0  0  0
   -5.9743   -3.3137    0.7939 C   0  0  0  0  0  0  0  0  0  0  0  0
   -6.2368   -1.9763    0.4857 C   0  0  0  0  0  0  0  0  0  0  0  0
   -5.4906   -0.9554    1.0794 C   0  0  0  0  0  0  0  0  0  0  0  0
    1.8954   -0.6268   -3.6435 C   0  0  0  0  0  0  0  0  0  0  0  0
    2.7606   -1.6262   -4.1119 C   0  0  0  0  0  0  0  0  0  0  0  0
    3.3829   -1.5070   -5.3591 C   0  0  0  0  0  0  0  0  0  0  0  0
    3.1472   -0.3834   -6.1531 C   0  0  0  0  0  0  0  0  0  0  0  0
    2.2850    0.6199   -5.6964 C   0  0  0  0  0  0  0  0  0  0  0  0
    1.6654    0.4993   -4.4531 C   0  0  0  0  0  0  0  0  0  0  0  0
    3.0006    0.1028   -1.2187 H   0  0  0  0  0  0  0  0  0  0  0  0
    1.8053    1.2982   -1.7643 H   0  0  0  0  0  0  0  0  0  0  0  0
    0.2303   -1.5095   -4.4647 H   0  0  0  0  0  0  0  0  0  0  0  0
   -3.1549   -0.9759   -3.9608 H   0  0  0  0  0  0  0  0  0  0  0  0
   -4.8261   -0.2721   -2.6083 H   0  0  0  0  0  0  0  0  0  0  0  0
   -1.7006    0.8423    2.2273 H   0  0  0  0  0  0  0  0  0  0  0  0
   -1.7868   -0.7862    1.5481 H   0  0  0  0  0  0  0  0  0  0  0  0
   -4.1854    0.7707    2.6789 H   0  0  0  0  0  0  0  0  0  0  0  0
   -3.2696   -0.4496    3.5887 H   0  0  0  0  0  0  0  0  0  0  0  0
   -3.4189   -2.8493    3.0038 H   0  0  0  0  0  0  0  0  0  0  0  0
   -4.7476   -4.6659    1.9553 H   0  0  0  0  0  0  0  0  0  0  0  0
   -6.5609   -4.1119    0.3319 H   0  0  0  0  0  0  0  0  0  0  0  0
   -7.0307   -1.7231   -0.2220 H   0  0  0  0  0  0  0  0  0  0  0  0
   -5.6880    0.0860    0.8208 H   0  0  0  0  0  0  0  0  0  0  0  0
    2.9466   -2.5077   -3.4925 H   0  0  0  0  0  0  0  0  0  0  0  0
    4.0522   -2.2962   -5.7088 H   0  0  0  0  0  0  0  0  0  0  0  0
    3.6296   -0.2894   -7.1286 H   0  0  0  0  0  0  0  0  0  0  0  0
    2.0906    1.4982   -6.3160 H   0  0  0  0  0  0  0  0  0  0  0  0
    0.9781    1.2766   -4.1093 H   0  0  0  0  0  0  0  0  0  0  0  0
  1  2  1  0
  1 14  1  0
  2  3  2  0
  2  4  1  0
  4  5  1  0
  4 31  1  0
  4 32  1  0
  5  6  1  1
  5  7  1  0
  5 25  1  0
  7  8  1  0
  7 14  2  0
  8  9  1  0
  8 10  2  0
  9 33  1  0
 10 11  1  0
 10 34  1  0
 11 12  1  0
 11 13  2  0
 12 35  1  0
 13 14  1  0
 13 15  1  0
 15 16  2  0
 15 17  1  0
 17 18  1  0
 17 36  1  0
 17 37  1  0
 18 19  1  0
 18 38  1  0
 18 39  1  0
 19 20  2  0
 19 24  1  0
 20 21  1  0
 20 40  1  0
 21 22  2  0
 21 41  1  0
 22 23  1  0
 22 42  1  0
 23 24  2  0
 23 43  1  0
 24 44  1  0
 25 26  2  0
 25 30  1  0
 26 27  1  0
 26 45  1  0
 27 28  2  0
 27 46  1  0
 28 29  1  0
 28 47  1  0
 29 30  2  0
 29 48  1  0
 30 49  1  0
M  END

