49
rmsd118.gzmat
O          0.00000        0.00000        0.00000
C          1.39060        0.00000        0.00000
O          1.89900        0.00000        1.08230
C          2.06090        0.06780       -1.32820
C          1.41630       -0.90260       -2.33830
H          1.69410       -1.95470       -2.05020
C         -0.07400       -0.78570       -2.29090
C         -0.93090       -1.19650       -3.32480
O         -0.52380       -1.80760       -4.45110
C         -2.32010       -1.01920       -3.26550
C         -2.85610       -0.43850       -2.11990
O         -4.18250       -0.22210       -1.97850
C         -2.06100       -0.04780       -1.03550
C         -0.68360       -0.26310       -1.14040
C         -2.64510        0.58890        0.16740
O         -2.24930        1.65510        0.56490
C         -3.76430       -0.16230        0.84650
C         -3.60160       -0.11510        2.37090
C         -2.50230       -1.03620        2.81010
C         -1.17080       -0.62490        2.71830
C         -0.14570       -1.48150        3.10830
C         -0.44480       -2.75210        3.59760
C         -1.77260       -3.16320        3.69310
C         -2.80070       -2.30850        3.29940
C          2.00050       -0.57050       -3.68980
C          2.99640       -1.38520       -4.23150
C          3.55530       -1.07330       -5.46930
C          3.12000        0.04960       -6.17030
C          2.12690        0.86540       -5.62920
C          1.56980        0.55850       -4.39090
H          3.14720       -0.14560       -1.22730
H          2.00580        1.11570       -1.70740
H          0.45920       -1.93180       -4.51730
H         -2.93600       -1.33900       -4.09800
H         -4.69540       -0.48380       -2.78610
H         -3.81390       -1.21250        0.49740
H         -4.72800        0.29950        0.54350
H         -4.56040       -0.38100        2.85790
H         -3.38660        0.92820        2.69470
H         -0.93070        0.36710        2.32910
H          0.89110       -1.15360        3.02440
H          0.35660       -3.41830        3.90540
H         -2.00850       -4.15300        4.07570
H         -3.83390       -2.63510        3.37550
H          3.34720       -2.26160       -3.68860
H          4.33620       -1.70660       -5.88800
H          3.55680        0.29090       -7.13800
H          1.78540        1.74400       -6.17520
H          0.79030        1.19590       -3.97070
