rmsd240.gzmat
 OpenBabel08211713413D

 49 52  0  0  1  0  0  0  0  0999 V2000
    0.0000    0.0000    0.0000 O   0  0  0  0  0  0  0  0  0  0  0  0
    1.3926    0.0000    0.0000 C   0  0  0  0  0  0  0  0  0  0  0  0
    1.8989    0.0000    1.0823 O   0  0  0  0  0  0  0  0  0  0  0  0
    2.0554    0.0577   -1.3328 C   0  0  0  0  0  0  0  0  0  0  0  0
    1.4210   -0.9477   -2.3155 C   0  0  1  0  0  0  0  0  0  0  0  0
    1.7082   -1.9882   -1.9974 H   0  0  0  0  0  0  0  0  0  0  0  0
   -0.0705   -0.8398   -2.2705 C   0  0  0  0  0  0  0  0  0  0  0  0
   -0.9289   -1.2800   -3.2913 C   0  0  0  0  0  0  0  0  0  0  0  0
   -0.5232   -1.9325   -4.3948 O   0  0  0  0  0  0  0  0  0  0  0  0
   -2.3164   -1.0907   -3.2390 C   0  0  0  0  0  0  0  0  0  0  0  0
   -2.8499   -0.4561   -2.1201 C   0  0  0  0  0  0  0  0  0  0  0  0
   -4.1725   -0.2103   -2.0003 O   0  0  0  0  0  0  0  0  0  0  0  0
   -2.0536   -0.0387   -1.0473 C   0  0  0  0  0  0  0  0  0  0  0  0
   -0.6808   -0.2800   -1.1382 C   0  0  0  0  0  0  0  0  0  0  0  0
   -2.6166    0.6962    0.1131 C   0  0  0  0  0  0  0  0  0  0  0  0
   -2.3030    1.8371    0.3346 O   0  0  0  0  0  0  0  0  0  0  0  0
   -3.5850   -0.0706    0.9719 C   0  0  0  0  0  0  0  0  0  0  0  0
   -4.1385    0.8106    2.0971 C   0  0  0  0  0  0  0  0  0  0  0  0
   -5.2078    0.0741    2.8423 C   0  0  0  0  0  0  0  0  0  0  0  0
   -4.9223   -0.5421    4.0621 C   0  0  0  0  0  0  0  0  0  0  0  0
   -5.9202   -1.2340    4.7454 C   0  0  0  0  0  0  0  0  0  0  0  0
   -7.2057   -1.3158    4.2137 C   0  0  0  0  0  0  0  0  0  0  0  0
   -7.4923   -0.7021    2.9951 C   0  0  0  0  0  0  0  0  0  0  0  0
   -6.4977   -0.0083    2.3110 C   0  0  0  0  0  0  0  0  0  0  0  0
    1.9965   -0.6527   -3.6791 C   0  0  0  0  0  0  0  0  0  0  0  0
    2.9924   -1.4784   -4.2031 C   0  0  0  0  0  0  0  0  0  0  0  0
    3.5249   -1.2135   -5.4634 C   0  0  0  0  0  0  0  0  0  0  0  0
    3.0696   -0.1217   -6.1997 C   0  0  0  0  0  0  0  0  0  0  0  0
    2.0849    0.7121   -5.6710 C   0  0  0  0  0  0  0  0  0  0  0  0
    1.5496    0.4486   -4.4134 C   0  0  0  0  0  0  0  0  0  0  0  0
    3.1466   -0.1310   -1.2349 H   0  0  0  0  0  0  0  0  0  0  0  0
    1.9756    1.0955   -1.7347 H   0  0  0  0  0  0  0  0  0  0  0  0
    0.4608   -2.0529   -4.4595 H   0  0  0  0  0  0  0  0  0  0  0  0
   -2.9341   -1.4372   -4.0597 H   0  0  0  0  0  0  0  0  0  0  0  0
   -4.6832   -0.4923   -2.8025 H   0  0  0  0  0  0  0  0  0  0  0  0
   -3.0844   -0.9679    1.3916 H   0  0  0  0  0  0  0  0  0  0  0  0
   -4.4144   -0.4639    0.3448 H   0  0  0  0  0  0  0  0  0  0  0  0
   -4.5315    1.7618    1.6760 H   0  0  0  0  0  0  0  0  0  0  0  0
   -3.3131    1.1298    2.7684 H   0  0  0  0  0  0  0  0  0  0  0  0
   -3.9198   -0.4826    4.4808 H   0  0  0  0  0  0  0  0  0  0  0  0
   -5.6955   -1.7111    5.6970 H   0  0  0  0  0  0  0  0  0  0  0  0
   -7.9833   -1.8555    4.7481 H   0  0  0  0  0  0  0  0  0  0  0  0
   -8.4952   -0.7641    2.5788 H   0  0  0  0  0  0  0  0  0  0  0  0
   -6.7247    0.4707    1.3609 H   0  0  0  0  0  0  0  0  0  0  0  0
    3.3641   -2.3262   -3.6296 H   0  0  0  0  0  0  0  0  0  0  0  0
    4.2994   -1.8605   -5.8725 H   0  0  0  0  0  0  0  0  0  0  0  0
    3.4832    0.0818   -7.1861 H   0  0  0  0  0  0  0  0  0  0  0  0
    1.7320    1.5694   -6.2432 H   0  0  0  0  0  0  0  0  0  0  0  0
    0.7732    1.0971   -4.0040 H   0  0  0  0  0  0  0  0  0  0  0  0
  2  1  1  0  0  0  0
  2  3  2  0  0  0  0
  4 31  1  0  0  0  0
  4  2  1  0  0  0  0
  5  7  1  0  0  0  0
  5  6  1  1  0  0  0
  5  4  1  0  0  0  0
  7 14  2  0  0  0  0
  8 10  2  0  0  0  0
  8  7  1  0  0  0  0
  9  8  1  0  0  0  0
 10 11  1  0  0  0  0
 11 12  1  0  0  0  0
 11 13  2  0  0  0  0
 13 15  1  0  0  0  0
 14 13  1  0  0  0  0
 14  1  1  0  0  0  0
 15 16  2  0  0  0  0
 15 17  1  0  0  0  0
 17 36  1  0  0  0  0
 17 18  1  0  0  0  0
 18 39  1  0  0  0  0
 18 19  1  0  0  0  0
 19 20  1  0  0  0  0
 20 40  1  0  0  0  0
 20 21  2  0  0  0  0
 21 41  1  0  0  0  0
 22 21  1  0  0  0  0
 22 42  1  0  0  0  0
 23 22  2  0  0  0  0
 24 19  2  0  0  0  0
 24 23  1  0  0  0  0
 25  5  1  0  0  0  0
 26 25  1  0  0  0  0
 26 45  1  0  0  0  0
 27 26  2  0  0  0  0
 28 29  2  0  0  0  0
 28 27  1  0  0  0  0
 29 30  1  0  0  0  0
 30 49  1  0  0  0  0
 30 25  2  0  0  0  0
 32  4  1  0  0  0  0
 33  9  1  0  0  0  0
 34 10  1  0  0  0  0
 35 12  1  0  0  0  0
 37 17  1  0  0  0  0
 38 18  1  0  0  0  0
 43 23  1  0  0  0  0
 44 24  1  0  0  0  0
 46 27  1  0  0  0  0
 47 28  1  0  0  0  0
 48 29  1  0  0  0  0
M  END
$$$$
