rmsd248.gzmat
 OpenBabel08211713413D

 49 52  0  0  1  0  0  0  0  0999 V2000
    0.0000    0.0000    0.0000 O   0  0  0  0  0  0  0  0  0  0  0  0
    1.3900    0.0000    0.0000 C   0  0  0  0  0  0  0  0  0  0  0  0
    1.8898    0.0000    1.0860 O   0  0  0  0  0  0  0  0  0  0  0  0
    2.0672    0.0784   -1.3234 C   0  0  0  0  0  0  0  0  0  0  0  0
    1.3912   -0.8262   -2.3729 C   0  0  1  0  0  0  0  0  0  0  0  0
    1.6187   -1.8993   -2.1161 H   0  0  0  0  0  0  0  0  0  0  0  0
   -0.0941   -0.6521   -2.3336 C   0  0  0  0  0  0  0  0  0  0  0  0
   -0.9614   -0.9577   -3.3968 C   0  0  0  0  0  0  0  0  0  0  0  0
   -0.5752   -1.4939   -4.5675 O   0  0  0  0  0  0  0  0  0  0  0  0
   -2.3433   -0.7376   -3.3263 C   0  0  0  0  0  0  0  0  0  0  0  0
   -2.8723   -0.2515   -2.1328 C   0  0  0  0  0  0  0  0  0  0  0  0
   -4.1819    0.0291   -1.9867 O   0  0  0  0  0  0  0  0  0  0  0  0
   -2.0687    0.0021   -1.0125 C   0  0  0  0  0  0  0  0  0  0  0  0
   -0.6961   -0.2106   -1.1477 C   0  0  0  0  0  0  0  0  0  0  0  0
   -2.6765    0.4046    0.2809 C   0  0  0  0  0  0  0  0  0  0  0  0
   -3.4054   -0.3337    0.8896 O   0  0  0  0  0  0  0  0  0  0  0  0
   -2.3196    1.7857    0.7635 C   0  0  0  0  0  0  0  0  0  0  0  0
   -3.0701    2.1214    2.0568 C   0  0  0  0  0  0  0  0  0  0  0  0
   -2.6781    3.4837    2.5363 C   0  0  0  0  0  0  0  0  0  0  0  0
   -1.4624    3.6644    3.2012 C   0  0  0  0  0  0  0  0  0  0  0  0
   -1.0882    4.9321    3.6376 C   0  0  0  0  0  0  0  0  0  0  0  0
   -1.9257    6.0251    3.4168 C   0  0  0  0  0  0  0  0  0  0  0  0
   -3.1396    5.8459    2.7561 C   0  0  0  0  0  0  0  0  0  0  0  0
   -3.5150    4.5788    2.3146 C   0  0  0  0  0  0  0  0  0  0  0  0
    2.0025   -0.4828   -3.7089 C   0  0  0  0  0  0  0  0  0  0  0  0
    2.9113   -1.3617   -4.3011 C   0  0  0  0  0  0  0  0  0  0  0  0
    3.4739   -1.0531   -5.5382 C   0  0  0  0  0  0  0  0  0  0  0  0
    3.1359    0.1349   -6.1831 C   0  0  0  0  0  0  0  0  0  0  0  0
    2.2373    1.0192   -5.5869 C   0  0  0  0  0  0  0  0  0  0  0  0
    1.6712    0.7119   -4.3529 C   0  0  0  0  0  0  0  0  0  0  0  0
    3.1425   -0.1888   -1.2235 H   0  0  0  0  0  0  0  0  0  0  0  0
    2.0667    1.1396   -1.6673 H   0  0  0  0  0  0  0  0  0  0  0  0
    0.3996   -1.6655   -4.6413 H   0  0  0  0  0  0  0  0  0  0  0  0
   -2.9644   -0.9612   -4.1862 H   0  0  0  0  0  0  0  0  0  0  0  0
   -4.7152   -0.2212   -2.7857 H   0  0  0  0  0  0  0  0  0  0  0  0
   -2.5452    2.5330   -0.0238 H   0  0  0  0  0  0  0  0  0  0  0  0
   -1.2220    1.8495    0.9290 H   0  0  0  0  0  0  0  0  0  0  0  0
   -2.8531    1.3506    2.8289 H   0  0  0  0  0  0  0  0  0  0  0  0
   -4.1647    2.0431    1.8904 H   0  0  0  0  0  0  0  0  0  0  0  0
   -0.8095    2.8116    3.3794 H   0  0  0  0  0  0  0  0  0  0  0  0
   -0.1410    5.0701    4.1543 H   0  0  0  0  0  0  0  0  0  0  0  0
   -1.6326    7.0135    3.7611 H   0  0  0  0  0  0  0  0  0  0  0  0
   -3.7966    6.6958    2.5852 H   0  0  0  0  0  0  0  0  0  0  0  0
   -4.4622    4.4438    1.7974 H   0  0  0  0  0  0  0  0  0  0  0  0
    3.1890   -2.2878   -3.7996 H   0  0  0  0  0  0  0  0  0  0  0  0
    4.1795   -1.7421   -6.0013 H   0  0  0  0  0  0  0  0  0  0  0  0
    3.5726    0.3726   -7.1519 H   0  0  0  0  0  0  0  0  0  0  0  0
    1.9745    1.9497   -6.0885 H   0  0  0  0  0  0  0  0  0  0  0  0
    0.9591    1.3984   -3.8926 H   0  0  0  0  0  0  0  0  0  0  0  0
  2  1  1  0  0  0  0
  2  3  2  0  0  0  0
  4 31  1  0  0  0  0
  4  2  1  0  0  0  0
  5  7  1  0  0  0  0
  5  6  1  1  0  0  0
  5  4  1  0  0  0  0
  7 14  2  0  0  0  0
  8 10  2  0  0  0  0
  8  7  1  0  0  0  0
  9  8  1  0  0  0  0
 10 11  1  0  0  0  0
 11 12  1  0  0  0  0
 11 13  2  0  0  0  0
 13 15  1  0  0  0  0
 14 13  1  0  0  0  0
 14  1  1  0  0  0  0
 15 17  1  0  0  0  0
 15 16  2  0  0  0  0
 17 37  1  0  0  0  0
 17 18  1  0  0  0  0
 18 19  1  0  0  0  0
 18 38  1  0  0  0  0
 19 20  1  0  0  0  0
 20 40  1  0  0  0  0
 20 21  2  0  0  0  0
 21 41  1  0  0  0  0
 22 21  1  0  0  0  0
 22 42  1  0  0  0  0
 23 22  2  0  0  0  0
 24 19  2  0  0  0  0
 24 23  1  0  0  0  0
 25  5  1  0  0  0  0
 26 45  1  0  0  0  0
 26 25  1  0  0  0  0
 27 26  2  0  0  0  0
 28 29  2  0  0  0  0
 28 27  1  0  0  0  0
 29 30  1  0  0  0  0
 30 49  1  0  0  0  0
 30 25  2  0  0  0  0
 32  4  1  0  0  0  0
 33  9  1  0  0  0  0
 34 10  1  0  0  0  0
 35 12  1  0  0  0  0
 36 17  1  0  0  0  0
 39 18  1  0  0  0  0
 43 23  1  0  0  0  0
 44 24  1  0  0  0  0
 46 27  1  0  0  0  0
 47 28  1  0  0  0  0
 48 29  1  0  0  0  0
M  END
$$$$
