49
rmsd109.gzmat
O          0.00000        0.00000        0.00000
C          1.39190        0.00000        0.00000
O          1.89720        0.00000        1.08300
C          2.05870        0.05880       -1.33080
C          1.41520       -0.92470       -2.32950
H          1.70050       -1.97210       -2.03170
C         -0.07600       -0.81510       -2.27930
C         -0.93720       -1.24760       -3.30130
O         -0.53290       -1.88510       -4.41370
C         -2.32600       -1.06940       -3.24000
C         -2.85830       -0.45550       -2.10950
O         -4.18230       -0.22910       -1.97110
C         -2.05840       -0.04050       -1.03750
C         -0.68280       -0.26910       -1.13850
C         -2.62580        0.65070        0.14290
O         -2.21500        1.72740        0.49290
C         -3.74060       -0.05810        0.87050
C         -3.37810       -0.19680        2.35490
C         -4.55760       -0.72580        3.11060
C         -4.81860       -2.09790        3.13380
C         -5.93150       -2.58480        3.81540
C         -6.78440       -1.70570        4.48150
C         -6.52230       -0.33680        4.46310
C         -5.41210        0.15350        3.77970
C          1.98730       -0.60730       -3.68970
C          2.97250       -1.43230       -4.23470
C          3.50670       -1.14370       -5.48910
C          3.05830       -0.03320       -6.20150
C          2.07870        0.79510       -5.65480
C          1.54710        0.51220       -4.39980
H          3.14590       -0.15080       -1.23060
H          2.00070        1.10280       -1.72040
H          0.45130       -1.99870       -4.48510
H         -2.94610       -1.41030       -4.06090
H         -4.70100       -0.51680       -2.76680
H         -3.95860       -1.04890        0.42880
H         -4.67620        0.53020        0.75260
H         -3.04950        0.78790        2.75570
H         -2.49740       -0.86130        2.47420
H         -4.15200       -2.78580        2.61890
H         -6.13540       -3.65330        3.82950
H         -7.65100       -2.08720        5.01560
H         -7.18620        0.35020        4.98360
H         -5.21000        1.22320        3.76630
H          3.33370       -2.29860       -3.68240
H          4.27650       -1.78710       -5.91270
H          3.47350        0.18860       -7.18350
H          1.72660        1.66310       -6.21120
H          0.77860        1.15950       -3.97370
