49

O         -0.05740        0.25800        0.06100
C          1.30790        0.32790        0.04180
O          1.89730        0.45090        1.07580
C          1.92560        0.29010       -1.33060
C          1.26080       -0.73720       -2.26520
H          1.49360       -1.74610       -1.87770
C         -0.24550       -0.53510       -2.22280
C         -1.13480       -0.91120       -3.25490
O         -0.73710       -1.50250       -4.40040
C         -2.50970       -0.68470       -3.12920
C         -3.04240       -0.11360       -1.97320
O         -4.36690        0.09930       -1.84390
C         -2.19790        0.21100       -0.88720
C         -0.82620       -0.02390       -1.05130
C         -2.77380        0.76540        0.38440
O         -3.59470        1.65830        0.35350
C         -2.36820        0.13050        1.71320
C         -3.60600       -0.15890        2.58120
C         -4.46680       -1.25350        1.99180
C         -4.21280       -2.60050        2.29330
C         -4.95840       -3.62350        1.70300
C         -5.97430       -3.31370        0.79390
C         -6.23680       -1.97630        0.48570
C         -5.49060       -0.95540        1.07940
C          1.89540       -0.62680       -3.64350
C          2.76060       -1.62620       -4.11190
C          3.38290       -1.50700       -5.35910
C          3.14720       -0.38340       -6.15310
C          2.28500        0.61990       -5.69640
C          1.66540        0.49930       -4.45310
H          3.00060        0.10280       -1.21870
H          1.80530        1.29820       -1.76430
H          0.23030       -1.50950       -4.46470
H         -3.15490       -0.97590       -3.96080
H         -4.82610       -0.27210       -2.60830
H         -1.70060        0.84230        2.22730
H         -1.78680       -0.78620        1.54810
H         -4.18540        0.77070        2.67890
H         -3.26960       -0.44960        3.58870
H         -3.41890       -2.84930        3.00380
H         -4.74760       -4.66590        1.95530
H         -6.56090       -4.11190        0.33190
H         -7.03070       -1.72310       -0.22200
H         -5.68800        0.08600        0.82080
H          2.94660       -2.50770       -3.49250
H          4.05220       -2.29620       -5.70880
H          3.62960       -0.28940       -7.12860
H          2.09060        1.49820       -6.31600
H          0.97810        1.27660       -4.10930
