49
rmsd92.gzmat
O          0.00000        0.00000        0.00000
C          1.39190        0.00000        0.00000
O          1.89660        0.00000        1.08330
C          2.05960        0.05880       -1.33030
C          1.41400       -0.92170       -2.33060
H          1.68970       -1.97080       -2.03050
C         -0.07620       -0.80170       -2.28470
C         -0.93650       -1.21840       -3.31380
O         -0.53360       -1.84790       -4.43150
C         -2.32380       -1.02940       -3.25590
C         -2.85560       -0.42520       -2.11990
O         -4.17880       -0.19000       -1.98560
C         -2.05720       -0.03450       -1.03830
C         -0.68330       -0.26400       -1.14060
C         -2.63460        0.63870        0.15290
O         -2.37970        1.78600        0.40930
C         -3.54810       -0.21360        0.99200
C         -4.15940        0.59050        2.14430
C         -5.23910       -0.21260        2.80040
C         -4.93980       -1.05520        3.87280
C         -5.94550       -1.81640        4.46440
C         -7.25380       -1.73780        3.99050
C         -7.55450       -0.89640        2.92050
C         -6.55110       -0.13550        2.32620
C          1.99630       -0.61000       -3.68760
C          2.99520       -1.42990       -4.21500
C          3.54120       -1.14620       -5.46530
C          3.09090       -0.04570       -6.19180
C          2.09850        0.77860       -5.66250
C          1.55430        0.50020       -4.41190
H          3.14640       -0.15360       -1.22920
H          2.00400        1.10310       -1.71950
H          0.44930       -1.97180       -4.49980
H         -2.94270       -1.35520       -4.08410
H         -4.69600       -0.46610       -2.78580
H         -2.98670       -1.08710        1.38340
H         -4.35060       -0.64200        0.35250
H         -4.55360        1.55790        1.76400
H         -3.36910        0.88090        2.86720
H         -3.92050       -1.11740        4.24820
H         -5.70960       -2.47330        5.29880
H         -8.03850       -2.33000        4.45480
H         -8.57520       -0.83420        2.54900
H         -6.78870        0.51920        1.49050
H          3.35860       -2.28800       -3.65180
H          4.32340       -1.78460       -5.87390
H          3.51490        0.17160       -7.17080
H          1.74610        1.63990       -6.22880
H          0.77480        1.14370       -4.00060
