rmsd92.gzmat
 OpenBabel08211713413D

 49 52  0  0  1  0  0  0  0  0999 V2000
    0.0000    0.0000    0.0000 O   0  0  0  0  0  0  0  0  0  0  0  0
    1.3919    0.0000    0.0000 C   0  0  0  0  0  0  0  0  0  0  0  0
    1.8966    0.0000    1.0833 O   0  0  0  0  0  0  0  0  0  0  0  0
    2.0596    0.0588   -1.3303 C   0  0  0  0  0  0  0  0  0  0  0  0
    1.4140   -0.9217   -2.3306 C   0  0  1  0  0  0  0  0  0  0  0  0
    1.6897   -1.9708   -2.0305 H   0  0  0  0  0  0  0  0  0  0  0  0
   -0.0762   -0.8017   -2.2847 C   0  0  0  0  0  0  0  0  0  0  0  0
   -0.9365   -1.2184   -3.3138 C   0  0  0  0  0  0  0  0  0  0  0  0
   -0.5336   -1.8479   -4.4315 O   0  0  0  0  0  0  0  0  0  0  0  0
   -2.3238   -1.0294   -3.2559 C   0  0  0  0  0  0  0  0  0  0  0  0
   -2.8556   -0.4252   -2.1199 C   0  0  0  0  0  0  0  0  0  0  0  0
   -4.1788   -0.1900   -1.9856 O   0  0  0  0  0  0  0  0  0  0  0  0
   -2.0572   -0.0345   -1.0383 C   0  0  0  0  0  0  0  0  0  0  0  0
   -0.6833   -0.2640   -1.1406 C   0  0  0  0  0  0  0  0  0  0  0  0
   -2.6346    0.6387    0.1529 C   0  0  0  0  0  0  0  0  0  0  0  0
   -2.3797    1.7860    0.4093 O   0  0  0  0  0  0  0  0  0  0  0  0
   -3.5481   -0.2136    0.9920 C   0  0  0  0  0  0  0  0  0  0  0  0
   -4.1594    0.5905    2.1443 C   0  0  0  0  0  0  0  0  0  0  0  0
   -5.2391   -0.2126    2.8004 C   0  0  0  0  0  0  0  0  0  0  0  0
   -4.9398   -1.0552    3.8728 C   0  0  0  0  0  0  0  0  0  0  0  0
   -5.9455   -1.8164    4.4644 C   0  0  0  0  0  0  0  0  0  0  0  0
   -7.2538   -1.7378    3.9905 C   0  0  0  0  0  0  0  0  0  0  0  0
   -7.5545   -0.8964    2.9205 C   0  0  0  0  0  0  0  0  0  0  0  0
   -6.5511   -0.1355    2.3262 C   0  0  0  0  0  0  0  0  0  0  0  0
    1.9963   -0.6100   -3.6876 C   0  0  0  0  0  0  0  0  0  0  0  0
    2.9952   -1.4299   -4.2150 C   0  0  0  0  0  0  0  0  0  0  0  0
    3.5412   -1.1462   -5.4653 C   0  0  0  0  0  0  0  0  0  0  0  0
    3.0909   -0.0457   -6.1918 C   0  0  0  0  0  0  0  0  0  0  0  0
    2.0985    0.7786   -5.6625 C   0  0  0  0  0  0  0  0  0  0  0  0
    1.5543    0.5002   -4.4119 C   0  0  0  0  0  0  0  0  0  0  0  0
    3.1464   -0.1536   -1.2292 H   0  0  0  0  0  0  0  0  0  0  0  0
    2.0040    1.1031   -1.7195 H   0  0  0  0  0  0  0  0  0  0  0  0
    0.4493   -1.9718   -4.4998 H   0  0  0  0  0  0  0  0  0  0  0  0
   -2.9427   -1.3552   -4.0841 H   0  0  0  0  0  0  0  0  0  0  0  0
   -4.6960   -0.4661   -2.7858 H   0  0  0  0  0  0  0  0  0  0  0  0
   -2.9867   -1.0871    1.3834 H   0  0  0  0  0  0  0  0  0  0  0  0
   -4.3506   -0.6420    0.3525 H   0  0  0  0  0  0  0  0  0  0  0  0
   -4.5536    1.5579    1.7640 H   0  0  0  0  0  0  0  0  0  0  0  0
   -3.3691    0.8809    2.8672 H   0  0  0  0  0  0  0  0  0  0  0  0
   -3.9205   -1.1174    4.2482 H   0  0  0  0  0  0  0  0  0  0  0  0
   -5.7096   -2.4733    5.2988 H   0  0  0  0  0  0  0  0  0  0  0  0
   -8.0385   -2.3300    4.4548 H   0  0  0  0  0  0  0  0  0  0  0  0
   -8.5752   -0.8342    2.5490 H   0  0  0  0  0  0  0  0  0  0  0  0
   -6.7887    0.5192    1.4905 H   0  0  0  0  0  0  0  0  0  0  0  0
    3.3586   -2.2880   -3.6518 H   0  0  0  0  0  0  0  0  0  0  0  0
    4.3234   -1.7846   -5.8739 H   0  0  0  0  0  0  0  0  0  0  0  0
    3.5149    0.1716   -7.1708 H   0  0  0  0  0  0  0  0  0  0  0  0
    1.7461    1.6399   -6.2288 H   0  0  0  0  0  0  0  0  0  0  0  0
    0.7748    1.1437   -4.0006 H   0  0  0  0  0  0  0  0  0  0  0  0
  2  1  1  0  0  0  0
  2  3  2  0  0  0  0
  4 31  1  0  0  0  0
  4  2  1  0  0  0  0
  5  7  1  0  0  0  0
  5  6  1  1  0  0  0
  5  4  1  0  0  0  0
  7 14  2  0  0  0  0
  8 10  2  0  0  0  0
  8  7  1  0  0  0  0
  9  8  1  0  0  0  0
 10 11  1  0  0  0  0
 11 12  1  0  0  0  0
 11 13  2  0  0  0  0
 13 15  1  0  0  0  0
 14 13  1  0  0  0  0
 14  1  1  0  0  0  0
 15 16  2  0  0  0  0
 15 17  1  0  0  0  0
 17 36  1  0  0  0  0
 17 18  1  0  0  0  0
 18 19  1  0  0  0  0
 18 39  1  0  0  0  0
 19 20  1  0  0  0  0
 20 40  1  0  0  0  0
 20 21  2  0  0  0  0
 21 41  1  0  0  0  0
 22 42  1  0  0  0  0
 22 21  1  0  0  0  0
 23 22  2  0  0  0  0
 24 19  2  0  0  0  0
 24 23  1  0  0  0  0
 25  5  1  0  0  0  0
 26 25  1  0  0  0  0
 26 45  1  0  0  0  0
 27 26  2  0  0  0  0
 28 29  2  0  0  0  0
 28 27  1  0  0  0  0
 29 30  1  0  0  0  0
 30 49  1  0  0  0  0
 30 25  2  0  0  0  0
 32  4  1  0  0  0  0
 33  9  1  0  0  0  0
 34 10  1  0  0  0  0
 35 12  1  0  0  0  0
 37 17  1  0  0  0  0
 38 18  1  0  0  0  0
 43 23  1  0  0  0  0
 44 24  1  0  0  0  0
 46 27  1  0  0  0  0
 47 28  1  0  0  0  0
 48 29  1  0  0  0  0
M  END
$$$$
