rmsd72.gzmat
 OpenBabel08211713363D

 43 46  0  0  0  0  0  0  0  0999 V2000
    0.0000    0.0000    0.0000 C   0  0  0  0  0  0  0  0  0  0  0  0
    1.4106    0.0000    0.0000 C   0  0  0  0  0  0  0  0  0  0  0  0
    2.1722    0.0000    1.1416 C   0  0  0  0  0  0  0  0  0  0  0  0
    1.4629   -0.0022    2.3554 C   0  0  0  0  0  0  0  0  0  0  0  0
    0.0130    0.0129    2.3891 C   0  0  0  0  0  0  0  0  0  0  0  0
   -0.7056    0.0147    1.2033 C   0  0  0  0  0  0  0  0  0  0  0  0
   -0.3632    0.0082    3.7698 C   0  0  0  0  0  0  0  0  0  0  0  0
    0.8036   -0.0104    4.5232 C   0  0  0  0  0  0  0  0  0  0  0  0
    1.9147   -0.0054    3.6536 N   0  0  0  0  0  0  0  0  0  0  0  0
    2.8675   -0.0975    3.9622 H   0  0  0  0  0  0  0  0  0  0  0  0
    0.9630   -0.0185    5.9603 C   0  0  0  0  0  0  0  0  0  0  0  0
   -0.0387    0.5413    6.7682 C   0  0  0  0  0  0  0  0  0  0  0  0
    0.0649    0.5155    8.1526 C   0  0  0  0  0  0  0  0  0  0  0  0
    1.1708   -0.0758    8.7676 C   0  0  0  0  0  0  0  0  0  0  0  0
    2.1874   -0.6349    7.9982 C   0  0  0  0  0  0  0  0  0  0  0  0
    2.0756   -0.5867    6.6007 C   0  0  0  0  0  0  0  0  0  0  0  0
    3.0432   -1.0825    5.7903 O   0  0  0  0  0  0  0  0  0  0  0  0
    3.3491   -1.2682    8.6271 C   0  0  0  0  0  0  0  0  0  0  0  0
    3.5496   -2.6444    8.4860 C   0  0  0  0  0  0  0  0  0  0  0  0
    4.6547   -3.2476    9.0810 C   0  0  0  0  0  0  0  0  0  0  0  0
    5.5585   -2.4802    9.8148 C   0  0  0  0  0  0  0  0  0  0  0  0
    5.3536   -1.1090    9.9608 C   0  0  0  0  0  0  0  0  0  0  0  0
    4.2489   -0.5004    9.3696 C   0  0  0  0  0  0  0  0  0  0  0  0
    2.1760    0.0069   -1.5252 Cl  0  0  0  0  0  0  0  0  0  0  0  0
   -0.7148   -0.0293   -1.2797 C   0  0  0  0  0  0  0  0  0  0  0  0
   -0.8395   -1.1965   -1.9425 N   0  0  0  0  0  0  0  0  0  0  0  0
   -1.2806   -1.2884   -2.8432 H   0  0  0  0  0  0  0  0  0  0  0  0
   -0.4214   -2.0409   -1.5626 H   0  0  0  0  0  0  0  0  0  0  0  0
   -1.2508    1.1056   -1.7717 N   0  0  0  0  0  0  0  0  0  0  0  0
    3.2633    0.0032    1.1225 H   0  0  0  0  0  0  0  0  0  0  0  0
   -1.7969    0.0176    1.2239 H   0  0  0  0  0  0  0  0  0  0  0  0
   -1.3682    0.0033    4.1390 H   0  0  0  0  0  0  0  0  0  0  0  0
   -0.9056    1.0072    6.2952 H   0  0  0  0  0  0  0  0  0  0  0  0
   -0.7211    0.9575    8.7654 H   0  0  0  0  0  0  0  0  0  0  0  0
    1.2423   -0.1051    9.8585 H   0  0  0  0  0  0  0  0  0  0  0  0
    3.7994   -1.4909    6.2980 H   0  0  0  0  0  0  0  0  0  0  0  0
    2.8301   -3.2457    7.9317 H   0  0  0  0  0  0  0  0  0  0  0  0
    4.8088   -4.3219    8.9777 H   0  0  0  0  0  0  0  0  0  0  0  0
    6.4241   -2.9543   10.2783 H   0  0  0  0  0  0  0  0  0  0  0  0
    6.0581   -0.5111   10.5400 H   0  0  0  0  0  0  0  0  0  0  0  0
    4.0856    0.5703    9.4850 H   0  0  0  0  0  0  0  0  0  0  0  0
   -1.1281    1.9818   -1.2744 H   0  0  0  0  0  0  0  0  0  0  0  0
   -1.7484    1.1592   -2.6459 H   0  0  0  0  0  0  0  0  0  0  0  0
  1  2  2  0  0  0  0
  1  6  1  0  0  0  0
  2  3  1  0  0  0  0
  3  4  2  0  0  0  0
  4  5  1  0  0  0  0
  4  9  1  0  0  0  0
  5  7  1  0  0  0  0
  6 31  1  0  0  0  0
  6  5  2  0  0  0  0
  7 32  1  0  0  0  0
  7  8  2  0  0  0  0
  8 11  1  0  0  0  0
  9 10  1  0  0  0  0
  9  8  1  0  0  0  0
 11 16  2  0  0  0  0
 11 12  1  0  0  0  0
 12 13  2  0  0  0  0
 13 34  1  0  0  0  0
 13 14  1  0  0  0  0
 14 35  1  0  0  0  0
 15 18  1  0  0  0  0
 15 14  2  0  0  0  0
 16 15  1  0  0  0  0
 17 36  1  0  0  0  0
 17 16  1  0  0  0  0
 18 23  1  0  0  0  0
 19 18  2  0  0  0  0
 19 20  1  0  0  0  0
 20 21  2  0  0  0  0
 21 22  1  0  0  0  0
 21 39  1  0  0  0  0
 22 40  1  0  0  0  0
 23 41  1  0  0  0  0
 23 22  2  0  0  0  0
 24  2  1  0  0  0  0
 25  1  1  0  0  0  0
 26 28  1  0  0  0  0
 26 25  2  0  0  0  0
 27 26  1  0  0  0  0
 29 25  1  0  0  0  0
 29 42  1  0  0  0  0
 30  3  1  0  0  0  0
 33 12  1  0  0  0  0
 37 19  1  0  0  0  0
 38 20  1  0  0  0  0
 43 29  1  0  0  0  0
M  END
$$$$
