rmsd86.gzmat
 OpenBabel08211713363D

 43 46  0  0  0  0  0  0  0  0999 V2000
    0.0000    0.0000    0.0000 C   0  0  0  0  0  0  0  0  0  0  0  0
    1.4108    0.0000    0.0000 C   0  0  0  0  0  0  0  0  0  0  0  0
    2.1733    0.0000    1.1416 C   0  0  0  0  0  0  0  0  0  0  0  0
    1.4668   -0.0007    2.3569 C   0  0  0  0  0  0  0  0  0  0  0  0
    0.0168    0.0112    2.3901 C   0  0  0  0  0  0  0  0  0  0  0  0
   -0.7030    0.0106    1.2055 C   0  0  0  0  0  0  0  0  0  0  0  0
   -0.3600    0.0127    3.7703 C   0  0  0  0  0  0  0  0  0  0  0  0
    0.8064    0.0020    4.5249 C   0  0  0  0  0  0  0  0  0  0  0  0
    1.9182    0.0043    3.6556 N   0  0  0  0  0  0  0  0  0  0  0  0
    2.8712   -0.0803    3.9655 H   0  0  0  0  0  0  0  0  0  0  0  0
    0.9587    0.0077    5.9628 C   0  0  0  0  0  0  0  0  0  0  0  0
   -0.0668    0.5444    6.7576 C   0  0  0  0  0  0  0  0  0  0  0  0
    0.0231    0.5319    8.1428 C   0  0  0  0  0  0  0  0  0  0  0  0
    1.1397   -0.0226    8.7721 C   0  0  0  0  0  0  0  0  0  0  0  0
    2.1797   -0.5571    8.0164 C   0  0  0  0  0  0  0  0  0  0  0  0
    2.0804   -0.5235    6.6175 C   0  0  0  0  0  0  0  0  0  0  0  0
    3.0666   -1.0055    5.8213 O   0  0  0  0  0  0  0  0  0  0  0  0
    3.3495   -1.1536    8.6658 C   0  0  0  0  0  0  0  0  0  0  0  0
    3.2034   -2.3324    9.4019 C   0  0  0  0  0  0  0  0  0  0  0  0
    4.3122   -2.9034   10.0209 C   0  0  0  0  0  0  0  0  0  0  0  0
    5.5638   -2.2989    9.9083 C   0  0  0  0  0  0  0  0  0  0  0  0
    5.7074   -1.1191    9.1796 C   0  0  0  0  0  0  0  0  0  0  0  0
    4.6021   -0.5438    8.5567 C   0  0  0  0  0  0  0  0  0  0  0  0
    2.1808    0.0130   -1.5231 Cl  0  0  0  0  0  0  0  0  0  0  0  0
   -0.7246   -0.0138   -1.2740 C   0  0  0  0  0  0  0  0  0  0  0  0
   -1.3472    1.1053   -1.6984 N   0  0  0  0  0  0  0  0  0  0  0  0
   -1.8567    1.1700   -2.5651 H   0  0  0  0  0  0  0  0  0  0  0  0
   -1.2810    1.9602   -1.1557 H   0  0  0  0  0  0  0  0  0  0  0  0
   -0.7816   -1.1485   -1.9996 N   0  0  0  0  0  0  0  0  0  0  0  0
    3.2644    0.0027    1.1212 H   0  0  0  0  0  0  0  0  0  0  0  0
   -1.7941    0.0076    1.2282 H   0  0  0  0  0  0  0  0  0  0  0  0
   -1.3657    0.0086    4.1372 H   0  0  0  0  0  0  0  0  0  0  0  0
   -0.9440    0.9798    6.2749 H   0  0  0  0  0  0  0  0  0  0  0  0
   -0.7817    0.9548    8.7447 H   0  0  0  0  0  0  0  0  0  0  0  0
    1.2038   -0.0356    9.8636 H   0  0  0  0  0  0  0  0  0  0  0  0
    3.8015   -1.4401    6.3387 H   0  0  0  0  0  0  0  0  0  0  0  0
    2.2233   -2.8003    9.4900 H   0  0  0  0  0  0  0  0  0  0  0  0
    4.1995   -3.8224   10.5971 H   0  0  0  0  0  0  0  0  0  0  0  0
    6.4301   -2.7471   10.3956 H   0  0  0  0  0  0  0  0  0  0  0  0
    6.6842   -0.6413    9.1032 H   0  0  0  0  0  0  0  0  0  0  0  0
    4.7092    0.3900    8.0067 H   0  0  0  0  0  0  0  0  0  0  0  0
   -0.3085   -1.9858   -1.6718 H   0  0  0  0  0  0  0  0  0  0  0  0
   -1.2208   -1.2154   -2.9038 H   0  0  0  0  0  0  0  0  0  0  0  0
  1  2  2  0  0  0  0
  1  6  1  0  0  0  0
  2  3  1  0  0  0  0
  3  4  2  0  0  0  0
  4  5  1  0  0  0  0
  4  9  1  0  0  0  0
  5  7  1  0  0  0  0
  6 31  1  0  0  0  0
  6  5  2  0  0  0  0
  7 32  1  0  0  0  0
  7  8  2  0  0  0  0
  8 11  1  0  0  0  0
  9 10  1  0  0  0  0
  9  8  1  0  0  0  0
 11 16  2  0  0  0  0
 11 12  1  0  0  0  0
 12 13  2  0  0  0  0
 13 34  1  0  0  0  0
 13 14  1  0  0  0  0
 14 35  1  0  0  0  0
 15 18  1  0  0  0  0
 15 14  2  0  0  0  0
 16 15  1  0  0  0  0
 17 36  1  0  0  0  0
 17 16  1  0  0  0  0
 18 19  1  0  0  0  0
 19 37  1  0  0  0  0
 19 20  2  0  0  0  0
 20 38  1  0  0  0  0
 21 20  1  0  0  0  0
 21 39  1  0  0  0  0
 22 21  2  0  0  0  0
 23 18  2  0  0  0  0
 23 22  1  0  0  0  0
 24  2  1  0  0  0  0
 25  1  1  0  0  0  0
 26 25  1  0  0  0  0
 26 28  1  0  0  0  0
 27 26  1  0  0  0  0
 29 42  1  0  0  0  0
 29 25  2  0  0  0  0
 30  3  1  0  0  0  0
 33 12  1  0  0  0  0
 40 22  1  0  0  0  0
 41 23  1  0  0  0  0
 43 29  1  0  0  0  0
M  END
$$$$
