43
rmsd71.gzmat
C          0.00000        0.00000        0.00000
C          1.41090        0.00000        0.00000
C          2.17200        0.00000        1.14170
C          1.46300       -0.00750        2.35550
C          0.01310       -0.00100        2.39150
C         -0.70490        0.00770        1.20510
C         -0.35940       -0.01970        3.77370
C          0.80910       -0.03770        4.52510
N          1.91750       -0.01350        3.65200
H          2.87320       -0.09180        3.95600
C          0.97780       -0.07110        5.96130
C         -0.03960        0.42500        6.79140
C          0.07920        0.37410        8.17400
C          1.21380       -0.18500        8.76660
C          2.24310       -0.68790        7.97560
C          2.11760       -0.60770        6.58080
O          3.10100       -1.04420        5.75500
C          3.43120       -1.30110        8.57520
C          3.65410       -2.67290        8.42380
C          4.78450       -3.25720        8.98920
C          5.69040       -2.47580        9.70520
C          5.46370       -1.10910        9.86100
C          4.33410       -0.51920        9.29880
Cl         2.18230        0.01170       -1.52250
C         -0.71510       -0.00920       -1.27950
N         -0.77690       -1.14430       -2.00420
H         -1.20930       -1.20890       -2.91170
H         -0.30760       -1.98350       -1.67550
N         -1.31520        1.11770       -1.71500
H          3.26310        0.00610        1.12380
H         -1.79620        0.01020        1.22480
H         -1.36380       -0.03480        4.14350
H         -0.93360        0.85990        6.34000
H         -0.71860        0.76920        8.80360
H          1.29670       -0.23400        9.85580
H          3.87870       -1.42750        6.24930
H          2.93320       -3.28640        7.88490
H          4.95690       -4.32800        8.87770
H          6.57280       -2.93600       10.15070
H          6.16890       -0.50070       10.42780
H          4.15280        0.54750        9.42410
H         -1.24420        1.97290       -1.17320
H         -1.81560        1.18640       -2.58660
