43
rmsd72.gzmat
C          0.00000        0.00000        0.00000
C          1.41060        0.00000        0.00000
C          2.17220        0.00000        1.14160
C          1.46290       -0.00220        2.35540
C          0.01300        0.01290        2.38910
C         -0.70560        0.01470        1.20330
C         -0.36320        0.00820        3.76980
C          0.80360       -0.01040        4.52320
N          1.91470       -0.00540        3.65360
H          2.86750       -0.09750        3.96220
C          0.96300       -0.01850        5.96030
C         -0.03870        0.54130        6.76820
C          0.06490        0.51550        8.15260
C          1.17080       -0.07580        8.76760
C          2.18740       -0.63490        7.99820
C          2.07560       -0.58670        6.60070
O          3.04320       -1.08250        5.79030
C          3.34910       -1.26820        8.62710
C          3.54960       -2.64440        8.48600
C          4.65470       -3.24760        9.08100
C          5.55850       -2.48020        9.81480
C          5.35360       -1.10900        9.96080
C          4.24890       -0.50040        9.36960
Cl         2.17600        0.00690       -1.52520
C         -0.71480       -0.02930       -1.27970
N         -0.83950       -1.19650       -1.94250
H         -1.28060       -1.28840       -2.84320
H         -0.42140       -2.04090       -1.56260
N         -1.25080        1.10560       -1.77170
H          3.26330        0.00320        1.12250
H         -1.79690        0.01760        1.22390
H         -1.36820        0.00330        4.13900
H         -0.90560        1.00720        6.29520
H         -0.72110        0.95750        8.76540
H          1.24230       -0.10510        9.85850
H          3.79940       -1.49090        6.29800
H          2.83010       -3.24570        7.93170
H          4.80880       -4.32190        8.97770
H          6.42410       -2.95430       10.27830
H          6.05810       -0.51110       10.54000
H          4.08560        0.57030        9.48500
H         -1.12810        1.98180       -1.27440
H         -1.74840        1.15920       -2.64590
