43
rmsd89.gzmat
C          0.00000        0.00000        0.00000
C          1.41070        0.00000        0.00000
C          2.17150        0.00000        1.14210
C          1.46220       -0.00240        2.35590
C          0.01220        0.01380        2.39100
C         -0.70550        0.01750        1.20470
C         -0.36190        0.00630        3.77280
C          0.80540       -0.01560        4.52480
N          1.91550       -0.00600        3.65330
H          2.86890       -0.10040        3.95960
C          0.97280       -0.03650        5.96110
C         -0.01810        0.51930        6.78490
C          0.09790        0.47470        8.16800
C          1.20640       -0.12920        8.76630
C          2.21390       -0.68150        7.98060
C          2.08730       -0.61850        6.58540
O          3.04310       -1.11830        5.76280
C          3.38660       -1.31790        8.58610
C          3.25140       -2.54330        9.24280
C          4.36710       -3.14630        9.81880
C          5.61390       -2.52780        9.74080
C          5.74760       -1.30370        9.08690
C          4.63570       -0.69620        8.50870
Cl         2.18040        0.01200       -1.52310
C         -0.71730       -0.02630       -1.27800
N         -0.78930       -1.17560       -1.97880
H         -1.22680       -1.25700       -2.88250
H         -0.32810       -2.01110       -1.63040
N         -1.31130        1.09600       -1.73190
H          3.26270        0.00240        1.12440
H         -1.79680        0.02200        1.22420
H         -1.36630        0.00040        4.14350
H         -0.88770        0.99530        6.32720
H         -0.68010        0.91280        8.79350
H          1.29100       -0.16590        9.85580
H          3.76910       -1.58970        6.25950
H          2.27560       -3.02310        9.30360
H          4.26320       -4.10140       10.33380
H          6.48480       -3.00000       10.19650
H          6.72150       -0.81720        9.03290
H          4.73410        0.26980        8.01610
H         -1.23020        1.96060       -1.20630
H         -1.81330        1.15290       -2.60340
