rmsd75.gzmat
 OpenBabel08211713363D

 43 46  0  0  0  0  0  0  0  0999 V2000
    0.0000    0.0000    0.0000 C   0  0  0  0  0  0  0  0  0  0  0  0
    1.4110    0.0000    0.0000 C   0  0  0  0  0  0  0  0  0  0  0  0
    2.1722    0.0000    1.1414 C   0  0  0  0  0  0  0  0  0  0  0  0
    1.4613    0.0024    2.3544 C   0  0  0  0  0  0  0  0  0  0  0  0
    0.0118   -0.0092    2.3889 C   0  0  0  0  0  0  0  0  0  0  0  0
   -0.7065   -0.0133    1.2024 C   0  0  0  0  0  0  0  0  0  0  0  0
   -0.3633    0.0029    3.7700 C   0  0  0  0  0  0  0  0  0  0  0  0
    0.8040    0.0217    4.5231 C   0  0  0  0  0  0  0  0  0  0  0  0
    1.9144    0.0066    3.6517 N   0  0  0  0  0  0  0  0  0  0  0  0
    2.8686    0.0937    3.9574 H   0  0  0  0  0  0  0  0  0  0  0  0
    0.9696    0.0467    5.9595 C   0  0  0  0  0  0  0  0  0  0  0  0
   -0.0392   -0.4750    6.7841 C   0  0  0  0  0  0  0  0  0  0  0  0
    0.0762   -0.4289    8.1672 C   0  0  0  0  0  0  0  0  0  0  0  0
    1.1994    0.1470    8.7649 C   0  0  0  0  0  0  0  0  0  0  0  0
    2.2211    0.6734    7.9791 C   0  0  0  0  0  0  0  0  0  0  0  0
    2.0991    0.5996    6.5837 C   0  0  0  0  0  0  0  0  0  0  0  0
    3.0743    1.0581    5.7600 O   0  0  0  0  0  0  0  0  0  0  0  0
    3.3944    1.3069    8.5857 C   0  0  0  0  0  0  0  0  0  0  0  0
    4.2796    0.5537    9.3599 C   0  0  0  0  0  0  0  0  0  0  0  0
    5.3918    1.1668    9.9323 C   0  0  0  0  0  0  0  0  0  0  0  0
    5.6212    2.5273    9.7324 C   0  0  0  0  0  0  0  0  0  0  0  0
    4.7346    3.2799    8.9633 C   0  0  0  0  0  0  0  0  0  0  0  0
    3.6198    2.6733    8.3906 C   0  0  0  0  0  0  0  0  0  0  0  0
    2.1752   -0.0045   -1.5260 Cl  0  0  0  0  0  0  0  0  0  0  0  0
   -0.7040    0.0308   -1.2860 C   0  0  0  0  0  0  0  0  0  0  0  0
   -1.2017   -1.1083   -1.8066 N   0  0  0  0  0  0  0  0  0  0  0  0
   -1.6744   -1.1602   -2.6947 H   0  0  0  0  0  0  0  0  0  0  0  0
   -1.0697   -1.9896   -1.3207 H   0  0  0  0  0  0  0  0  0  0  0  0
   -0.8480    1.2052   -1.9321 N   0  0  0  0  0  0  0  0  0  0  0  0
    3.2634   -0.0013    1.1250 H   0  0  0  0  0  0  0  0  0  0  0  0
   -1.7976   -0.0174    1.2244 H   0  0  0  0  0  0  0  0  0  0  0  0
   -1.3684    0.0137    4.1383 H   0  0  0  0  0  0  0  0  0  0  0  0
   -0.9222   -0.9272    6.3284 H   0  0  0  0  0  0  0  0  0  0  0  0
   -0.7158   -0.8409    8.7930 H   0  0  0  0  0  0  0  0  0  0  0  0
    1.2791    0.1908    9.8547 H   0  0  0  0  0  0  0  0  0  0  0  0
    3.8493    1.4454    6.2553 H   0  0  0  0  0  0  0  0  0  0  0  0
    4.0995   -0.5093    9.5148 H   0  0  0  0  0  0  0  0  0  0  0  0
    6.0819    0.5811   10.5404 H   0  0  0  0  0  0  0  0  0  0  0  0
    6.4918    3.0050   10.1827 H   0  0  0  0  0  0  0  0  0  0  0  0
    4.9087    4.3459    8.8148 H   0  0  0  0  0  0  0  0  0  0  0  0
    2.9124    3.2658    7.8113 H   0  0  0  0  0  0  0  0  0  0  0  0
   -0.4538    2.0529   -1.5343 H   0  0  0  0  0  0  0  0  0  0  0  0
   -1.2773    1.2992   -2.8382 H   0  0  0  0  0  0  0  0  0  0  0  0
  1  2  2  0  0  0  0
  1  6  1  0  0  0  0
  2  3  1  0  0  0  0
  3  4  2  0  0  0  0
  4  5  1  0  0  0  0
  4  9  1  0  0  0  0
  5  7  1  0  0  0  0
  6 31  1  0  0  0  0
  6  5  2  0  0  0  0
  7 32  1  0  0  0  0
  7  8  2  0  0  0  0
  8 11  1  0  0  0  0
  9 10  1  0  0  0  0
  9  8  1  0  0  0  0
 11 16  2  0  0  0  0
 11 12  1  0  0  0  0
 12 13  2  0  0  0  0
 13 14  1  0  0  0  0
 13 34  1  0  0  0  0
 14 35  1  0  0  0  0
 15 18  1  0  0  0  0
 15 14  2  0  0  0  0
 16 15  1  0  0  0  0
 17 36  1  0  0  0  0
 17 16  1  0  0  0  0
 18 19  1  0  0  0  0
 19 37  1  0  0  0  0
 19 20  2  0  0  0  0
 20 38  1  0  0  0  0
 21 20  1  0  0  0  0
 21 39  1  0  0  0  0
 22 21  2  0  0  0  0
 23 18  2  0  0  0  0
 23 22  1  0  0  0  0
 24  2  1  0  0  0  0
 25  1  1  0  0  0  0
 26 28  1  0  0  0  0
 26 25  1  0  0  0  0
 27 26  1  0  0  0  0
 29 42  1  0  0  0  0
 29 25  2  0  0  0  0
 30  3  1  0  0  0  0
 33 12  1  0  0  0  0
 40 22  1  0  0  0  0
 41 23  1  0  0  0  0
 43 29  1  0  0  0  0
M  END
$$$$
