43
rmsd78.gzmat
C          0.00000        0.00000        0.00000
C          1.41090        0.00000        0.00000
C          2.17350        0.00000        1.14140
C          1.46690       -0.00070        2.35690
C          0.01700        0.01320        2.39010
C         -0.70310        0.01420        1.20550
C         -0.35950        0.01500        3.77030
C          0.80680        0.00330        4.52480
N          1.91860        0.00350        3.65550
H          2.87200       -0.07990        3.96460
C          0.95810        0.01060        5.96280
C         -0.07040        0.54240        6.75680
C          0.01980        0.53240        8.14190
C          1.13930       -0.01540        8.77230
C          2.18150       -0.54690        8.01760
C          2.08250       -0.51420        6.61860
O          3.07200       -0.99100        5.82320
C          3.35380       -1.13910        8.66680
C          3.21540       -2.32390        9.39460
C          4.32730       -2.89110       10.01180
C          5.57450       -2.27680        9.90580
C          5.71040       -1.09100        9.18550
C          4.60200       -0.52000        8.56440
Cl         2.18100        0.01460       -1.52320
C         -0.72260       -0.01870       -1.27500
N         -0.77830       -1.15650       -1.99590
H         -1.21270       -1.22680       -2.90230
H         -0.30830       -1.99290       -1.66150
N         -1.34260        1.09880       -1.70650
H          3.26470        0.00340        1.12040
H         -1.79420        0.01570        1.22840
H         -1.36500        0.01090        4.13770
H         -0.95000        0.97200        6.27350
H         -0.78690        0.95190        8.74370
H          1.20340       -0.02490        9.86390
H          3.80940       -1.42040        6.34120
H          2.23900       -2.79990        9.47740
H          4.22070       -3.81480       10.58110
H          6.44350       -2.72150       10.39170
H          6.68370       -0.60530        9.11390
H          4.70290        0.41760        8.02000
H         -1.27500        1.95700       -1.16930
H         -1.85360        1.15830       -2.57270
