rmsd58.gzmat
 OpenBabel08211713403D

 51 55  0  0  1  0  0  0  0  0999 V2000
    0.0000    0.0000    0.0000 O   0  0  0  0  0  0  0  0  0  0  0  0
    1.3918    0.0000    0.0000 C   0  0  0  0  0  0  0  0  0  0  0  0
    1.8858    0.0000    1.2282 N   0  0  0  0  0  0  0  0  0  0  0  0
    0.7886    0.0167    2.1019 C   0  0  0  0  0  0  0  0  0  0  0  0
   -0.3668    0.0062    1.3405 C   0  0  2  0  0  0  0  0  0  0  0  0
   -1.7795   -0.0264    1.6048 C   0  0  0  0  0  0  0  0  0  0  0  0
   -2.6974    0.3096    0.6025 C   0  0  0  0  0  0  0  0  0  0  0  0
   -4.0627    0.2614    0.8695 C   0  0  0  0  0  0  0  0  0  0  0  0
   -4.5165   -0.1167    2.1323 C   0  0  0  0  0  0  0  0  0  0  0  0
   -3.6031   -0.4455    3.1336 C   0  0  0  0  0  0  0  0  0  0  0  0
   -2.2372   -0.4050    2.8726 C   0  0  0  0  0  0  0  0  0  0  0  0
    0.9886    0.0546    3.5392 C   0  0  0  0  0  0  0  0  0  0  0  0
    0.4566    1.1096    4.2864 C   0  0  0  0  0  0  0  0  0  0  0  0
    0.6691    1.1555    5.6612 C   0  0  0  0  0  0  0  0  0  0  0  0
    1.4099    0.1539    6.2888 C   0  0  0  0  0  0  0  0  0  0  0  0
    1.9394   -0.8964    5.5418 C   0  0  0  0  0  0  0  0  0  0  0  0
    1.7295   -0.9501    4.1659 C   0  0  0  0  0  0  0  0  0  0  0  0
    2.0405    0.0155   -1.2660 C   0  0  1  0  0  0  0  0  0  0  0  0
    1.2404   -0.3295   -2.3521 O   0  0  0  0  0  0  0  0  0  0  0  0
    2.0634   -0.2157   -3.4556 C   0  0  0  0  0  0  0  0  0  0  0  0
    3.2804    0.1675   -3.1391 N   0  0  0  0  0  0  0  0  0  0  0  0
    3.3088    0.3222   -1.7384 C   0  0  0  0  0  0  0  0  0  0  0  0
    4.4993    0.7647   -1.0379 C   0  0  0  0  0  0  0  0  0  0  0  0
    4.7185    0.3368    0.2735 C   0  0  0  0  0  0  0  0  0  0  0  0
    5.7996    0.8575    0.9765 C   0  0  0  0  0  0  0  0  0  0  0  0
    6.7201    1.7265    0.3770 C   0  0  0  0  0  0  0  0  0  0  0  0
    6.5151    2.0962   -0.9479 C   0  0  0  0  0  0  0  0  0  0  0  0
    5.4049    1.6338   -1.6544 C   0  0  0  0  0  0  0  0  0  0  0  0
    6.0784    0.5885    2.2901 O   0  0  0  0  0  0  0  0  0  0  0  0
    5.0424    0.0246    3.0671 C   0  0  0  0  0  0  0  0  0  0  0  0
    5.0248   -1.4817    3.0017 C   0  0  0  0  0  0  0  0  0  0  0  0
    4.6363   -2.2267    3.8657 O   0  0  0  0  0  0  0  0  0  0  0  0
    5.4752   -1.9517    1.8191 O   0  0  0  0  0  0  0  0  0  0  0  0
   -2.3436    0.6082   -0.3841 H   0  0  0  0  0  0  0  0  0  0  0  0
   -4.7770    0.5193    0.0896 H   0  0  0  0  0  0  0  0  0  0  0  0
   -5.5848   -0.1564    2.3357 H   0  0  0  0  0  0  0  0  0  0  0  0
   -3.9573   -0.7380    4.1206 H   0  0  0  0  0  0  0  0  0  0  0  0
   -1.5239   -0.6717    3.6542 H   0  0  0  0  0  0  0  0  0  0  0  0
   -0.1135    1.8941    3.7919 H   0  0  0  0  0  0  0  0  0  0  0  0
    0.2601    1.9769    6.2453 H   0  0  0  0  0  0  0  0  0  0  0  0
    1.5756    0.1943    7.3630 H   0  0  0  0  0  0  0  0  0  0  0  0
    2.5266   -1.6765    6.0264 H   0  0  0  0  0  0  0  0  0  0  0  0
    2.1463   -1.7719    3.5807 H   0  0  0  0  0  0  0  0  0  0  0  0
    1.6073   -0.4506   -4.3976 H   0  0  0  0  0  0  0  0  0  0  0  0
    4.0597   -0.4045    0.7272 H   0  0  0  0  0  0  0  0  0  0  0  0
    7.5690    2.0973    0.9440 H   0  0  0  0  0  0  0  0  0  0  0  0
    7.2233    2.7631   -1.4377 H   0  0  0  0  0  0  0  0  0  0  0  0
    5.2407    1.9417   -2.6867 H   0  0  0  0  0  0  0  0  0  0  0  0
    4.0363    0.4325    2.8069 H   0  0  0  0  0  0  0  0  0  0  0  0
    5.3083    0.3629    4.0936 H   0  0  0  0  0  0  0  0  0  0  0  0
    5.4580   -2.9418    1.7576 H   0  0  0  0  0  0  0  0  0  0  0  0
  1  2  1  0  0  0  0
  1  5  1  0  0  0  0
  2  3  2  0  0  0  0
  3  4  2  0  0  0  0
  4 12  1  0  0  0  0
  5  6  1  1  0  0  0
  5  4  1  0  0  0  0
  6 11  2  0  0  0  0
  7  8  2  0  0  0  0
  7  6  1  0  0  0  0
  8  9  1  0  0  0  0
  9 36  1  0  0  0  0
  9 10  2  0  0  0  0
 10 37  1  0  0  0  0
 11 10  1  0  0  0  0
 11 38  1  0  0  0  0
 12 17  2  0  0  0  0
 12 13  1  0  0  0  0
 13 14  2  0  0  0  0
 14 40  1  0  0  0  0
 14 15  1  0  0  0  0
 15 41  1  0  0  0  0
 16 42  1  0  0  0  0
 16 15  2  0  0  0  0
 17 16  1  0  0  0  0
 18  2  1  6  0  0  0
 19 18  1  0  0  0  0
 20 21  2  0  0  0  0
 20 19  1  0  0  0  0
 21 22  2  0  0  0  0
 22 18  1  0  0  0  0
 22 23  1  0  0  0  0
 23 24  1  0  0  0  0
 24 45  1  0  0  0  0
 24 25  2  0  0  0  0
 25 29  1  0  0  0  0
 26 46  1  0  0  0  0
 26 25  1  0  0  0  0
 27 26  2  0  0  0  0
 28 23  2  0  0  0  0
 28 27  1  0  0  0  0
 29 30  1  0  0  0  0
 30 50  1  0  0  0  0
 31 30  1  0  0  0  0
 31 32  2  0  0  0  0
 33 31  1  0  0  0  0
 34  7  1  0  0  0  0
 35  8  1  0  0  0  0
 39 13  1  0  0  0  0
 43 17  1  0  0  0  0
 44 20  1  0  0  0  0
 47 27  1  0  0  0  0
 48 28  1  0  0  0  0
 49 30  1  0  0  0  0
 51 33  1  0  0  0  0
M  RAD  2   5   2  18   2
M  END
$$$$
