
     RDKit          3D

 51 55  0  0  0  0  0  0  0  0999 V2000
    0.0042   -0.1594    0.0529 O   0  0  0  0  0  0  0  0  0  0  0  0
    1.3370   -0.4065    0.0646 C   0  0  0  0  0  0  0  0  0  0  0  0
    1.8281   -0.4458    1.2737 N   0  0  0  0  0  0  0  0  0  0  0  0
    0.7701   -0.1968    2.1289 C   0  0  0  0  0  0  0  0  0  0  0  0
   -0.3755   -0.0361    1.3686 C   0  0  0  0  0  0  0  0  0  0  0  0
   -1.7938    0.1783    1.6266 C   0  0  0  0  0  0  0  0  0  0  0  0
   -2.3622   -0.1148    2.8818 C   0  0  0  0  0  0  0  0  0  0  0  0
   -3.7222    0.0915    3.1047 C   0  0  0  0  0  0  0  0  0  0  0  0
   -4.5415    0.5844    2.0837 C   0  0  0  0  0  0  0  0  0  0  0  0
   -3.9888    0.8630    0.8303 C   0  0  0  0  0  0  0  0  0  0  0  0
   -2.6287    0.6617    0.5997 C   0  0  0  0  0  0  0  0  0  0  0  0
    0.9969   -0.1267    3.5810 C   0  0  0  0  0  0  0  0  0  0  0  0
    0.4304    0.8897    4.3652 C   0  0  0  0  0  0  0  0  0  0  0  0
    0.7103    0.9674    5.7288 C   0  0  0  0  0  0  0  0  0  0  0  0
    1.5631    0.0351    6.3271 C   0  0  0  0  0  0  0  0  0  0  0  0
    2.1348   -0.9782    5.5525 C   0  0  0  0  0  0  0  0  0  0  0  0
    1.8552   -1.0578    4.1881 C   0  0  0  0  0  0  0  0  0  0  0  0
    1.9951   -0.5829   -1.2057 C   0  0  0  0  0  0  0  0  0  0  0  0
    1.1552   -0.7085   -2.2869 O   0  0  0  0  0  0  0  0  0  0  0  0
    1.9672   -0.8769   -3.3460 C   0  0  0  0  0  0  0  0  0  0  0  0
    3.2244   -0.8680   -3.0567 N   0  0  0  0  0  0  0  0  0  0  0  0
    3.3010   -0.6751   -1.6798 C   0  0  0  0  0  0  0  0  0  0  0  0
    4.6135   -0.5690   -1.0309 C   0  0  0  0  0  0  0  0  0  0  0  0
    4.7404   -0.2993    0.3436 C   0  0  0  0  0  0  0  0  0  0  0  0
    6.0053   -0.1586    0.9164 C   0  0  0  0  0  0  0  0  0  0  0  0
    7.1582   -0.3060    0.1329 C   0  0  0  0  0  0  0  0  0  0  0  0
    7.0287   -0.5849   -1.2270 C   0  0  0  0  0  0  0  0  0  0  0  0
    5.7706   -0.7120   -1.8177 C   0  0  0  0  0  0  0  0  0  0  0  0
    6.2003    0.1191    2.2387 O   0  0  0  0  0  0  0  0  0  0  0  0
    5.0855    0.3703    3.0523 C   0  0  0  0  0  0  0  0  0  0  0  0
    4.3915    1.7078    2.8235 C   0  0  0  0  0  0  0  0  0  0  0  0
    3.3620    2.0147    3.3685 O   0  0  0  0  0  0  0  0  0  0  0  0
    5.0588    2.5127    1.9847 O   0  0  0  0  0  0  0  0  0  0  0  0
   -1.7375   -0.5172    3.6790 H   0  0  0  0  0  0  0  0  0  0  0  0
   -4.1479   -0.1432    4.0832 H   0  0  0  0  0  0  0  0  0  0  0  0
   -5.6071    0.7446    2.2630 H   0  0  0  0  0  0  0  0  0  0  0  0
   -4.6221    1.2420    0.0246 H   0  0  0  0  0  0  0  0  0  0  0  0
   -2.1985    0.8777   -0.3791 H   0  0  0  0  0  0  0  0  0  0  0  0
   -0.2100    1.6380    3.8952 H   0  0  0  0  0  0  0  0  0  0  0  0
    0.2731    1.7711    6.3258 H   0  0  0  0  0  0  0  0  0  0  0  0
    1.7848    0.1010    7.3950 H   0  0  0  0  0  0  0  0  0  0  0  0
    2.8011   -1.7111    6.0142 H   0  0  0  0  0  0  0  0  0  0  0  0
    2.2981   -1.8464    3.5763 H   0  0  0  0  0  0  0  0  0  0  0  0
    1.4939   -1.0003   -4.3187 H   0  0  0  0  0  0  0  0  0  0  0  0
    3.8414   -0.2181    0.9486 H   0  0  0  0  0  0  0  0  0  0  0  0
    8.1346   -0.1941    0.6073 H   0  0  0  0  0  0  0  0  0  0  0  0
    7.9268   -0.6987   -1.8390 H   0  0  0  0  0  0  0  0  0  0  0  0
    5.6655   -0.9146   -2.8828 H   0  0  0  0  0  0  0  0  0  0  0  0
    5.4496    0.3756    4.0910 H   0  0  0  0  0  0  0  0  0  0  0  0
    4.3123   -0.4122    2.9828 H   0  0  0  0  0  0  0  0  0  0  0  0
    4.5323    3.3264    1.9016 H   0  0  0  0  0  0  0  0  0  0  0  0
  1  2  1  0
  1  5  1  0
  2  3  2  0
  2 18  1  0
  3  4  1  0
  4  5  2  0
  4 12  1  0
  5  6  1  0
  6  7  2  0
  6 11  1  0
  7  8  1  0
  7 34  1  0
  8  9  2  0
  8 35  1  0
  9 10  1  0
  9 36  1  0
 10 11  2  0
 10 37  1  0
 11 38  1  0
 12 13  2  0
 12 17  1  0
 13 14  1  0
 13 39  1  0
 14 15  2  0
 14 40  1  0
 15 16  1  0
 15 41  1  0
 16 17  2  0
 16 42  1  0
 17 43  1  0
 18 19  1  0
 18 22  2  0
 19 20  1  0
 20 21  2  0
 20 44  1  0
 21 22  1  0
 22 23  1  0
 23 24  2  0
 23 28  1  0
 24 25  1  0
 24 45  1  0
 25 26  2  0
 25 29  1  0
 26 27  1  0
 26 46  1  0
 27 28  2  0
 27 47  1  0
 28 48  1  0
 29 30  1  0
 30 31  1  0
 30 49  1  0
 30 50  1  0
 31 32  2  0
 31 33  1  0
 33 51  1  0
M  END

