rmsd128.gzmat
 OpenBabel08211713403D

 51 55  0  0  1  0  0  0  0  0999 V2000
    0.0000    0.0000    0.0000 O   0  0  0  0  0  0  0  0  0  0  0  0
    1.3929    0.0000    0.0000 C   0  0  0  0  0  0  0  0  0  0  0  0
    1.8899    0.0000    1.2252 N   0  0  0  0  0  0  0  0  0  0  0  0
    0.7917   -0.0155    2.1014 C   0  0  0  0  0  0  0  0  0  0  0  0
   -0.3640   -0.0133    1.3386 C   0  0  2  0  0  0  0  0  0  0  0  0
   -1.7808   -0.0305    1.5886 C   0  0  0  0  0  0  0  0  0  0  0  0
   -2.2764   -0.6515    2.7412 C   0  0  0  0  0  0  0  0  0  0  0  0
   -3.6461   -0.6634    2.9852 C   0  0  0  0  0  0  0  0  0  0  0  0
   -4.5230   -0.0633    2.0820 C   0  0  0  0  0  0  0  0  0  0  0  0
   -4.0308    0.5484    0.9299 C   0  0  0  0  0  0  0  0  0  0  0  0
   -2.6615    0.5664    0.6792 C   0  0  0  0  0  0  0  0  0  0  0  0
    0.9820   -0.0451    3.5382 C   0  0  0  0  0  0  0  0  0  0  0  0
    0.1823    0.7415    4.3736 C   0  0  0  0  0  0  0  0  0  0  0  0
    0.3733    0.7017    5.7517 C   0  0  0  0  0  0  0  0  0  0  0  0
    1.3594   -0.1189    6.2988 C   0  0  0  0  0  0  0  0  0  0  0  0
    2.1600   -0.8989    5.4662 C   0  0  0  0  0  0  0  0  0  0  0  0
    1.9765   -0.8628    4.0862 C   0  0  0  0  0  0  0  0  0  0  0  0
    2.0356   -0.0305   -1.2676 C   0  0  2  0  0  0  0  0  0  0  0  0
    1.1835   -0.0138   -2.3690 O   0  0  0  0  0  0  0  0  0  0  0  0
    2.0147   -0.1078   -3.4686 C   0  0  0  0  0  0  0  0  0  0  0  0
    3.2833   -0.1788   -3.1343 N   0  0  0  0  0  0  0  0  0  0  0  0
    3.3398   -0.1260   -1.7253 C   0  0  0  0  0  0  0  0  0  0  0  0
    4.6117   -0.1733   -1.0261 C   0  0  0  0  0  0  0  0  0  0  0  0
    4.7954    0.5727    0.1434 C   0  0  0  0  0  0  0  0  0  0  0  0
    6.0396    0.5308    0.7640 C   0  0  0  0  0  0  0  0  0  0  0  0
    7.0906   -0.2581    0.2721 C   0  0  0  0  0  0  0  0  0  0  0  0
    6.8809   -0.9988   -0.8830 C   0  0  0  0  0  0  0  0  0  0  0  0
    5.6513   -0.9521   -1.5414 C   0  0  0  0  0  0  0  0  0  0  0  0
    6.4123    1.2579    1.8610 O   0  0  0  0  0  0  0  0  0  0  0  0
    5.4268    2.0235    2.5192 C   0  0  0  0  0  0  0  0  0  0  0  0
    4.6200    1.1496    3.4498 C   0  0  0  0  0  0  0  0  0  0  0  0
    4.7913    0.0076    3.7691 O   0  0  0  0  0  0  0  0  0  0  0  0
    3.6111    1.8973    3.9663 O   0  0  0  0  0  0  0  0  0  0  0  0
   -1.5891   -1.1273    3.4423 H   0  0  0  0  0  0  0  0  0  0  0  0
   -4.0329   -1.1442    3.8822 H   0  0  0  0  0  0  0  0  0  0  0  0
   -5.5939   -0.0742    2.2756 H   0  0  0  0  0  0  0  0  0  0  0  0
   -4.7174    1.0132    0.2243 H   0  0  0  0  0  0  0  0  0  0  0  0
   -2.2747    1.0434   -0.2214 H   0  0  0  0  0  0  0  0  0  0  0  0
   -0.5843    1.3864    3.9449 H   0  0  0  0  0  0  0  0  0  0  0  0
   -0.2490    1.3128    6.4027 H   0  0  0  0  0  0  0  0  0  0  0  0
    1.5038   -0.1506    7.3769 H   0  0  0  0  0  0  0  0  0  0  0  0
    2.9373   -1.5353    5.8888 H   0  0  0  0  0  0  0  0  0  0  0  0
    2.6186   -1.4566    3.4276 H   0  0  0  0  0  0  0  0  0  0  0  0
    1.5212   -0.1092   -4.4209 H   0  0  0  0  0  0  0  0  0  0  0  0
    3.9712    1.1524    0.5553 H   0  0  0  0  0  0  0  0  0  0  0  0
    8.0418   -0.2801    0.7978 H   0  0  0  0  0  0  0  0  0  0  0  0
    7.6819   -1.6196   -1.2825 H   0  0  0  0  0  0  0  0  0  0  0  0
    5.5005   -1.5174   -2.4611 H   0  0  0  0  0  0  0  0  0  0  0  0
    4.7827    2.5887    1.8175 H   0  0  0  0  0  0  0  0  0  0  0  0
    6.0395    2.7487    3.1000 H   0  0  0  0  0  0  0  0  0  0  0  0
    2.9718    1.3793    4.5243 H   0  0  0  0  0  0  0  0  0  0  0  0
  1  2  1  0  0  0  0
  1  5  1  0  0  0  0
  2  3  2  0  0  0  0
  3  4  2  0  0  0  0
  4 12  1  0  0  0  0
  5  6  1  6  0  0  0
  5  4  1  0  0  0  0
  6  7  2  0  0  0  0
  7  8  1  0  0  0  0
  7 34  1  0  0  0  0
  8 35  1  0  0  0  0
  9 36  1  0  0  0  0
  9  8  2  0  0  0  0
 10  9  1  0  0  0  0
 11 10  2  0  0  0  0
 11  6  1  0  0  0  0
 12 17  2  0  0  0  0
 12 13  1  0  0  0  0
 13 14  2  0  0  0  0
 14 15  1  0  0  0  0
 14 40  1  0  0  0  0
 15 41  1  0  0  0  0
 16 42  1  0  0  0  0
 16 15  2  0  0  0  0
 17 16  1  0  0  0  0
 18  2  1  1  0  0  0
 19 18  1  0  0  0  0
 20 21  2  0  0  0  0
 20 19  1  0  0  0  0
 21 22  2  0  0  0  0
 22 18  1  0  0  0  0
 22 23  1  0  0  0  0
 23 24  1  0  0  0  0
 24 45  1  0  0  0  0
 24 25  2  0  0  0  0
 25 29  1  0  0  0  0
 26 25  1  0  0  0  0
 26 46  1  0  0  0  0
 27 26  2  0  0  0  0
 28 23  2  0  0  0  0
 28 27  1  0  0  0  0
 29 30  1  0  0  0  0
 30 50  1  0  0  0  0
 30 31  1  0  0  0  0
 31 32  2  0  0  0  0
 31 33  1  0  0  0  0
 33 51  1  0  0  0  0
 37 10  1  0  0  0  0
 38 11  1  0  0  0  0
 39 13  1  0  0  0  0
 43 17  1  0  0  0  0
 44 20  1  0  0  0  0
 47 27  1  0  0  0  0
 48 28  1  0  0  0  0
 49 30  1  0  0  0  0
M  RAD  2   5   2  18   2
M  END
$$$$
