rmsd142.gzmat
 OpenBabel08211713403D

 51 55  0  0  1  0  0  0  0  0999 V2000
    0.0000    0.0000    0.0000 O   0  0  0  0  0  0  0  0  0  0  0  0
    1.3943    0.0000    0.0000 C   0  0  0  0  0  0  0  0  0  0  0  0
    1.8912    0.0000    1.2250 N   0  0  0  0  0  0  0  0  0  0  0  0
    0.7918   -0.0172    2.1006 C   0  0  0  0  0  0  0  0  0  0  0  0
   -0.3633   -0.0163    1.3367 C   0  0  2  0  0  0  0  0  0  0  0  0
   -1.7801   -0.0382    1.5875 C   0  0  0  0  0  0  0  0  0  0  0  0
   -2.2785   -0.7395    2.6914 C   0  0  0  0  0  0  0  0  0  0  0  0
   -3.6476   -0.7563    2.9379 C   0  0  0  0  0  0  0  0  0  0  0  0
   -4.5206   -0.0827    2.0838 C   0  0  0  0  0  0  0  0  0  0  0  0
   -4.0249    0.6076    0.9788 C   0  0  0  0  0  0  0  0  0  0  0  0
   -2.6560    0.6310    0.7261 C   0  0  0  0  0  0  0  0  0  0  0  0
    0.9613   -0.0470    3.5396 C   0  0  0  0  0  0  0  0  0  0  0  0
    1.9739   -0.8274    4.1078 C   0  0  0  0  0  0  0  0  0  0  0  0
    2.1169   -0.8730    5.4926 C   0  0  0  0  0  0  0  0  0  0  0  0
    1.2575   -0.1414    6.3099 C   0  0  0  0  0  0  0  0  0  0  0  0
    0.2547    0.6452    5.7430 C   0  0  0  0  0  0  0  0  0  0  0  0
    0.1059    0.6962    4.3608 C   0  0  0  0  0  0  0  0  0  0  0  0
    2.0215   -0.0339   -1.2760 C   0  0  2  0  0  0  0  0  0  0  0  0
    1.1456    0.0098   -2.3591 O   0  0  0  0  0  0  0  0  0  0  0  0
    1.9487   -0.0946   -3.4775 C   0  0  0  0  0  0  0  0  0  0  0  0
    3.2224   -0.1957   -3.1725 N   0  0  0  0  0  0  0  0  0  0  0  0
    3.3121   -0.1551   -1.7641 C   0  0  0  0  0  0  0  0  0  0  0  0
    4.6012   -0.2369   -1.1010 C   0  0  0  0  0  0  0  0  0  0  0  0
    4.8337    0.4932    0.0697 C   0  0  0  0  0  0  0  0  0  0  0  0
    6.0950    0.4203    0.6524 C   0  0  0  0  0  0  0  0  0  0  0  0
    7.1155   -0.3832    0.1218 C   0  0  0  0  0  0  0  0  0  0  0  0
    6.8565   -1.1095   -1.0327 C   0  0  0  0  0  0  0  0  0  0  0  0
    5.6091   -1.0319   -1.6537 C   0  0  0  0  0  0  0  0  0  0  0  0
    6.5049    1.1116    1.7595 O   0  0  0  0  0  0  0  0  0  0  0  0
    5.5757    1.9775    2.3764 C   0  0  0  0  0  0  0  0  0  0  0  0
    4.6055    1.1904    3.2268 C   0  0  0  0  0  0  0  0  0  0  0  0
    4.7032    0.0737    3.6504 O   0  0  0  0  0  0  0  0  0  0  0  0
    3.5456    1.9851    3.5175 O   0  0  0  0  0  0  0  0  0  0  0  0
   -1.5935   -1.2738    3.3513 H   0  0  0  0  0  0  0  0  0  0  0  0
   -4.0368   -1.3001    3.7968 H   0  0  0  0  0  0  0  0  0  0  0  0
   -5.5914   -0.0992    2.2777 H   0  0  0  0  0  0  0  0  0  0  0  0
   -4.7081    1.1281    0.3100 H   0  0  0  0  0  0  0  0  0  0  0  0
   -2.2656    1.1684   -0.1380 H   0  0  0  0  0  0  0  0  0  0  0  0
    2.6592   -1.3875    3.4624 H   0  0  0  0  0  0  0  0  0  0  0  0
    2.9082   -1.4799    5.9317 H   0  0  0  0  0  0  0  0  0  0  0  0
    1.3682   -0.1832    7.3916 H   0  0  0  0  0  0  0  0  0  0  0  0
   -0.4137    1.2192    6.3817 H   0  0  0  0  0  0  0  0  0  0  0  0
   -0.6755    1.3124    3.9169 H   0  0  0  0  0  0  0  0  0  0  0  0
    1.4341   -0.0789   -4.4185 H   0  0  0  0  0  0  0  0  0  0  0  0
    4.0324    1.0830    0.5126 H   0  0  0  0  0  0  0  0  0  0  0  0
    8.0819   -0.4283    0.6170 H   0  0  0  0  0  0  0  0  0  0  0  0
    7.6331   -1.7424   -1.4609 H   0  0  0  0  0  0  0  0  0  0  0  0
    5.4192   -1.5854   -2.5736 H   0  0  0  0  0  0  0  0  0  0  0  0
    5.0614    2.6303    1.6441 H   0  0  0  0  0  0  0  0  0  0  0  0
    6.2299    2.6067    3.0194 H   0  0  0  0  0  0  0  0  0  0  0  0
    2.8082    1.5128    3.9902 H   0  0  0  0  0  0  0  0  0  0  0  0
  1  5  1  0  0  0  0
  2  1  1  0  0  0  0
  2  3  2  0  0  0  0
  3  4  2  0  0  0  0
  4 12  1  0  0  0  0
  5  6  1  6  0  0  0
  5  4  1  0  0  0  0
  6  7  2  0  0  0  0
  7  8  1  0  0  0  0
  7 34  1  0  0  0  0
  8 35  1  0  0  0  0
  9 36  1  0  0  0  0
  9  8  2  0  0  0  0
 10  9  1  0  0  0  0
 11 10  2  0  0  0  0
 11  6  1  0  0  0  0
 12 13  2  0  0  0  0
 12 17  1  0  0  0  0
 13 14  1  0  0  0  0
 14 40  1  0  0  0  0
 14 15  2  0  0  0  0
 15 41  1  0  0  0  0
 16 15  1  0  0  0  0
 16 42  1  0  0  0  0
 17 16  2  0  0  0  0
 18  2  1  1  0  0  0
 19 18  1  0  0  0  0
 20 21  2  0  0  0  0
 20 19  1  0  0  0  0
 21 22  2  0  0  0  0
 22 18  1  0  0  0  0
 22 23  1  0  0  0  0
 23 24  1  0  0  0  0
 24 45  1  0  0  0  0
 24 25  2  0  0  0  0
 25 29  1  0  0  0  0
 26 46  1  0  0  0  0
 26 25  1  0  0  0  0
 27 26  2  0  0  0  0
 28 23  2  0  0  0  0
 28 27  1  0  0  0  0
 29 30  1  0  0  0  0
 30 50  1  0  0  0  0
 30 31  1  0  0  0  0
 31 33  1  0  0  0  0
 31 32  2  0  0  0  0
 33 51  1  0  0  0  0
 37 10  1  0  0  0  0
 38 11  1  0  0  0  0
 39 13  1  0  0  0  0
 43 17  1  0  0  0  0
 44 20  1  0  0  0  0
 47 27  1  0  0  0  0
 48 28  1  0  0  0  0
 49 30  1  0  0  0  0
M  RAD  2   5   2  18   2
M  END
$$$$
