51
rmsd94.gzmat
O          0.00000        0.00000        0.00000
C          1.39110        0.00000        0.00000
N          1.88810        0.00000        1.22710
C          0.79070        0.00920        2.10280
C         -0.36400        0.00420        1.34060
C         -1.77800        0.00160        1.60270
C         -2.26560       -0.59300        2.77280
C         -3.63180       -0.58160        3.03600
C         -4.51290        0.01880        2.13680
C         -4.02820        0.60410        0.96800
C         -2.66280        0.59400        0.69520
C          0.99290        0.04690        3.53800
C          0.22320        0.90240        4.33190
C          0.44580        0.95640        5.70490
C          1.43680        0.16460        6.28440
C          2.20100       -0.69090        5.49240
C          1.98010       -0.75530        4.11960
C          2.05090        0.00730       -1.25890
O          1.23320       -0.04790       -2.38330
C          2.10280       -0.06230       -3.45760
N          3.36360       -0.02120       -3.08710
C          3.37320        0.03150       -1.67860
C          4.60220        0.07240       -0.91180
C          4.63810        0.76050        0.30310
C          5.80090        0.69710        1.06520
C          6.93820        0.01320        0.64060
C          6.90140       -0.62480       -0.59760
C          5.74100       -0.60320       -1.36890
O          5.87940        1.40620        2.25040
C          5.08930        0.85120        3.28410
C          5.84270       -0.29010        3.91790
O          6.78670       -0.90950        3.51350
O          5.28680       -0.58390        5.12780
H         -1.57450       -1.06650        3.47140
H         -4.01290       -1.04520        3.94440
H         -5.58100        0.02820        2.34660
H         -4.71800        1.07130        0.26750
H         -2.28130        1.04680       -0.22020
H         -0.54050        1.53050        3.87570
H         -0.15050        1.62310        6.32400
H          1.61850        0.21810        7.35530
H          2.98200       -1.30060        5.94490
H          2.57250       -1.42390        3.49330
H          1.64000       -0.10400       -4.42460
H          3.77930        1.32910        0.66230
H          7.81950       -0.02780        1.27990
H          7.78080       -1.15620       -0.95830
H          5.71070       -1.11520       -2.33180
H          4.08440        0.52470        2.92940
H          4.95810        1.69930        3.98900
H          5.74120       -1.31750        5.60560
