51

O         -0.08070        0.07650        0.04800
C          1.27540        0.07020        0.06540
N          1.76240        0.02040        1.27570
C          0.66960        0.01640        2.12760
C         -0.48190        0.02810        1.36040
C         -1.91720       -0.03680        1.60830
C         -2.82030        0.39960        0.61900
C         -4.19540        0.33420        0.83900
C         -4.69440       -0.16880        2.04400
C         -3.80490       -0.61740        3.02590
C         -2.42910       -0.55810        2.81260
C          0.86190        0.03080        3.58690
C          0.08480        0.84690        4.42710
C          0.31960        0.86750        5.80250
C          1.33850        0.08450        6.35630
C          2.12220       -0.72070        5.52480
C          1.88380       -0.74990        4.15050
C          1.94630        0.13880       -1.20900
O          1.13620       -0.06090       -2.30210
C          1.93840        0.09800       -3.36940
N          3.16270        0.37820       -3.07480
C          3.22400        0.41640       -1.68400
C          4.48900        0.75870       -1.02270
C          4.67650        0.60170        0.36340
C          5.88990        0.97570        0.94600
C          6.92560        1.49780        0.15980
C          6.73970        1.63780       -1.21410
C          5.53500        1.26940       -1.81270
O          6.15010        0.87560        2.28380
C          5.27870        0.14880        3.10460
C          5.38690       -1.36480        2.96990
O          4.70320       -2.13320        3.60350
O          6.32450       -1.75640        2.10140
H         -2.43120        0.79070       -0.32210
H         -4.88290        0.68030        0.06350
H         -5.77220       -0.21740        2.21540
H         -4.18610       -1.02680        3.96430
H         -1.74560       -0.92970        3.57600
H         -0.69560        1.47750        3.99700
H         -0.28820        1.50940        6.44480
H          1.52260        0.10780        7.43310
H          2.92840       -1.33370        5.93390
H          2.49810       -1.38550        3.51430
H          1.48630       -0.02470       -4.35230
H          3.86090        0.20540        0.96410
H          7.86230        1.77530        0.64600
H          7.54930        2.03930       -1.82830
H          5.38390        1.37360       -2.88640
H          4.21840        0.42380        2.97250
H          5.54340        0.39340        4.14450
H          6.30260       -2.72900        2.08120
