rmsd94.gzmat
 OpenBabel08211713403D

 51 55  0  0  1  0  0  0  0  0999 V2000
    0.0000    0.0000    0.0000 O   0  0  0  0  0  0  0  0  0  0  0  0
    1.3911    0.0000    0.0000 C   0  0  0  0  0  0  0  0  0  0  0  0
    1.8881    0.0000    1.2271 N   0  0  0  0  0  0  0  0  0  0  0  0
    0.7907    0.0092    2.1028 C   0  0  0  0  0  0  0  0  0  0  0  0
   -0.3640    0.0042    1.3406 C   0  0  2  0  0  0  0  0  0  0  0  0
   -1.7780    0.0016    1.6027 C   0  0  0  0  0  0  0  0  0  0  0  0
   -2.2656   -0.5930    2.7728 C   0  0  0  0  0  0  0  0  0  0  0  0
   -3.6318   -0.5816    3.0360 C   0  0  0  0  0  0  0  0  0  0  0  0
   -4.5129    0.0188    2.1368 C   0  0  0  0  0  0  0  0  0  0  0  0
   -4.0282    0.6041    0.9680 C   0  0  0  0  0  0  0  0  0  0  0  0
   -2.6628    0.5940    0.6952 C   0  0  0  0  0  0  0  0  0  0  0  0
    0.9929    0.0469    3.5380 C   0  0  0  0  0  0  0  0  0  0  0  0
    0.2232    0.9024    4.3319 C   0  0  0  0  0  0  0  0  0  0  0  0
    0.4458    0.9564    5.7049 C   0  0  0  0  0  0  0  0  0  0  0  0
    1.4368    0.1646    6.2844 C   0  0  0  0  0  0  0  0  0  0  0  0
    2.2010   -0.6909    5.4924 C   0  0  0  0  0  0  0  0  0  0  0  0
    1.9801   -0.7553    4.1196 C   0  0  0  0  0  0  0  0  0  0  0  0
    2.0509    0.0073   -1.2589 C   0  0  2  0  0  0  0  0  0  0  0  0
    1.2332   -0.0479   -2.3833 O   0  0  0  0  0  0  0  0  0  0  0  0
    2.1028   -0.0623   -3.4576 C   0  0  0  0  0  0  0  0  0  0  0  0
    3.3636   -0.0212   -3.0871 N   0  0  0  0  0  0  0  0  0  0  0  0
    3.3732    0.0315   -1.6786 C   0  0  0  0  0  0  0  0  0  0  0  0
    4.6022    0.0724   -0.9118 C   0  0  0  0  0  0  0  0  0  0  0  0
    4.6381    0.7605    0.3031 C   0  0  0  0  0  0  0  0  0  0  0  0
    5.8009    0.6971    1.0652 C   0  0  0  0  0  0  0  0  0  0  0  0
    6.9382    0.0132    0.6406 C   0  0  0  0  0  0  0  0  0  0  0  0
    6.9014   -0.6248   -0.5976 C   0  0  0  0  0  0  0  0  0  0  0  0
    5.7410   -0.6032   -1.3689 C   0  0  0  0  0  0  0  0  0  0  0  0
    5.8794    1.4062    2.2504 O   0  0  0  0  0  0  0  0  0  0  0  0
    5.0893    0.8512    3.2841 C   0  0  0  0  0  0  0  0  0  0  0  0
    5.8427   -0.2901    3.9179 C   0  0  0  0  0  0  0  0  0  0  0  0
    6.7867   -0.9095    3.5135 O   0  0  0  0  0  0  0  0  0  0  0  0
    5.2868   -0.5839    5.1278 O   0  0  0  0  0  0  0  0  0  0  0  0
   -1.5745   -1.0665    3.4714 H   0  0  0  0  0  0  0  0  0  0  0  0
   -4.0129   -1.0452    3.9444 H   0  0  0  0  0  0  0  0  0  0  0  0
   -5.5810    0.0282    2.3466 H   0  0  0  0  0  0  0  0  0  0  0  0
   -4.7180    1.0713    0.2675 H   0  0  0  0  0  0  0  0  0  0  0  0
   -2.2813    1.0468   -0.2202 H   0  0  0  0  0  0  0  0  0  0  0  0
   -0.5405    1.5305    3.8757 H   0  0  0  0  0  0  0  0  0  0  0  0
   -0.1505    1.6231    6.3240 H   0  0  0  0  0  0  0  0  0  0  0  0
    1.6185    0.2181    7.3553 H   0  0  0  0  0  0  0  0  0  0  0  0
    2.9820   -1.3006    5.9449 H   0  0  0  0  0  0  0  0  0  0  0  0
    2.5725   -1.4239    3.4933 H   0  0  0  0  0  0  0  0  0  0  0  0
    1.6400   -0.1040   -4.4246 H   0  0  0  0  0  0  0  0  0  0  0  0
    3.7793    1.3291    0.6623 H   0  0  0  0  0  0  0  0  0  0  0  0
    7.8195   -0.0278    1.2799 H   0  0  0  0  0  0  0  0  0  0  0  0
    7.7808   -1.1562   -0.9583 H   0  0  0  0  0  0  0  0  0  0  0  0
    5.7107   -1.1152   -2.3318 H   0  0  0  0  0  0  0  0  0  0  0  0
    4.0844    0.5247    2.9294 H   0  0  0  0  0  0  0  0  0  0  0  0
    4.9581    1.6993    3.9890 H   0  0  0  0  0  0  0  0  0  0  0  0
    5.7412   -1.3175    5.6056 H   0  0  0  0  0  0  0  0  0  0  0  0
  1  2  1  0  0  0  0
  1  5  1  0  0  0  0
  2  3  2  0  0  0  0
  3  4  2  0  0  0  0
  4 12  1  0  0  0  0
  5  6  1  1  0  0  0
  5  4  1  0  0  0  0
  6  7  2  0  0  0  0
  7  8  1  0  0  0  0
  7 34  1  0  0  0  0
  8 35  1  0  0  0  0
  9 36  1  0  0  0  0
  9  8  2  0  0  0  0
 10  9  1  0  0  0  0
 11 10  2  0  0  0  0
 11  6  1  0  0  0  0
 12 17  2  0  0  0  0
 12 13  1  0  0  0  0
 13 14  2  0  0  0  0
 14 15  1  0  0  0  0
 14 40  1  0  0  0  0
 15 41  1  0  0  0  0
 16 42  1  0  0  0  0
 16 15  2  0  0  0  0
 17 16  1  0  0  0  0
 18  2  1  1  0  0  0
 19 18  1  0  0  0  0
 20 21  2  0  0  0  0
 20 19  1  0  0  0  0
 21 22  2  0  0  0  0
 22 18  1  0  0  0  0
 22 23  1  0  0  0  0
 23 24  1  0  0  0  0
 24 45  1  0  0  0  0
 24 25  2  0  0  0  0
 25 29  1  0  0  0  0
 26 25  1  0  0  0  0
 26 46  1  0  0  0  0
 27 26  2  0  0  0  0
 28 23  2  0  0  0  0
 28 27  1  0  0  0  0
 29 30  1  0  0  0  0
 30 31  1  0  0  0  0
 30 50  1  0  0  0  0
 31 33  1  0  0  0  0
 32 31  2  0  0  0  0
 33 51  1  0  0  0  0
 37 10  1  0  0  0  0
 38 11  1  0  0  0  0
 39 13  1  0  0  0  0
 43 17  1  0  0  0  0
 44 20  1  0  0  0  0
 47 27  1  0  0  0  0
 48 28  1  0  0  0  0
 49 30  1  0  0  0  0
M  RAD  2   5   2  18   2
M  END
$$$$
