rmsd158.gzmat
 OpenBabel08211713403D

 51 55  0  0  1  0  0  0  0  0999 V2000
    0.0000    0.0000    0.0000 O   0  0  0  0  0  0  0  0  0  0  0  0
    1.3923    0.0000    0.0000 C   0  0  0  0  0  0  0  0  0  0  0  0
    1.8874    0.0000    1.2272 N   0  0  0  0  0  0  0  0  0  0  0  0
    0.7884    0.0164    2.1024 C   0  0  0  0  0  0  0  0  0  0  0  0
   -0.3657    0.0037    1.3376 C   0  0  2  0  0  0  0  0  0  0  0  0
   -1.7821   -0.0319    1.5868 C   0  0  0  0  0  0  0  0  0  0  0  0
   -2.2686   -0.6557    2.7419 C   0  0  0  0  0  0  0  0  0  0  0  0
   -3.6385   -0.6947    2.9819 C   0  0  0  0  0  0  0  0  0  0  0  0
   -4.5245   -0.1185    2.0719 C   0  0  0  0  0  0  0  0  0  0  0  0
   -4.0407    0.4999    0.9198 C   0  0  0  0  0  0  0  0  0  0  0  0
   -2.6712    0.5450    0.6728 C   0  0  0  0  0  0  0  0  0  0  0  0
    0.9640    0.0532    3.5414 C   0  0  0  0  0  0  0  0  0  0  0  0
    0.1415    0.8732    4.3216 C   0  0  0  0  0  0  0  0  0  0  0  0
    0.3028    0.9016    5.7036 C   0  0  0  0  0  0  0  0  0  0  0  0
    1.2834    0.1165    6.3094 C   0  0  0  0  0  0  0  0  0  0  0  0
    2.1072   -0.6949    5.5314 C   0  0  0  0  0  0  0  0  0  0  0  0
    1.9517   -0.7277    4.1480 C   0  0  0  0  0  0  0  0  0  0  0  0
    2.0199    0.0152   -1.2771 C   0  0  1  0  0  0  0  0  0  0  0  0
    1.2342   -0.4580   -2.3260 O   0  0  0  0  0  0  0  0  0  0  0  0
    2.0177   -0.3174   -3.4545 C   0  0  0  0  0  0  0  0  0  0  0  0
    3.1971    0.1984   -3.1879 N   0  0  0  0  0  0  0  0  0  0  0  0
    3.2397    0.4217   -1.7964 C   0  0  0  0  0  0  0  0  0  0  0  0
    4.3965    1.0079   -1.1475 C   0  0  0  0  0  0  0  0  0  0  0  0
    4.6951    0.6460    0.1686 C   0  0  0  0  0  0  0  0  0  0  0  0
    5.7491    1.2843    0.8128 C   0  0  0  0  0  0  0  0  0  0  0  0
    6.5564    2.2241    0.1584 C   0  0  0  0  0  0  0  0  0  0  0  0
    6.2714    2.5334   -1.1666 C   0  0  0  0  0  0  0  0  0  0  0  0
    5.1918    1.9394   -1.8213 C   0  0  0  0  0  0  0  0  0  0  0  0
    6.1066    1.0841    2.1193 O   0  0  0  0  0  0  0  0  0  0  0  0
    5.2504    0.2872    2.9108 C   0  0  0  0  0  0  0  0  0  0  0  0
    5.5257   -1.1733    2.6637 C   0  0  0  0  0  0  0  0  0  0  0  0
    6.1043   -1.7101    1.7630 O   0  0  0  0  0  0  0  0  0  0  0  0
    4.9818   -1.9025    3.6810 O   0  0  0  0  0  0  0  0  0  0  0  0
   -1.5742   -1.1128    3.4479 H   0  0  0  0  0  0  0  0  0  0  0  0
   -4.0176   -1.1789    3.8803 H   0  0  0  0  0  0  0  0  0  0  0  0
   -5.5959   -0.1540    2.2603 H   0  0  0  0  0  0  0  0  0  0  0  0
   -4.7338    0.9484    0.2102 H   0  0  0  0  0  0  0  0  0  0  0  0
   -2.2910    1.0276   -0.2278 H   0  0  0  0  0  0  0  0  0  0  0  0
   -0.6194    1.4918    3.8472 H   0  0  0  0  0  0  0  0  0  0  0  0
   -0.3356    1.5399    6.3110 H   0  0  0  0  0  0  0  0  0  0  0  0
    1.4064    0.1399    7.3898 H   0  0  0  0  0  0  0  0  0  0  0  0
    2.8763   -1.3048    6.0030 H   0  0  0  0  0  0  0  0  0  0  0  0
    2.5984   -1.3609    3.5360 H   0  0  0  0  0  0  0  0  0  0  0  0
    1.5670   -0.6415   -4.3723 H   0  0  0  0  0  0  0  0  0  0  0  0
    4.1189   -0.1350    0.6640 H   0  0  0  0  0  0  0  0  0  0  0  0
    7.3840    2.6907    0.6848 H   0  0  0  0  0  0  0  0  0  0  0  0
    6.8934    3.2517   -1.6992 H   0  0  0  0  0  0  0  0  0  0  0  0
    4.9694    2.1924   -2.8580 H   0  0  0  0  0  0  0  0  0  0  0  0
    4.1735    0.5288    2.7535 H   0  0  0  0  0  0  0  0  0  0  0  0
    5.5309    0.5874    3.9436 H   0  0  0  0  0  0  0  0  0  0  0  0
    5.1069   -2.8765    3.5801 H   0  0  0  0  0  0  0  0  0  0  0  0
  1  5  1  0  0  0  0
  2  1  1  0  0  0  0
  2  3  2  0  0  0  0
  3  4  2  0  0  0  0
  4 12  1  0  0  0  0
  5  6  1  1  0  0  0
  5  4  1  0  0  0  0
  6  7  2  0  0  0  0
  7  8  1  0  0  0  0
  7 34  1  0  0  0  0
  8 35  1  0  0  0  0
  9 36  1  0  0  0  0
  9  8  2  0  0  0  0
 10  9  1  0  0  0  0
 11 10  2  0  0  0  0
 11  6  1  0  0  0  0
 12 17  2  0  0  0  0
 12 13  1  0  0  0  0
 13 14  2  0  0  0  0
 14 15  1  0  0  0  0
 14 40  1  0  0  0  0
 15 41  1  0  0  0  0
 16 42  1  0  0  0  0
 16 15  2  0  0  0  0
 17 16  1  0  0  0  0
 18  2  1  6  0  0  0
 19 18  1  0  0  0  0
 20 21  2  0  0  0  0
 20 19  1  0  0  0  0
 21 22  2  0  0  0  0
 22 18  1  0  0  0  0
 22 23  1  0  0  0  0
 23 24  2  0  0  0  0
 24 45  1  0  0  0  0
 24 25  1  0  0  0  0
 25 29  1  0  0  0  0
 26 46  1  0  0  0  0
 26 25  2  0  0  0  0
 27 26  1  0  0  0  0
 28 27  2  0  0  0  0
 28 23  1  0  0  0  0
 29 30  1  0  0  0  0
 30 50  1  0  0  0  0
 31 30  1  0  0  0  0
 31 33  1  0  0  0  0
 32 31  2  0  0  0  0
 37 10  1  0  0  0  0
 38 11  1  0  0  0  0
 39 13  1  0  0  0  0
 43 17  1  0  0  0  0
 44 20  1  0  0  0  0
 47 27  1  0  0  0  0
 48 28  1  0  0  0  0
 49 30  1  0  0  0  0
 51 33  1  0  0  0  0
M  RAD  2   5   2  18   2
M  END
$$$$
