51
rmsd1.gzmat
O          0.00000        0.00000        0.00000
C          1.39270        0.00000        0.00000
N          1.88700        0.00000        1.22780
C          0.78790        0.02750        2.10190
C         -0.36610        0.01480        1.33810
C         -1.78180       -0.00110        1.59030
C         -2.66850        0.53770        0.65120
C         -4.03710        0.52170        0.90550
C         -4.52200       -0.02830        2.09120
C         -3.63840       -0.56830        3.02570
C         -2.26950       -0.56010        2.77730
C          0.97360        0.10030        3.53820
C          0.18730        0.97460        4.29570
C          0.37210        1.05350        5.67270
C          1.34110        0.26620        6.29400
C          2.12720       -0.60180        5.53800
C          1.94720       -0.68660        4.16000
C          2.02630        0.02140       -1.27390
O          1.16540       -0.12060       -2.36050
C          1.98080       -0.08240       -3.47410
N          3.24890        0.06690       -3.16380
C          3.32090        0.14490       -1.75730
C          4.58740        0.30560       -1.06960
C          4.61210        0.88070        0.20280
C          5.81970        0.93150        0.89040
C          7.02080        0.50750        0.31030
C          6.98500       -0.00940       -0.98100
C          5.77680       -0.12820       -1.66680
O          5.96150        1.41190        2.16730
C          4.82070        1.34490        3.00200
C          4.04470        2.63660        2.91920
O          3.72760        3.28640        1.96270
O          3.68390        3.01290        4.17630
H         -2.28630        0.96860       -0.27480
H         -4.72840        0.94140        0.17680
H         -5.59240       -0.03720        2.28810
H         -4.01880       -0.99950        3.95000
H         -1.57730       -0.98890        3.50270
H         -0.56210        1.59610        3.80640
H         -0.23780        1.73350        6.26420
H          1.48590        0.33330        7.36980
H          2.88360       -1.21320        6.02540
H          2.55840       -1.36250        3.56080
H          1.47850       -0.17600       -4.41710
H          3.70480        1.30220        0.63990
H          7.95190        0.58440        0.86420
H          7.90830       -0.33490       -1.45800
H          5.75340       -0.55210       -2.67110
H          5.26860        1.19400        4.00840
H          4.15670        0.48220        2.76700
H          3.12740        3.82740        4.20450
