51
rmsd121.gzmat
O          0.00000        0.00000        0.00000
C          1.39390        0.00000        0.00000
N          1.88510        0.00000        1.22630
C          0.78480       -0.01110        2.10090
C         -0.36770       -0.00620        1.33550
C         -1.78160       -0.00980        1.59890
C         -2.26400       -0.61780        2.76390
C         -3.62970       -0.61420        3.02870
C         -4.51420       -0.01000        2.13550
C         -4.03380        0.59050        0.97250
C         -2.66870        0.59150        0.69970
C          0.95530       -0.00960        3.54120
C          0.25440        0.91700        4.32060
C          0.41830        0.92090        5.70240
C          1.27720        0.00300        6.30750
C          1.97200       -0.92140        5.53040
C          1.81440       -0.93070        4.14640
C          1.99780       -0.00790       -1.29040
O          1.32840        0.76170       -2.24170
C          2.02840        0.57280       -3.41650
N          3.05170       -0.23900       -3.26600
C          3.06540       -0.62930       -1.91140
C          4.07290       -1.55140       -1.41140
C          4.87400       -1.17960       -0.32810
C          5.82440       -2.08800        0.12860
C          6.00210       -3.34260       -0.47510
C          5.20100       -3.68220       -1.55630
C          4.23470       -2.79180       -2.02980
O          6.68240       -1.89650        1.17650
C          6.52920       -0.72160        1.95090
C          5.16230       -0.71380        2.60970
O          4.66630       -1.58090        3.27370
O          4.54810        0.45150        2.32900
H         -1.56960       -1.09370        3.45850
H         -4.00710       -1.08610        3.93410
H         -5.58190       -0.00880        2.34600
H         -4.72610        1.06020        0.27620
H         -2.29030        1.06080       -0.20810
H         -0.41310        1.63410        3.84510
H         -0.12240        1.64300        6.31020
H          1.40600        0.01060        7.38780
H          2.64530       -1.63690        6.00040
H          2.36470       -1.65370        3.53610
H          1.65090        1.10000       -4.27110
H          4.74110       -0.19820        0.12680
H          6.75350       -4.02640       -0.08810
H          5.32380       -4.65130       -2.03890
H          3.61430       -3.05950       -2.88370
H          6.71100        0.18060        1.33560
H          7.33700       -0.83000        2.70360
H          3.54840        0.42460        2.40100
