51
rmsd81.gzmat
O          0.00000        0.00000        0.00000
C          1.39270        0.00000        0.00000
N          1.88810        0.00000        1.22730
C          0.78890       -0.00380        2.10160
C         -0.36560       -0.00570        1.33830
C         -1.78050       -0.02900        1.59530
C         -2.25950       -0.60950        2.77620
C         -3.62740       -0.63390        3.02880
C         -4.51890       -0.08730        2.10620
C         -4.04250        0.48610        0.92790
C         -2.67510        0.51790        0.66890
C          0.96740        0.00080        3.54110
C          1.86790       -0.88950        4.13150
C          2.04700       -0.87960        5.51240
C          1.32180        0.00930        6.30360
C          0.41830        0.89360        5.71440
C          0.24120        0.89520        4.33380
C          2.02360       -0.00710       -1.27530
O          1.17610        0.26750       -2.34740
C          1.97290        0.17450       -3.47080
N          3.21750       -0.13000       -3.17990
C          3.29340       -0.25130       -1.77590
C          4.53900       -0.59490       -1.11790
C          4.78650       -0.14750        0.18130
C          5.96650       -0.54020        0.80660
C          6.92730       -1.32220        0.16100
C          6.67850       -1.72850       -1.14710
C          5.49020       -1.37720       -1.78470
O          6.32020       -0.10000        2.06220
C          5.30580       -0.16580        3.04230
C          5.13630       -1.57390        3.56050
O          4.87440       -1.90270        4.68930
O          5.28160       -2.49100        2.57970
H         -1.56050       -1.04330        3.49280
H         -4.00070       -1.08490        3.94670
H         -5.58860       -0.11000        2.30560
H         -4.74010        0.90910        0.20750
H         -2.30050        0.96760       -0.25070
H          2.42470       -1.58970        3.50830
H          2.76480       -1.56410        5.96870
H          1.46240        0.01460        7.38230
H         -0.14680        1.58700        6.33380
H         -0.45530        1.59220        3.87100
H          1.47820        0.35970       -4.40440
H          4.07440        0.50020        0.69400
H          7.83990       -1.60400        0.67900
H          7.41460       -2.33350       -1.67410
H          5.29730       -1.70480       -2.80710
H          4.32740        0.22950        2.68380
H          5.69620        0.50250        3.84050
H          5.16230       -3.42430        2.89070
