
     RDKit          3D

 51 55  0  0  0  0  0  0  0  0999 V2000
    0.0998   -0.2193    0.1796 O   0  0  0  0  0  0  0  0  0  0  0  0
    1.4534   -0.2764    0.2558 C   0  0  0  0  0  0  0  0  0  0  0  0
    1.8935   -0.1384    1.4774 N   0  0  0  0  0  0  0  0  0  0  0  0
    0.7711    0.0488    2.2686 C   0  0  0  0  0  0  0  0  0  0  0  0
   -0.3505   -0.0259    1.4619 C   0  0  0  0  0  0  0  0  0  0  0  0
   -1.7956    0.0091    1.6535 C   0  0  0  0  0  0  0  0  0  0  0  0
   -2.3765   -0.2887    2.9016 C   0  0  0  0  0  0  0  0  0  0  0  0
   -3.7606   -0.2561    3.0603 C   0  0  0  0  0  0  0  0  0  0  0  0
   -4.5903    0.0633    1.9803 C   0  0  0  0  0  0  0  0  0  0  0  0
   -4.0231    0.3430    0.7337 C   0  0  0  0  0  0  0  0  0  0  0  0
   -2.6391    0.3156    0.5676 C   0  0  0  0  0  0  0  0  0  0  0  0
    0.9113    0.3113    3.7098 C   0  0  0  0  0  0  0  0  0  0  0  0
    0.1285    1.2759    4.3672 C   0  0  0  0  0  0  0  0  0  0  0  0
    0.3156    1.5289    5.7267 C   0  0  0  0  0  0  0  0  0  0  0  0
    1.2927    0.8331    6.4467 C   0  0  0  0  0  0  0  0  0  0  0  0
    2.0833   -0.1194    5.7971 C   0  0  0  0  0  0  0  0  0  0  0  0
    1.8916   -0.3798    4.4400 C   0  0  0  0  0  0  0  0  0  0  0  0
    2.1681   -0.4496   -0.9841 C   0  0  0  0  0  0  0  0  0  0  0  0
    1.3838   -0.8036   -2.0577 O   0  0  0  0  0  0  0  0  0  0  0  0
    2.2235   -0.8520   -3.1063 C   0  0  0  0  0  0  0  0  0  0  0  0
    3.4480   -0.5659   -2.8185 N   0  0  0  0  0  0  0  0  0  0  0  0
    3.4695   -0.2974   -1.4522 C   0  0  0  0  0  0  0  0  0  0  0  0
    4.7268    0.1068   -0.8124 C   0  0  0  0  0  0  0  0  0  0  0  0
    4.8678    0.1741    0.5858 C   0  0  0  0  0  0  0  0  0  0  0  0
    6.0800    0.5898    1.1414 C   0  0  0  0  0  0  0  0  0  0  0  0
    7.1576    0.9377    0.3167 C   0  0  0  0  0  0  0  0  0  0  0  0
    7.0166    0.8584   -1.0673 C   0  0  0  0  0  0  0  0  0  0  0  0
    5.8150    0.4417   -1.6391 C   0  0  0  0  0  0  0  0  0  0  0  0
    6.2966    0.7112    2.4858 O   0  0  0  0  0  0  0  0  0  0  0  0
    5.3912    0.1452    3.3866 C   0  0  0  0  0  0  0  0  0  0  0  0
    5.5221   -1.3705    3.4440 C   0  0  0  0  0  0  0  0  0  0  0  0
    6.2111   -2.0447    2.7300 O   0  0  0  0  0  0  0  0  0  0  0  0
    4.7529   -1.8828    4.4323 O   0  0  0  0  0  0  0  0  0  0  0  0
   -1.7408   -0.5601    3.7443 H   0  0  0  0  0  0  0  0  0  0  0  0
   -4.1960   -0.4920    4.0341 H   0  0  0  0  0  0  0  0  0  0  0  0
   -5.6749    0.0873    2.1089 H   0  0  0  0  0  0  0  0  0  0  0  0
   -4.6638    0.5863   -0.1172 H   0  0  0  0  0  0  0  0  0  0  0  0
   -2.1968    0.5323   -0.4057 H   0  0  0  0  0  0  0  0  0  0  0  0
   -0.6183    1.8396    3.8052 H   0  0  0  0  0  0  0  0  0  0  0  0
   -0.2964    2.2848    6.2246 H   0  0  0  0  0  0  0  0  0  0  0  0
    1.4405    1.0388    7.5095 H   0  0  0  0  0  0  0  0  0  0  0  0
    2.8584   -0.6650    6.3398 H   0  0  0  0  0  0  0  0  0  0  0  0
    2.5069   -1.1254    3.9390 H   0  0  0  0  0  0  0  0  0  0  0  0
    1.7974   -1.1237   -4.0708 H   0  0  0  0  0  0  0  0  0  0  0  0
    4.0214   -0.0911    1.2145 H   0  0  0  0  0  0  0  0  0  0  0  0
    8.0920    1.2536    0.7835 H   0  0  0  0  0  0  0  0  0  0  0  0
    7.8598    1.1223   -1.7100 H   0  0  0  0  0  0  0  0  0  0  0  0
    5.6991    0.3719   -2.7198 H   0  0  0  0  0  0  0  0  0  0  0  0
    4.3390    0.4094    3.1795 H   0  0  0  0  0  0  0  0  0  0  0  0
    5.6293    0.5477    4.3827 H   0  0  0  0  0  0  0  0  0  0  0  0
    4.8730   -2.8482    4.4114 H   0  0  0  0  0  0  0  0  0  0  0  0
  1  2  1  0
  1  5  1  0
  2  3  2  0
  2 18  1  0
  3  4  1  0
  4  5  2  0
  4 12  1  0
  5  6  1  0
  6  7  2  0
  6 11  1  0
  7  8  1  0
  7 34  1  0
  8  9  2  0
  8 35  1  0
  9 10  1  0
  9 36  1  0
 10 11  2  0
 10 37  1  0
 11 38  1  0
 12 13  2  0
 12 17  1  0
 13 14  1  0
 13 39  1  0
 14 15  2  0
 14 40  1  0
 15 16  1  0
 15 41  1  0
 16 17  2  0
 16 42  1  0
 17 43  1  0
 18 19  1  0
 18 22  2  0
 19 20  1  0
 20 21  2  0
 20 44  1  0
 21 22  1  0
 22 23  1  0
 23 24  2  0
 23 28  1  0
 24 25  1  0
 24 45  1  0
 25 26  2  0
 25 29  1  0
 26 27  1  0
 26 46  1  0
 27 28  2  0
 27 47  1  0
 28 48  1  0
 29 30  1  0
 30 31  1  0
 30 49  1  0
 30 50  1  0
 31 32  2  0
 31 33  1  0
 33 51  1  0
M  END

