rmsd249.gzmat
 OpenBabel08211713393D

 45 47  0  0  0  0  0  0  0  0999 V2000
    0.0000    0.0000    0.0000 S   0  0  0  0  0  0  0  0  0  0  0  0
    1.7731    0.0000    0.0000 C   0  0  0  0  0  0  0  0  0  0  0  0
    2.5271    0.0000    1.1116 N   0  0  0  0  0  0  0  0  0  0  0  0
    1.9041   -0.0858    2.4591 C   0  0  0  0  0  0  0  0  0  0  0  0
    2.3795   -1.3553    3.1786 C   0  0  0  0  0  0  0  0  0  0  0  0
    2.2273    1.1770    3.2689 C   0  0  0  0  0  0  0  0  0  0  0  0
    4.0150    0.0730    1.0704 C   0  0  0  0  0  0  0  0  0  0  0  0
    4.6052   -1.1742    0.4019 C   0  0  0  0  0  0  0  0  0  0  0  0
    4.4822    1.3572    0.3738 C   0  0  0  0  0  0  0  0  0  0  0  0
    2.3563    0.0218   -1.2353 N   0  0  0  0  0  0  0  0  0  0  0  0
    1.5258    0.0823   -2.2831 C   0  0  0  0  0  0  0  0  0  0  0  0
   -0.2854    0.1234   -2.1761 S   0  0  2  0  0  0  0  0  0  0  0  0
   -0.3519    0.2620   -3.9283 N   0  0  0  0  0  0  0  0  0  0  0  0
    0.8097    0.2573   -4.4778 C   0  0  0  0  0  0  0  0  0  0  0  0
    1.1380    0.4559   -6.2152 S   0  0  0  0  0  0  0  0  0  0  0  0
    0.2003   -0.8555   -6.9601 C   0  0  0  0  0  0  0  0  0  0  0  0
   -1.1358   -1.0805   -6.6384 C   0  0  0  0  0  0  0  0  0  0  0  0
   -1.8405   -2.0834   -7.3024 C   0  0  0  0  0  0  0  0  0  0  0  0
   -1.2144   -2.8446   -8.2873 C   0  0  0  0  0  0  0  0  0  0  0  0
    0.1230   -2.6109   -8.6053 C   0  0  0  0  0  0  0  0  0  0  0  0
    0.8383   -1.6197   -7.9364 C   0  0  0  0  0  0  0  0  0  0  0  0
    1.9236    0.1379   -3.5829 N   0  0  0  0  0  0  0  0  0  0  0  0
    3.3211    0.0605   -3.9941 C   0  0  0  0  0  0  0  0  0  0  0  0
    0.7826   -0.1504    2.3541 H   0  0  0  0  0  0  0  0  0  0  0  0
    2.1808   -2.2499    2.5733 H   0  0  0  0  0  0  0  0  0  0  0  0
    1.8470   -1.4786    4.1293 H   0  0  0  0  0  0  0  0  0  0  0  0
    3.4503   -1.3410    3.4030 H   0  0  0  0  0  0  0  0  0  0  0  0
    3.2848    1.2516    3.5389 H   0  0  0  0  0  0  0  0  0  0  0  0
    1.6496    1.1934    4.2009 H   0  0  0  0  0  0  0  0  0  0  0  0
    1.9651    2.0835    2.7070 H   0  0  0  0  0  0  0  0  0  0  0  0
    4.3696    0.1043    2.1382 H   0  0  0  0  0  0  0  0  0  0  0  0
    4.3186   -1.2371   -0.6590 H   0  0  0  0  0  0  0  0  0  0  0  0
    4.2560   -2.0932    0.8838 H   0  0  0  0  0  0  0  0  0  0  0  0
    5.6985   -1.1581    0.4432 H   0  0  0  0  0  0  0  0  0  0  0  0
    4.3141    1.3128   -0.7127 H   0  0  0  0  0  0  0  0  0  0  0  0
    5.5525    1.5194    0.5317 H   0  0  0  0  0  0  0  0  0  0  0  0
    3.9446    2.2371    0.7431 H   0  0  0  0  0  0  0  0  0  0  0  0
   -1.6420   -0.4876   -5.8653 H   0  0  0  0  0  0  0  0  0  0  0  0
   -2.8829   -2.2683   -7.0480 H   0  0  0  0  0  0  0  0  0  0  0  0
   -1.7683   -3.6235   -8.8081 H   0  0  0  0  0  0  0  0  0  0  0  0
    0.6120   -3.2051   -9.3741 H   0  0  0  0  0  0  0  0  0  0  0  0
    1.8872   -1.4592   -8.1874 H   0  0  0  0  0  0  0  0  0  0  0  0
    3.9788   -0.0709   -3.1105 H   0  0  0  0  0  0  0  0  0  0  0  0
    3.6346    0.9862   -4.5094 H   0  0  0  0  0  0  0  0  0  0  0  0
    3.4845   -0.8038   -4.6647 H   0  0  0  0  0  0  0  0  0  0  0  0
  2  1  1  0  0  0  0
  2  3  1  0  0  0  0
  3  4  1  0  0  0  0
  4  5  1  0  0  0  0
  4  6  1  0  0  0  0
  5 27  1  0  0  0  0
  5 26  1  0  0  0  0
  6 28  1  0  0  0  0
  6 29  1  0  0  0  0
  7  3  1  0  0  0  0
  7 31  1  0  0  0  0
  8 34  1  0  0  0  0
  8 33  1  0  0  0  0
  8  7  1  0  0  0  0
  9 36  1  0  0  0  0
  9 37  1  0  0  0  0
  9  7  1  0  0  0  0
 10  2  2  0  0  0  0
 11 10  2  0  0  0  0
 12 11  1  6  0  0  0
 12 13  1  0  0  0  0
 12  1  1  0  0  0  0
 14 13  2  0  0  0  0
 14 22  1  0  0  0  0
 15 14  1  0  0  0  0
 16 17  1  0  0  0  0
 16 15  1  0  0  0  0
 17 38  1  0  0  0  0
 18 39  1  0  0  0  0
 18 17  2  0  0  0  0
 19 18  1  0  0  0  0
 20 19  2  0  0  0  0
 20 21  1  0  0  0  0
 21 16  2  0  0  0  0
 22 11  1  0  0  0  0
 23 22  1  0  0  0  0
 23 43  1  0  0  0  0
 24  4  1  0  0  0  0
 25  5  1  0  0  0  0
 30  6  1  0  0  0  0
 32  8  1  0  0  0  0
 35  9  1  0  0  0  0
 40 19  1  0  0  0  0
 41 20  1  0  0  0  0
 42 21  1  0  0  0  0
 44 23  1  0  0  0  0
 45 23  1  0  0  0  0
M  END
$$$$
