rmsd105.gzmat
 OpenBabel08211713393D

 45 47  0  0  0  0  0  0  0  0999 V2000
    0.0000    0.0000    0.0000 S   0  0  0  0  0  0  0  0  0  0  0  0
    1.7730    0.0000    0.0000 C   0  0  0  0  0  0  0  0  0  0  0  0
    2.5281    0.0000    1.1107 N   0  0  0  0  0  0  0  0  0  0  0  0
    4.0176   -0.0147    1.0673 C   0  0  0  0  0  0  0  0  0  0  0  0
    4.5304   -1.2915    0.3902 C   0  0  0  0  0  0  0  0  0  0  0  0
    4.5584    1.2440    0.3789 C   0  0  0  0  0  0  0  0  0  0  0  0
    1.9058    0.0231    2.4608 C   0  0  0  0  0  0  0  0  0  0  0  0
    2.2927   -1.2410    3.2402 C   0  0  0  0  0  0  0  0  0  0  0  0
    2.3229    1.2975    3.2080 C   0  0  0  0  0  0  0  0  0  0  0  0
    2.3556   -0.0017   -1.2360 N   0  0  0  0  0  0  0  0  0  0  0  0
    1.5247   -0.0042   -2.2851 C   0  0  0  0  0  0  0  0  0  0  0  0
   -0.2874   -0.0078   -2.1796 S   0  0  1  0  0  0  0  0  0  0  0  0
   -0.3561   -0.0213   -3.9370 N   0  0  0  0  0  0  0  0  0  0  0  0
    0.8058   -0.0126   -4.4858 C   0  0  0  0  0  0  0  0  0  0  0  0
    1.1222   -0.0425   -6.2372 S   0  0  0  0  0  0  0  0  0  0  0  0
    0.3509    1.4630   -6.7832 C   0  0  0  0  0  0  0  0  0  0  0  0
    1.0978    2.3195   -7.5907 C   0  0  0  0  0  0  0  0  0  0  0  0
    0.5043    3.4768   -8.0919 C   0  0  0  0  0  0  0  0  0  0  0  0
   -0.8205    3.7781   -7.7774 C   0  0  0  0  0  0  0  0  0  0  0  0
   -1.5566    2.9205   -6.9620 C   0  0  0  0  0  0  0  0  0  0  0  0
   -0.9729    1.7565   -6.4638 C   0  0  0  0  0  0  0  0  0  0  0  0
    1.9220   -0.0015   -3.5860 N   0  0  0  0  0  0  0  0  0  0  0  0
    3.3226    0.0222   -3.9935 C   0  0  0  0  0  0  0  0  0  0  0  0
    4.3763   -0.0136    2.1344 H   0  0  0  0  0  0  0  0  0  0  0  0
    4.0875   -2.1894    0.8338 H   0  0  0  0  0  0  0  0  0  0  0  0
    5.6185   -1.3678    0.4749 H   0  0  0  0  0  0  0  0  0  0  0  0
    4.2835   -1.3083   -0.6819 H   0  0  0  0  0  0  0  0  0  0  0  0
    4.3132    1.2550   -0.6938 H   0  0  0  0  0  0  0  0  0  0  0  0
    5.6481    1.2970    0.4644 H   0  0  0  0  0  0  0  0  0  0  0  0
    4.1341    2.1557    0.8122 H   0  0  0  0  0  0  0  0  0  0  0  0
    0.7823    0.0353    2.3605 H   0  0  0  0  0  0  0  0  0  0  0  0
    3.3595   -1.2837    3.4797 H   0  0  0  0  0  0  0  0  0  0  0  0
    2.0465   -2.1473    2.6700 H   0  0  0  0  0  0  0  0  0  0  0  0
    1.7415   -1.2901    4.1873 H   0  0  0  0  0  0  0  0  0  0  0  0
    3.3828    1.3039    3.4800 H   0  0  0  0  0  0  0  0  0  0  0  0
    1.7456    1.4051    4.1344 H   0  0  0  0  0  0  0  0  0  0  0  0
    2.1336    2.1915    2.5986 H   0  0  0  0  0  0  0  0  0  0  0  0
    2.1382    2.1051   -7.8378 H   0  0  0  0  0  0  0  0  0  0  0  0
    1.0787    4.1481   -8.7268 H   0  0  0  0  0  0  0  0  0  0  0  0
   -1.2790    4.6849   -8.1687 H   0  0  0  0  0  0  0  0  0  0  0  0
   -2.5896    3.1569   -6.7116 H   0  0  0  0  0  0  0  0  0  0  0  0
   -1.5609    1.0901   -5.8187 H   0  0  0  0  0  0  0  0  0  0  0  0
    3.9855    0.0532   -3.1044 H   0  0  0  0  0  0  0  0  0  0  0  0
    3.5387    0.9183   -4.6043 H   0  0  0  0  0  0  0  0  0  0  0  0
    3.5808   -0.8839   -4.5718 H   0  0  0  0  0  0  0  0  0  0  0  0
  2  1  1  0  0  0  0
  2  3  1  0  0  0  0
  3  7  1  0  0  0  0
  4  3  1  0  0  0  0
  4 24  1  0  0  0  0
  5 26  1  0  0  0  0
  5 25  1  0  0  0  0
  5  4  1  0  0  0  0
  6 29  1  0  0  0  0
  6 30  1  0  0  0  0
  6  4  1  0  0  0  0
  7  9  1  0  0  0  0
  7  8  1  0  0  0  0
  8 32  1  0  0  0  0
  8 34  1  0  0  0  0
  9 35  1  0  0  0  0
  9 36  1  0  0  0  0
 10  2  2  0  0  0  0
 11 10  2  0  0  0  0
 12 11  1  6  0  0  0
 12 13  1  0  0  0  0
 12  1  1  0  0  0  0
 14 13  2  0  0  0  0
 14 22  1  0  0  0  0
 15 14  1  0  0  0  0
 16 21  1  0  0  0  0
 16 15  1  0  0  0  0
 17 16  2  0  0  0  0
 18 19  2  0  0  0  0
 18 17  1  0  0  0  0
 19 20  1  0  0  0  0
 20 41  1  0  0  0  0
 20 21  2  0  0  0  0
 21 42  1  0  0  0  0
 22 11  1  0  0  0  0
 23 22  1  0  0  0  0
 23 43  1  0  0  0  0
 27  5  1  0  0  0  0
 28  6  1  0  0  0  0
 31  7  1  0  0  0  0
 33  8  1  0  0  0  0
 37  9  1  0  0  0  0
 38 17  1  0  0  0  0
 39 18  1  0  0  0  0
 40 19  1  0  0  0  0
 44 23  1  0  0  0  0
 45 23  1  0  0  0  0
M  END
$$$$
