45
rmsd186.gzmat
S          0.00000        0.00000        0.00000
C          1.77250        0.00000        0.00000
N          2.52620        0.00000        1.11190
C          1.90060        0.01290        2.46100
C          2.37910       -1.19660        3.27630
C          2.21930        1.33520        3.17230
C          4.01500        0.03840        1.07090
C          4.57450       -1.22340        0.40360
C          4.51150        1.31110        0.37430
N          2.35580        0.00280       -1.23570
C          1.52520        0.02400       -2.28530
S         -0.28570        0.03950       -2.17980
N         -0.35330        0.10970       -3.93680
C          0.80880        0.10480       -4.48560
S          1.14780        0.22770       -6.22850
C          0.02140       -0.92550       -6.97290
C         -1.33230       -0.95630       -6.64780
C         -2.17910       -1.83700       -7.32020
C         -1.67490       -2.66940       -8.31690
C         -0.31830       -2.63090       -8.63830
C          0.53730       -1.76440       -7.96140
N          1.92390        0.04510       -3.58620
C          3.32510        0.03250       -3.99210
H          0.77980       -0.06690        2.35940
H          2.26210       -2.12840        2.70670
H          1.78610       -1.29820        4.19360
H          3.42930       -1.12100        3.57400
H          3.28350        1.44880        3.40000
H          1.67110        1.40370        4.11980
H          1.92060        2.19560        2.55780
H          4.37090        0.06120        2.13860
H          4.29320       -1.27790       -0.65950
H          4.19760       -2.13400        0.88170
H          5.66800       -1.23680        0.45060
H          4.32170        1.27860       -0.70930
H          5.58920        1.43720        0.51440
H          4.00830        2.20470        0.76000
H         -1.74340       -0.30650       -5.86400
H         -3.23630       -1.87080       -7.06210
H         -2.33840       -3.35230       -8.84460
H          0.07450       -3.28210       -9.41590
H          1.59790       -1.75800       -8.21490
H          3.98530       -0.07140       -3.10660
H          3.59640        0.97570       -4.50040
H          3.53300       -0.81960       -4.66540
