45
rmsd71.gzmat
S          0.00000        0.00000        0.00000
C          1.77340        0.00000        0.00000
N          2.52500        0.00000        1.11300
C          4.01280        0.07500        1.07470
C          4.60360       -1.16810        0.39940
C          4.47820        1.36540        0.38850
C          1.89740       -0.06190        2.46000
C          2.42830       -1.27670        3.23470
C          2.15450        1.24810        3.21590
N          2.35690        0.00220       -1.23540
C          1.52560       -0.01760       -2.28450
S         -0.28700       -0.03130       -2.17430
N         -0.35950       -0.07970       -3.92920
C          0.80060       -0.08430       -4.48250
S          1.10560       -0.20460       -6.23070
C          0.45070        1.31930       -6.86760
C         -0.74820        1.86420       -6.41560
C         -1.23080        3.03740       -6.99390
C         -0.52230        3.65310       -8.02370
C          0.67360        3.09720       -8.47630
C          1.16800        1.93040       -7.89680
N          1.91930       -0.03940       -3.58590
C          3.31880       -0.00720       -3.99770
H          4.36640        0.09950        2.14310
H          4.25580       -2.09070        0.87550
H          5.69680       -1.15110        0.44000
H          4.31660       -1.22690       -0.66160
H          4.29450        1.33680       -0.69610
H          5.55180        1.51960        0.53420
H          3.94980        2.24260        0.77810
H          0.78180       -0.19100        2.35180
H          3.47200       -1.16360        3.54310
H          2.35780       -2.19160        2.63130
H          1.83590       -1.43980        4.14330
H          3.21490        1.41240        3.43000
H          1.62070        1.25170        4.17380
H          1.79740        2.11200        2.63820
H         -1.32240        1.38720       -5.61130
H         -2.16550        3.46920       -6.63850
H         -0.90130        4.56820       -8.47500
H          1.22550        3.57740       -9.28160
H          2.10950        1.51510       -8.25780
H          3.98340        0.05180       -3.11130
H          3.52150        0.87820       -4.62870
H          3.58830       -0.92220       -4.55650
