45
rmsd28.gzmat
S          0.00000        0.00000        0.00000
C          1.77280        0.00000        0.00000
N          2.52410        0.00000        1.11340
C          4.01050       -0.09540        1.07880
C          4.45230       -1.40300        0.41060
C          4.62390        1.12800        0.38830
C          1.89940        0.10530        2.45850
C          2.17980       -1.16640        3.27010
C          2.41410        1.36090        3.17690
N          2.35670       -0.01190       -1.23530
C          1.52560       -0.01630       -2.28460
S         -0.28650       -0.02510       -2.17700
N         -0.35730       -0.04810       -3.93380
C          0.80370       -0.02910       -4.48440
S          1.12050       -0.05550       -6.23610
C          0.16730        1.32500       -6.82240
C         -1.18180        1.46550       -6.50610
C         -1.90230        2.53590       -7.03420
C         -1.27720        3.45040       -7.87930
C          0.07340        3.30170       -8.19280
C          0.80340        2.24090       -7.66000
N          1.92110       -0.00930       -3.58630
C          3.32030        0.02580       -3.99770
H          4.36190       -0.11240        2.14840
H          3.93490       -2.26890        0.83860
H          5.52930       -1.55570        0.52710
H          4.23500       -1.40060       -0.66820
H          4.37130        1.15610       -0.68280
H          5.71530        1.11410        0.46600
H          4.25930        2.06420        0.82490
H          0.78100        0.20820        2.35000
H          3.23390       -1.27140        3.54440
H          1.89430       -2.06590        2.70730
H          1.59700       -1.16480        4.19930
H          3.47800        1.30380        3.42540
H          1.86740        1.51670        4.11460
H          2.26700        2.25640        2.55840
H         -1.68490        0.75360       -5.83880
H         -2.95510        2.65410       -6.78220
H         -1.84190        4.28370       -8.29370
H          0.56100        4.01830       -8.85010
H          1.86150        2.14590       -7.90460
H          3.98710        0.02390       -3.11070
H          3.53490        0.94350       -4.57700
H          3.57560       -0.85950       -4.60850
