45

S          0.12660        1.06270        0.39750
C          1.69560        0.45250        0.14590
N          2.51080        0.05190        1.16150
C          2.05530        0.13020        2.56140
C          1.95890       -1.25630        3.20190
C          2.90090        1.11150        3.37610
C          3.87720       -0.47640        0.94560
C          3.89450       -1.81120        0.19350
C          4.84080        0.56630        0.36980
N          2.22700        0.33040       -1.10560
C          1.56970        0.66930       -2.17250
S         -0.05800        1.33450       -2.38280
N          0.12280        1.38350       -4.11380
C          1.27900        0.94540       -4.44510
S          1.89700        0.81370       -6.11190
C          0.47850        1.44350       -7.00020
C          0.38590        2.81140       -7.27830
C         -0.70940        3.29570       -7.99610
C         -1.70510        2.41720       -8.43310
C         -1.60760        1.05120       -8.15270
C         -0.51510        0.55990       -7.43540
N          2.13220        0.53410       -3.42600
C          3.47250        0.01290       -3.64470
H          1.03880        0.53880        2.50370
H          1.30830       -1.91180        2.60370
H          1.52510       -1.17210        4.21040
H          2.94190       -1.74350        3.30630
H          3.94470        0.77660        3.49060
H          2.47760        1.21940        4.38680
H          2.90490        2.10340        2.89960
H          4.23910       -0.69560        1.95930
H          3.56210       -1.69040       -0.84420
H          3.23010       -2.53820        0.68390
H          4.91530       -2.22590        0.19470
H          4.56720        0.84140       -0.65560
H          5.86690        0.16490        0.36920
H          4.83180        1.47950        0.98350
H          1.16670        3.48780       -6.92640
H         -0.78630        4.36380       -8.21200
H         -2.56150        2.79900       -8.99380
H         -2.38680        0.36430       -8.49100
H         -0.43050       -0.50340       -7.20470
H          3.90950       -0.20740       -2.66560
H          4.09110        0.75760       -4.16770
H          3.43280       -0.90720       -4.24730
