45
rmsd143.gzmat
S          0.00000        0.00000        0.00000
C          1.77330        0.00000        0.00000
N          2.52670        0.00000        1.11190
C          4.01510        0.05850        1.07080
C          4.59540       -1.17390        0.36760
C          4.48790        1.35970        0.41090
C          1.90370       -0.04090        2.46150
C          2.36680       -1.29600        3.21460
C          2.24300        1.23860        3.23830
N          2.35640        0.00130       -1.23570
C          1.52560       -0.01920       -2.28490
S         -0.28680       -0.03650       -2.17750
N         -0.35740       -0.08610       -3.93360
C          0.80380       -0.08240       -4.48440
S          1.11540       -0.16760       -6.23450
C          0.47120        1.38630       -6.80730
C          1.26310        2.13090       -7.68060
C          0.76930        3.32620       -8.20020
C         -0.49920        3.77710       -7.83720
C         -1.27900        3.03140       -6.95510
C         -0.79860        1.82740       -6.44280
N          1.92070       -0.03620       -3.58620
C          3.32090       -0.03340       -3.99600
H          4.37190        0.05490        2.13840
H          4.18560       -2.10340        0.77680
H          5.68460       -1.20340        0.46980
H          4.36580       -1.17100       -0.70880
H          4.27410        1.36590       -0.66850
H          5.56760        1.48870        0.53190
H          3.98770        2.23490        0.83980
H          0.78150       -0.09650        2.36000
H          3.43560       -1.28230        3.44900
H          2.17020       -2.20310        2.62750
H          1.82530       -1.39430        4.16330
H          3.30600        1.31510        3.48750
H          1.68140        1.27520        4.17980
H          1.97330        2.13410        2.66180
H          2.26150        1.79780       -7.96560
H          1.37810        3.91050       -8.88680
H         -0.88060        4.71230       -8.24330
H         -2.26620        3.38660       -6.66330
H         -1.42550        1.24520       -5.75500
H          3.98430        0.02930       -3.10880
H          3.54160        0.83740       -4.64020
H          3.57480       -0.96200       -4.53960
