rmsd143.gzmat
 OpenBabel08211713393D

 45 47  0  0  0  0  0  0  0  0999 V2000
    0.0000    0.0000    0.0000 S   0  0  0  0  0  0  0  0  0  0  0  0
    1.7733    0.0000    0.0000 C   0  0  0  0  0  0  0  0  0  0  0  0
    2.5267    0.0000    1.1119 N   0  0  0  0  0  0  0  0  0  0  0  0
    4.0151    0.0585    1.0708 C   0  0  0  0  0  0  0  0  0  0  0  0
    4.5954   -1.1739    0.3676 C   0  0  0  0  0  0  0  0  0  0  0  0
    4.4879    1.3597    0.4109 C   0  0  0  0  0  0  0  0  0  0  0  0
    1.9037   -0.0409    2.4615 C   0  0  0  0  0  0  0  0  0  0  0  0
    2.3668   -1.2960    3.2146 C   0  0  0  0  0  0  0  0  0  0  0  0
    2.2430    1.2386    3.2383 C   0  0  0  0  0  0  0  0  0  0  0  0
    2.3564    0.0013   -1.2357 N   0  0  0  0  0  0  0  0  0  0  0  0
    1.5256   -0.0192   -2.2849 C   0  0  0  0  0  0  0  0  0  0  0  0
   -0.2868   -0.0365   -2.1775 S   0  0  1  0  0  0  0  0  0  0  0  0
   -0.3574   -0.0861   -3.9336 N   0  0  0  0  0  0  0  0  0  0  0  0
    0.8038   -0.0824   -4.4844 C   0  0  0  0  0  0  0  0  0  0  0  0
    1.1154   -0.1676   -6.2345 S   0  0  0  0  0  0  0  0  0  0  0  0
    0.4712    1.3863   -6.8073 C   0  0  0  0  0  0  0  0  0  0  0  0
    1.2631    2.1309   -7.6806 C   0  0  0  0  0  0  0  0  0  0  0  0
    0.7693    3.3262   -8.2002 C   0  0  0  0  0  0  0  0  0  0  0  0
   -0.4992    3.7771   -7.8372 C   0  0  0  0  0  0  0  0  0  0  0  0
   -1.2790    3.0314   -6.9551 C   0  0  0  0  0  0  0  0  0  0  0  0
   -0.7986    1.8274   -6.4428 C   0  0  0  0  0  0  0  0  0  0  0  0
    1.9207   -0.0362   -3.5862 N   0  0  0  0  0  0  0  0  0  0  0  0
    3.3209   -0.0334   -3.9960 C   0  0  0  0  0  0  0  0  0  0  0  0
    4.3719    0.0549    2.1384 H   0  0  0  0  0  0  0  0  0  0  0  0
    4.1856   -2.1034    0.7768 H   0  0  0  0  0  0  0  0  0  0  0  0
    5.6846   -1.2034    0.4698 H   0  0  0  0  0  0  0  0  0  0  0  0
    4.3658   -1.1710   -0.7088 H   0  0  0  0  0  0  0  0  0  0  0  0
    4.2741    1.3659   -0.6685 H   0  0  0  0  0  0  0  0  0  0  0  0
    5.5676    1.4887    0.5319 H   0  0  0  0  0  0  0  0  0  0  0  0
    3.9877    2.2349    0.8398 H   0  0  0  0  0  0  0  0  0  0  0  0
    0.7815   -0.0965    2.3600 H   0  0  0  0  0  0  0  0  0  0  0  0
    3.4356   -1.2823    3.4490 H   0  0  0  0  0  0  0  0  0  0  0  0
    2.1702   -2.2031    2.6275 H   0  0  0  0  0  0  0  0  0  0  0  0
    1.8253   -1.3943    4.1633 H   0  0  0  0  0  0  0  0  0  0  0  0
    3.3060    1.3151    3.4875 H   0  0  0  0  0  0  0  0  0  0  0  0
    1.6814    1.2752    4.1798 H   0  0  0  0  0  0  0  0  0  0  0  0
    1.9733    2.1341    2.6618 H   0  0  0  0  0  0  0  0  0  0  0  0
    2.2615    1.7978   -7.9656 H   0  0  0  0  0  0  0  0  0  0  0  0
    1.3781    3.9105   -8.8868 H   0  0  0  0  0  0  0  0  0  0  0  0
   -0.8806    4.7123   -8.2433 H   0  0  0  0  0  0  0  0  0  0  0  0
   -2.2662    3.3866   -6.6633 H   0  0  0  0  0  0  0  0  0  0  0  0
   -1.4255    1.2452   -5.7550 H   0  0  0  0  0  0  0  0  0  0  0  0
    3.9843    0.0293   -3.1088 H   0  0  0  0  0  0  0  0  0  0  0  0
    3.5416    0.8374   -4.6402 H   0  0  0  0  0  0  0  0  0  0  0  0
    3.5748   -0.9620   -4.5396 H   0  0  0  0  0  0  0  0  0  0  0  0
  2  1  1  0  0  0  0
  2  3  1  0  0  0  0
  3  7  1  0  0  0  0
  4  3  1  0  0  0  0
  4 24  1  0  0  0  0
  5 26  1  0  0  0  0
  5 25  1  0  0  0  0
  5  4  1  0  0  0  0
  6 29  1  0  0  0  0
  6 30  1  0  0  0  0
  6  4  1  0  0  0  0
  7  8  1  0  0  0  0
  7  9  1  0  0  0  0
  8 32  1  0  0  0  0
  8 34  1  0  0  0  0
  9 35  1  0  0  0  0
  9 36  1  0  0  0  0
 10  2  2  0  0  0  0
 11 10  2  0  0  0  0
 12 11  1  6  0  0  0
 12 13  1  0  0  0  0
 12  1  1  0  0  0  0
 14 13  2  0  0  0  0
 14 22  1  0  0  0  0
 15 14  1  0  0  0  0
 16 21  1  0  0  0  0
 16 15  1  0  0  0  0
 17 16  2  0  0  0  0
 18 19  2  0  0  0  0
 18 17  1  0  0  0  0
 19 20  1  0  0  0  0
 20 41  1  0  0  0  0
 20 21  2  0  0  0  0
 21 42  1  0  0  0  0
 22 11  1  0  0  0  0
 23 22  1  0  0  0  0
 23 43  1  0  0  0  0
 27  5  1  0  0  0  0
 28  6  1  0  0  0  0
 31  7  1  0  0  0  0
 33  8  1  0  0  0  0
 37  9  1  0  0  0  0
 38 17  1  0  0  0  0
 39 18  1  0  0  0  0
 40 19  1  0  0  0  0
 44 23  1  0  0  0  0
 45 23  1  0  0  0  0
M  END
$$$$
