rmsd72.gzmat
 OpenBabel08211713393D

 45 47  0  0  0  0  0  0  0  0999 V2000
    0.0000    0.0000    0.0000 S   0  0  0  0  0  0  0  0  0  0  0  0
    1.7733    0.0000    0.0000 C   0  0  0  0  0  0  0  0  0  0  0  0
    2.5273    0.0000    1.1115 N   0  0  0  0  0  0  0  0  0  0  0  0
    4.0158    0.0607    1.0715 C   0  0  0  0  0  0  0  0  0  0  0  0
    4.6011   -1.1685    0.3664 C   0  0  0  0  0  0  0  0  0  0  0  0
    4.4874    1.3641    0.4159 C   0  0  0  0  0  0  0  0  0  0  0  0
    1.9021   -0.0583    2.4593 C   0  0  0  0  0  0  0  0  0  0  0  0
    2.3631   -1.3233    3.1968 C   0  0  0  0  0  0  0  0  0  0  0  0
    2.2372    1.2108    3.2538 C   0  0  0  0  0  0  0  0  0  0  0  0
    2.3555    0.0017   -1.2361 N   0  0  0  0  0  0  0  0  0  0  0  0
    1.5242   -0.0184   -2.2850 C   0  0  0  0  0  0  0  0  0  0  0  0
   -0.2880   -0.0274   -2.1778 S   0  0  1  0  0  0  0  0  0  0  0  0
   -0.3584   -0.0797   -3.9338 N   0  0  0  0  0  0  0  0  0  0  0  0
    0.8028   -0.0883   -4.4845 C   0  0  0  0  0  0  0  0  0  0  0  0
    1.1176   -0.2070   -6.2316 S   0  0  0  0  0  0  0  0  0  0  0  0
    0.4363    1.3047   -6.8687 C   0  0  0  0  0  0  0  0  0  0  0  0
   -0.8034    1.7896   -6.4599 C   0  0  0  0  0  0  0  0  0  0  0  0
   -1.3062    2.9561   -7.0339 C   0  0  0  0  0  0  0  0  0  0  0  0
   -0.5791    3.6220   -8.0183 C   0  0  0  0  0  0  0  0  0  0  0  0
    0.6570    3.1244   -8.4289 C   0  0  0  0  0  0  0  0  0  0  0  0
    1.1731    1.9668   -7.8498 C   0  0  0  0  0  0  0  0  0  0  0  0
    1.9198   -0.0445   -3.5858 N   0  0  0  0  0  0  0  0  0  0  0  0
    3.3200   -0.0373   -3.9950 C   0  0  0  0  0  0  0  0  0  0  0  0
    4.3714    0.0555    2.1396 H   0  0  0  0  0  0  0  0  0  0  0  0
    4.2229   -2.1001    0.8004 H   0  0  0  0  0  0  0  0  0  0  0  0
    5.6931   -1.1752    0.4361 H   0  0  0  0  0  0  0  0  0  0  0  0
    4.3426   -1.1843   -0.7031 H   0  0  0  0  0  0  0  0  0  0  0  0
    4.2037    1.4098   -0.6463 H   0  0  0  0  0  0  0  0  0  0  0  0
    5.5771    1.4521    0.4647 H   0  0  0  0  0  0  0  0  0  0  0  0
    4.0491    2.2415    0.9028 H   0  0  0  0  0  0  0  0  0  0  0  0
    0.7801   -0.1137    2.3548 H   0  0  0  0  0  0  0  0  0  0  0  0
    3.4288   -1.3071    3.4446 H   0  0  0  0  0  0  0  0  0  0  0  0
    2.1777   -2.2217    2.5929 H   0  0  0  0  0  0  0  0  0  0  0  0
    1.8100   -1.4403    4.1369 H   0  0  0  0  0  0  0  0  0  0  0  0
    3.2949    1.2759    3.5251 H   0  0  0  0  0  0  0  0  0  0  0  0
    1.6579    1.2433    4.1846 H   0  0  0  0  0  0  0  0  0  0  0  0
    1.9869    2.1137    2.6810 H   0  0  0  0  0  0  0  0  0  0  0  0
   -1.3928    1.2713   -5.6928 H   0  0  0  0  0  0  0  0  0  0  0  0
   -2.2705    3.3447   -6.7099 H   0  0  0  0  0  0  0  0  0  0  0  0
   -0.9767    4.5308   -8.4666 H   0  0  0  0  0  0  0  0  0  0  0  0
    1.2233    3.6427   -9.1996 H   0  0  0  0  0  0  0  0  0  0  0  0
    2.1471    1.5991   -8.1744 H   0  0  0  0  0  0  0  0  0  0  0  0
    3.9837    0.0157   -3.1075 H   0  0  0  0  0  0  0  0  0  0  0  0
    3.5391    0.8407   -4.6303 H   0  0  0  0  0  0  0  0  0  0  0  0
    3.5739   -0.9601   -4.5481 H   0  0  0  0  0  0  0  0  0  0  0  0
  2  1  1  0  0  0  0
  2  3  1  0  0  0  0
  3  7  1  0  0  0  0
  4  3  1  0  0  0  0
  4 24  1  0  0  0  0
  5 26  1  0  0  0  0
  5 25  1  0  0  0  0
  5  4  1  0  0  0  0
  6 29  1  0  0  0  0
  6 30  1  0  0  0  0
  6  4  1  0  0  0  0
  7  8  1  0  0  0  0
  7  9  1  0  0  0  0
  8 32  1  0  0  0  0
  8 34  1  0  0  0  0
  9 35  1  0  0  0  0
  9 36  1  0  0  0  0
 10  2  2  0  0  0  0
 11 10  2  0  0  0  0
 12 11  1  6  0  0  0
 12 13  1  0  0  0  0
 12  1  1  0  0  0  0
 14 13  2  0  0  0  0
 14 22  1  0  0  0  0
 15 14  1  0  0  0  0
 16 17  1  0  0  0  0
 16 15  1  0  0  0  0
 17 38  1  0  0  0  0
 18 39  1  0  0  0  0
 18 17  2  0  0  0  0
 19 18  1  0  0  0  0
 20 19  2  0  0  0  0
 20 21  1  0  0  0  0
 21 16  2  0  0  0  0
 22 11  1  0  0  0  0
 23 22  1  0  0  0  0
 23 43  1  0  0  0  0
 27  5  1  0  0  0  0
 28  6  1  0  0  0  0
 31  7  1  0  0  0  0
 33  8  1  0  0  0  0
 37  9  1  0  0  0  0
 40 19  1  0  0  0  0
 41 20  1  0  0  0  0
 42 21  1  0  0  0  0
 44 23  1  0  0  0  0
 45 23  1  0  0  0  0
M  END
$$$$
