
     RDKit          3D

 45 46  0  0  0  0  0  0  0  0999 V2000
   -0.1872   -0.9710    0.4664 S   0  0  0  0  0  0  0  0  0  0  0  0
    1.3351   -0.3825   -0.0177 C   0  0  0  0  0  0  0  0  0  0  0  0
    2.3044   -0.0091    0.8619 N   0  0  0  0  0  0  0  0  0  0  0  0
    2.0685   -0.0936    2.3151 C   0  0  0  0  0  0  0  0  0  0  0  0
    3.0198   -1.0865    2.9864 C   0  0  0  0  0  0  0  0  0  0  0  0
    2.0842    1.2905    2.9678 C   0  0  0  0  0  0  0  0  0  0  0  0
    3.6325    0.4961    0.4420 C   0  0  0  0  0  0  0  0  0  0  0  0
    4.4794   -0.5679   -0.2628 C   0  0  0  0  0  0  0  0  0  0  0  0
    3.5650    1.8245   -0.3181 C   0  0  0  0  0  0  0  0  0  0  0  0
    1.6676   -0.2481   -1.3361 N   0  0  0  0  0  0  0  0  0  0  0  0
    0.8421   -0.5492   -2.2906 C   0  0  0  0  0  0  0  0  0  0  0  0
   -0.8167   -1.1792   -2.2505 S   0  0  0  0  0  0  0  0  0  0  0  0
   -0.9232   -1.1486   -3.9836 N   0  0  0  0  0  0  0  0  0  0  0  0
    0.1766   -0.7302   -4.4946 C   0  0  0  0  0  0  0  0  0  0  0  0
    0.4075   -0.5840   -6.2522 S   0  0  0  0  0  0  0  0  0  0  0  0
    0.6781    1.1858   -6.3649 C   0  0  0  0  0  0  0  0  0  0  0  0
    1.6109    1.6604   -7.2958 C   0  0  0  0  0  0  0  0  0  0  0  0
    1.8207    3.0353   -7.4288 C   0  0  0  0  0  0  0  0  0  0  0  0
    1.1205    3.9363   -6.6222 C   0  0  0  0  0  0  0  0  0  0  0  0
    0.1934    3.4572   -5.6910 C   0  0  0  0  0  0  0  0  0  0  0  0
   -0.0419    2.0867   -5.5679 C   0  0  0  0  0  0  0  0  0  0  0  0
    1.2053   -0.3991   -3.6101 N   0  0  0  0  0  0  0  0  0  0  0  0
    2.5268    0.0822   -3.9833 C   0  0  0  0  0  0  0  0  0  0  0  0
    1.0515   -0.4934    2.4123 H   0  0  0  0  0  0  0  0  0  0  0  0
    2.9443   -2.0752    2.5093 H   0  0  0  0  0  0  0  0  0  0  0  0
    2.7519   -1.1984    4.0484 H   0  0  0  0  0  0  0  0  0  0  0  0
    4.0714   -0.7596    2.9452 H   0  0  0  0  0  0  0  0  0  0  0  0
    3.0758    1.7689    2.9198 H   0  0  0  0  0  0  0  0  0  0  0  0
    1.8111    1.2051    4.0310 H   0  0  0  0  0  0  0  0  0  0  0  0
    1.3546    1.9539    2.4795 H   0  0  0  0  0  0  0  0  0  0  0  0
    4.1429    0.7143    1.3898 H   0  0  0  0  0  0  0  0  0  0  0  0
    4.0446   -0.8426   -1.2312 H   0  0  0  0  0  0  0  0  0  0  0  0
    4.5506   -1.4768    0.3528 H   0  0  0  0  0  0  0  0  0  0  0  0
    5.4990   -0.1846   -0.4275 H   0  0  0  0  0  0  0  0  0  0  0  0
    3.1135    1.6951   -1.3085 H   0  0  0  0  0  0  0  0  0  0  0  0
    4.5813    2.2322   -0.4400 H   0  0  0  0  0  0  0  0  0  0  0  0
    2.9675    2.5593    0.2423 H   0  0  0  0  0  0  0  0  0  0  0  0
    2.1770    0.9533   -7.9065 H   0  0  0  0  0  0  0  0  0  0  0  0
    2.5471    3.4014   -8.1583 H   0  0  0  0  0  0  0  0  0  0  0  0
    1.2957    5.0100   -6.7189 H   0  0  0  0  0  0  0  0  0  0  0  0
   -0.3627    4.1561   -5.0616 H   0  0  0  0  0  0  0  0  0  0  0  0
   -0.7842    1.7159   -4.8583 H   0  0  0  0  0  0  0  0  0  0  0  0
    3.2585   -0.3126   -3.2700 H   0  0  0  0  0  0  0  0  0  0  0  0
    2.5628    1.1818   -3.9617 H   0  0  0  0  0  0  0  0  0  0  0  0
    2.7539   -0.2667   -4.9965 H   0  0  0  0  0  0  0  0  0  0  0  0
  1  2  2  0
  2  3  1  0
  2 10  1  0
  3  4  1  0
  3  7  1  0
  4  5  1  0
  4  6  1  0
  4 24  1  0
  5 25  1  0
  5 26  1  0
  5 27  1  0
  6 28  1  0
  6 29  1  0
  6 30  1  0
  7  8  1  0
  7  9  1  0
  7 31  1  0
  8 32  1  0
  8 33  1  0
  8 34  1  0
  9 35  1  0
  9 36  1  0
  9 37  1  0
 10 11  2  0
 11 12  1  0
 11 22  1  0
 12 13  1  0
 13 14  2  0
 14 15  1  0
 14 22  1  0
 15 16  1  0
 16 17  2  0
 16 21  1  0
 17 18  1  0
 17 38  1  0
 18 19  2  0
 18 39  1  0
 19 20  1  0
 19 40  1  0
 20 21  2  0
 20 41  1  0
 21 42  1  0
 22 23  1  0
 23 43  1  0
 23 44  1  0
 23 45  1  0
M  END

