45
rmsd249.gzmat
S          0.00000        0.00000        0.00000
C          1.77310        0.00000        0.00000
N          2.52710        0.00000        1.11160
C          1.90410       -0.08580        2.45910
C          2.37950       -1.35530        3.17860
C          2.22730        1.17700        3.26890
C          4.01500        0.07300        1.07040
C          4.60520       -1.17420        0.40190
C          4.48220        1.35720        0.37380
N          2.35630        0.02180       -1.23530
C          1.52580        0.08230       -2.28310
S         -0.28540        0.12340       -2.17610
N         -0.35190        0.26200       -3.92830
C          0.80970        0.25730       -4.47780
S          1.13800        0.45590       -6.21520
C          0.20030       -0.85550       -6.96010
C         -1.13580       -1.08050       -6.63840
C         -1.84050       -2.08340       -7.30240
C         -1.21440       -2.84460       -8.28730
C          0.12300       -2.61090       -8.60530
C          0.83830       -1.61970       -7.93640
N          1.92360        0.13790       -3.58290
C          3.32110        0.06050       -3.99410
H          0.78260       -0.15040        2.35410
H          2.18080       -2.24990        2.57330
H          1.84700       -1.47860        4.12930
H          3.45030       -1.34100        3.40300
H          3.28480        1.25160        3.53890
H          1.64960        1.19340        4.20090
H          1.96510        2.08350        2.70700
H          4.36960        0.10430        2.13820
H          4.31860       -1.23710       -0.65900
H          4.25600       -2.09320        0.88380
H          5.69850       -1.15810        0.44320
H          4.31410        1.31280       -0.71270
H          5.55250        1.51940        0.53170
H          3.94460        2.23710        0.74310
H         -1.64200       -0.48760       -5.86530
H         -2.88290       -2.26830       -7.04800
H         -1.76830       -3.62350       -8.80810
H          0.61200       -3.20510       -9.37410
H          1.88720       -1.45920       -8.18740
H          3.97880       -0.07090       -3.11050
H          3.63460        0.98620       -4.50940
H          3.48450       -0.80380       -4.66470
