51
rmsd105.gzmat
Cl         0.00000        0.00000        0.00000
C          1.69530        0.00000        0.00000
C          2.40790        0.00000        1.19250
Cl         1.60460        0.00890        2.68630
C          3.79900       -0.00880        1.18940
C          4.46980       -0.03100       -0.03330
C          5.96680       -0.09590       -0.07440
C          6.34290       -1.40520       -0.72870
O          6.51990       -1.42970       -1.94550
N          6.51230       -2.54550        0.02400
C          6.62230       -3.88980       -0.57120
H          6.99890       -4.56020        0.27220
C          7.73370       -3.97140       -1.65990
N          7.26890       -3.58090       -3.03660
H          6.58680       -2.74650       -2.90710
C          6.60270       -4.70190       -3.80820
C          6.83110       -4.37780       -5.29060
C          7.95000       -3.32330       -5.34880
C          8.42810       -3.11960       -3.90730
C          5.30730       -4.45930       -1.05210
C          5.15930       -5.85030       -1.02220
C          3.97030       -6.43590       -1.44550
C          2.91730       -5.63700       -1.89080
C          3.05870       -4.25200       -1.91010
C          4.25210       -3.66370       -1.49300
C          6.07960       -2.55240        1.43340
C          3.75290       -0.01120       -1.23450
C          2.36180        0.00500       -1.22260
H          4.35370        0.01440        2.12890
H          6.43290        0.04080        0.92230
H          6.37220        0.74790       -0.69160
H          8.14960       -5.00390       -1.68020
H          8.56910       -3.29070       -1.35490
H          7.04370       -5.68190       -3.53090
H          5.52180       -4.74960       -3.54900
H          5.90670       -4.00030       -5.76900
H          7.10400       -5.28800       -5.85840
H          7.57960       -2.37740       -5.79070
H          8.78000       -3.64760       -6.00550
H          8.65570       -2.05510       -3.67720
H          9.33800       -3.71730       -3.69280
H          5.96540       -6.48400       -0.65380
H          3.85700       -7.52200       -1.41690
H          1.97980       -6.09720       -2.21200
H          2.23080       -3.62070       -2.24070
H          4.33100       -2.57650       -1.50710
H          6.60130       -1.75690        1.99740
H          6.32890       -3.50890        1.92690
H          4.98560       -2.40850        1.52570
H          4.29040       -0.00160       -2.18620
H          1.80420        0.02950       -2.16290
