51
rmsd216.gzmat
Cl         0.00000        0.00000        0.00000
C          1.69390        0.00000        0.00000
C          2.40510        0.00000        1.19400
Cl         1.60740        0.01780        2.69580
C          3.79220        0.00020        1.19360
C          4.47200        0.05370       -0.02720
C          5.96590        0.17400       -0.01290
C          6.32030        1.30800        0.91680
O          6.58490        1.06620        2.10010
N          6.26990        2.61650        0.51610
C          6.70690        3.66270        1.46390
H          7.58760        3.24660        2.04620
C          5.55850        3.98490        2.46960
N          5.54910        2.97970        3.58980
H          5.99130        2.05010        3.20960
C          4.14870        2.69500        4.10200
C          4.35530        2.14150        5.51730
C          5.74050        2.63400        5.97760
C          6.33620        3.43000        4.80680
C          7.15800        4.91670        0.75550
C          6.26400        5.93200        0.41010
C          6.72850        7.08070       -0.22590
C          8.08360        7.21720       -0.52510
C          8.97510        6.20070       -0.18770
C          8.51450        5.05160        0.45230
C          5.88920        3.01730       -0.83910
C          3.76200        0.02950       -1.22870
C          2.36800       -0.00490       -1.21760
H          4.35480       -0.05810        2.12840
H          6.40600        0.29500       -1.02400
H          6.42380       -0.77270        0.38170
H          4.57940        3.96470        1.93700
H          5.67920        5.01570        2.87400
H          3.54040        3.62410        4.11300
H          3.64180        1.97340        3.42850
H          4.30200        1.03490        5.53200
H          3.55440        2.48100        6.20160
H          6.38900        1.78210        6.26140
H          5.66570        3.26010        6.88700
H          7.41590        3.22510        4.65260
H          6.22570        4.52360        4.96390
H          5.20130        5.83980        0.62470
H          6.02860        7.87510       -0.49050
H          8.44550        8.12010       -1.02220
H         10.03700        6.30580       -0.41970
H          9.22040        4.26180        0.71080
H          6.78370        3.26300       -1.44430
H          5.23850        3.91120       -0.81690
H          5.31930        2.22400       -1.35420
H          4.29060        0.02600       -2.18370
H          1.81360       -0.03400       -2.16130
