rmsd105.gzmat
 OpenBabel08211713363D

 51 53  0  0  1  0  0  0  0  0999 V2000
    0.0000    0.0000    0.0000 Cl  0  0  0  0  0  0  0  0  0  0  0  0
    1.6953    0.0000    0.0000 C   0  0  0  0  0  0  0  0  0  0  0  0
    2.4079    0.0000    1.1925 C   0  0  0  0  0  0  0  0  0  0  0  0
    1.6046    0.0089    2.6863 Cl  0  0  0  0  0  0  0  0  0  0  0  0
    3.7990   -0.0088    1.1894 C   0  0  0  0  0  0  0  0  0  0  0  0
    4.4698   -0.0310   -0.0333 C   0  0  0  0  0  0  0  0  0  0  0  0
    5.9668   -0.0959   -0.0744 C   0  0  0  0  0  0  0  0  0  0  0  0
    6.3429   -1.4052   -0.7287 C   0  0  0  0  0  0  0  0  0  0  0  0
    6.5199   -1.4297   -1.9455 O   0  0  0  0  0  0  0  0  0  0  0  0
    6.5123   -2.5455    0.0240 N   0  0  0  0  0  0  0  0  0  0  0  0
    6.6223   -3.8898   -0.5712 C   0  0  2  0  0  0  0  0  0  0  0  0
    6.9989   -4.5602    0.2722 H   0  0  0  0  0  0  0  0  0  0  0  0
    7.7337   -3.9714   -1.6599 C   0  0  0  0  0  0  0  0  0  0  0  0
    7.2689   -3.5809   -3.0366 N   0  0  0  0  0  0  0  0  0  0  0  0
    6.5868   -2.7465   -2.9071 H   0  0  0  0  0  0  0  0  0  0  0  0
    6.6027   -4.7019   -3.8082 C   0  0  0  0  0  0  0  0  0  0  0  0
    6.8311   -4.3778   -5.2906 C   0  0  0  0  0  0  0  0  0  0  0  0
    7.9500   -3.3233   -5.3488 C   0  0  0  0  0  0  0  0  0  0  0  0
    8.4281   -3.1196   -3.9073 C   0  0  0  0  0  0  0  0  0  0  0  0
    5.3073   -4.4593   -1.0521 C   0  0  0  0  0  0  0  0  0  0  0  0
    5.1593   -5.8503   -1.0222 C   0  0  0  0  0  0  0  0  0  0  0  0
    3.9703   -6.4359   -1.4455 C   0  0  0  0  0  0  0  0  0  0  0  0
    2.9173   -5.6370   -1.8908 C   0  0  0  0  0  0  0  0  0  0  0  0
    3.0587   -4.2520   -1.9101 C   0  0  0  0  0  0  0  0  0  0  0  0
    4.2521   -3.6637   -1.4930 C   0  0  0  0  0  0  0  0  0  0  0  0
    6.0796   -2.5524    1.4334 C   0  0  0  0  0  0  0  0  0  0  0  0
    3.7529   -0.0112   -1.2345 C   0  0  0  0  0  0  0  0  0  0  0  0
    2.3618    0.0050   -1.2226 C   0  0  0  0  0  0  0  0  0  0  0  0
    4.3537    0.0144    2.1289 H   0  0  0  0  0  0  0  0  0  0  0  0
    6.4329    0.0408    0.9223 H   0  0  0  0  0  0  0  0  0  0  0  0
    6.3722    0.7479   -0.6916 H   0  0  0  0  0  0  0  0  0  0  0  0
    8.1496   -5.0039   -1.6802 H   0  0  0  0  0  0  0  0  0  0  0  0
    8.5691   -3.2907   -1.3549 H   0  0  0  0  0  0  0  0  0  0  0  0
    7.0437   -5.6819   -3.5309 H   0  0  0  0  0  0  0  0  0  0  0  0
    5.5218   -4.7496   -3.5490 H   0  0  0  0  0  0  0  0  0  0  0  0
    5.9067   -4.0003   -5.7690 H   0  0  0  0  0  0  0  0  0  0  0  0
    7.1040   -5.2880   -5.8584 H   0  0  0  0  0  0  0  0  0  0  0  0
    7.5796   -2.3774   -5.7907 H   0  0  0  0  0  0  0  0  0  0  0  0
    8.7800   -3.6476   -6.0055 H   0  0  0  0  0  0  0  0  0  0  0  0
    8.6557   -2.0551   -3.6772 H   0  0  0  0  0  0  0  0  0  0  0  0
    9.3380   -3.7173   -3.6928 H   0  0  0  0  0  0  0  0  0  0  0  0
    5.9654   -6.4840   -0.6538 H   0  0  0  0  0  0  0  0  0  0  0  0
    3.8570   -7.5220   -1.4169 H   0  0  0  0  0  0  0  0  0  0  0  0
    1.9798   -6.0972   -2.2120 H   0  0  0  0  0  0  0  0  0  0  0  0
    2.2308   -3.6207   -2.2407 H   0  0  0  0  0  0  0  0  0  0  0  0
    4.3310   -2.5765   -1.5071 H   0  0  0  0  0  0  0  0  0  0  0  0
    6.6013   -1.7569    1.9974 H   0  0  0  0  0  0  0  0  0  0  0  0
    6.3289   -3.5089    1.9269 H   0  0  0  0  0  0  0  0  0  0  0  0
    4.9856   -2.4085    1.5257 H   0  0  0  0  0  0  0  0  0  0  0  0
    4.2904   -0.0016   -2.1862 H   0  0  0  0  0  0  0  0  0  0  0  0
    1.8042    0.0295   -2.1629 H   0  0  0  0  0  0  0  0  0  0  0  0
  1  2  1  0  0  0  0
  2  3  2  0  0  0  0
  3  4  1  0  0  0  0
  5  3  1  0  0  0  0
  5 29  1  0  0  0  0
  6  5  2  0  0  0  0
  7  6  1  0  0  0  0
  7 30  1  0  0  0  0
  8  7  1  0  0  0  0
  8 10  1  0  0  0  0
  9  8  2  0  0  0  0
 10 26  1  0  0  0  0
 11 10  1  0  0  0  0
 11 12  1  1  0  0  0
 13 33  1  0  0  0  0
 13 11  1  0  0  0  0
 14 15  1  0  0  0  0
 14 13  1  0  0  0  0
 16 35  1  0  0  0  0
 16 34  1  0  0  0  0
 16 14  1  0  0  0  0
 17 16  1  0  0  0  0
 18 17  1  0  0  0  0
 18 19  1  0  0  0  0
 19 41  1  0  0  0  0
 19 40  1  0  0  0  0
 19 14  1  0  0  0  0
 20 21  1  0  0  0  0
 20 11  1  0  0  0  0
 21 42  1  0  0  0  0
 22 43  1  0  0  0  0
 22 21  2  0  0  0  0
 23 22  1  0  0  0  0
 24 23  2  0  0  0  0
 24 25  1  0  0  0  0
 25 20  2  0  0  0  0
 26 49  1  0  0  0  0
 26 48  1  0  0  0  0
 26 47  1  0  0  0  0
 27 28  2  0  0  0  0
 27  6  1  0  0  0  0
 28  2  1  0  0  0  0
 31  7  1  0  0  0  0
 32 13  1  0  0  0  0
 36 17  1  0  0  0  0
 37 17  1  0  0  0  0
 38 18  1  0  0  0  0
 39 18  1  0  0  0  0
 44 23  1  0  0  0  0
 45 24  1  0  0  0  0
 46 25  1  0  0  0  0
 50 27  1  0  0  0  0
 51 28  1  0  0  0  0
M  END
$$$$
