51
rmsd151.gzmat
Cl         0.00000        0.00000        0.00000
C          1.69380        0.00000        0.00000
C          2.40520        0.00000        1.19380
Cl         1.60730        0.01980        2.69570
C          3.79240       -0.00270        1.19360
C          4.47260        0.04760       -0.02680
C          5.96730        0.15560       -0.01500
C          6.34740        1.23720        0.96480
O          6.65280        0.93490        2.12380
N          6.27780        2.56560        0.63790
C          6.75170        3.55740        1.62580
H          7.64810        3.10750        2.15740
C          5.63730        3.82750        2.68290
N          5.66100        2.76520        3.74970
H          6.08820        1.85750        3.31030
C          4.27550        2.45620        4.28870
C          4.52280        1.83060        5.66720
C          5.92470        2.29250        6.10850
C          6.48390        3.15240        4.96520
C          7.18990        4.84260        0.96810
C          8.52950        4.96410        0.59330
C          8.98110        6.13670       -0.00870
C          8.09840        7.19130       -0.23270
C          6.76040        7.06940        0.13960
C          6.30330        5.89610        0.73470
C          5.86660        3.03160       -0.68730
C          3.76180        0.02550       -1.22820
C          2.36870       -0.00680       -1.21740
H          4.35410       -0.06260        2.12800
H          6.40010        0.32390       -1.02310
H          6.41820       -0.81420        0.32880
H          4.64190        3.83420        2.18030
H          5.77260        4.83600        3.13600
H          3.67110        3.38470        4.36600
H          3.74680        1.77080        3.59450
H          4.46250        0.72460        5.62750
H          3.74550        2.13770        6.39280
H          6.57870        1.42380        6.31980
H          5.88390        2.86400        7.05530
H          7.55900        2.95830        4.76940
H          6.37590        4.23620        5.18230
H          9.22810        4.14460        0.76550
H         10.02850        6.22830       -0.30350
H          8.45360        8.11260       -0.69960
H          6.06800        7.89420       -0.03750
H          5.25210        5.81500        1.00340
H          5.20460        2.30090       -1.18570
H          6.74700        3.21810       -1.33230
H          5.29560        3.97610       -0.61540
H          4.29120        0.02220       -2.18320
H          1.81430       -0.03740       -2.16130
