rmsd151.gzmat
 OpenBabel08211713363D

 51 53  0  0  1  0  0  0  0  0999 V2000
    0.0000    0.0000    0.0000 Cl  0  0  0  0  0  0  0  0  0  0  0  0
    1.6938    0.0000    0.0000 C   0  0  0  0  0  0  0  0  0  0  0  0
    2.4052    0.0000    1.1938 C   0  0  0  0  0  0  0  0  0  0  0  0
    1.6073    0.0198    2.6957 Cl  0  0  0  0  0  0  0  0  0  0  0  0
    3.7924   -0.0027    1.1936 C   0  0  0  0  0  0  0  0  0  0  0  0
    4.4726    0.0476   -0.0268 C   0  0  0  0  0  0  0  0  0  0  0  0
    5.9673    0.1556   -0.0150 C   0  0  0  0  0  0  0  0  0  0  0  0
    6.3474    1.2372    0.9648 C   0  0  0  0  0  0  0  0  0  0  0  0
    6.6528    0.9349    2.1238 O   0  0  0  0  0  0  0  0  0  0  0  0
    6.2778    2.5656    0.6379 N   0  0  0  0  0  0  0  0  0  0  0  0
    6.7517    3.5574    1.6258 C   0  0  2  0  0  0  0  0  0  0  0  0
    7.6481    3.1075    2.1574 H   0  0  0  0  0  0  0  0  0  0  0  0
    5.6373    3.8275    2.6829 C   0  0  0  0  0  0  0  0  0  0  0  0
    5.6610    2.7652    3.7497 N   0  0  0  0  0  0  0  0  0  0  0  0
    6.0882    1.8575    3.3103 H   0  0  0  0  0  0  0  0  0  0  0  0
    4.2755    2.4562    4.2887 C   0  0  0  0  0  0  0  0  0  0  0  0
    4.5228    1.8306    5.6672 C   0  0  0  0  0  0  0  0  0  0  0  0
    5.9247    2.2925    6.1085 C   0  0  0  0  0  0  0  0  0  0  0  0
    6.4839    3.1524    4.9652 C   0  0  0  0  0  0  0  0  0  0  0  0
    7.1899    4.8426    0.9681 C   0  0  0  0  0  0  0  0  0  0  0  0
    8.5295    4.9641    0.5933 C   0  0  0  0  0  0  0  0  0  0  0  0
    8.9811    6.1367   -0.0087 C   0  0  0  0  0  0  0  0  0  0  0  0
    8.0984    7.1913   -0.2327 C   0  0  0  0  0  0  0  0  0  0  0  0
    6.7604    7.0694    0.1396 C   0  0  0  0  0  0  0  0  0  0  0  0
    6.3033    5.8961    0.7347 C   0  0  0  0  0  0  0  0  0  0  0  0
    5.8666    3.0316   -0.6873 C   0  0  0  0  0  0  0  0  0  0  0  0
    3.7618    0.0255   -1.2282 C   0  0  0  0  0  0  0  0  0  0  0  0
    2.3687   -0.0068   -1.2174 C   0  0  0  0  0  0  0  0  0  0  0  0
    4.3541   -0.0626    2.1280 H   0  0  0  0  0  0  0  0  0  0  0  0
    6.4001    0.3239   -1.0231 H   0  0  0  0  0  0  0  0  0  0  0  0
    6.4182   -0.8142    0.3288 H   0  0  0  0  0  0  0  0  0  0  0  0
    4.6419    3.8342    2.1803 H   0  0  0  0  0  0  0  0  0  0  0  0
    5.7726    4.8360    3.1360 H   0  0  0  0  0  0  0  0  0  0  0  0
    3.6711    3.3847    4.3660 H   0  0  0  0  0  0  0  0  0  0  0  0
    3.7468    1.7708    3.5945 H   0  0  0  0  0  0  0  0  0  0  0  0
    4.4625    0.7246    5.6275 H   0  0  0  0  0  0  0  0  0  0  0  0
    3.7455    2.1377    6.3928 H   0  0  0  0  0  0  0  0  0  0  0  0
    6.5787    1.4238    6.3198 H   0  0  0  0  0  0  0  0  0  0  0  0
    5.8839    2.8640    7.0553 H   0  0  0  0  0  0  0  0  0  0  0  0
    7.5590    2.9583    4.7694 H   0  0  0  0  0  0  0  0  0  0  0  0
    6.3759    4.2362    5.1823 H   0  0  0  0  0  0  0  0  0  0  0  0
    9.2281    4.1446    0.7655 H   0  0  0  0  0  0  0  0  0  0  0  0
   10.0285    6.2283   -0.3035 H   0  0  0  0  0  0  0  0  0  0  0  0
    8.4536    8.1126   -0.6996 H   0  0  0  0  0  0  0  0  0  0  0  0
    6.0680    7.8942   -0.0375 H   0  0  0  0  0  0  0  0  0  0  0  0
    5.2521    5.8150    1.0034 H   0  0  0  0  0  0  0  0  0  0  0  0
    5.2046    2.3009   -1.1857 H   0  0  0  0  0  0  0  0  0  0  0  0
    6.7470    3.2181   -1.3323 H   0  0  0  0  0  0  0  0  0  0  0  0
    5.2956    3.9761   -0.6154 H   0  0  0  0  0  0  0  0  0  0  0  0
    4.2912    0.0222   -2.1832 H   0  0  0  0  0  0  0  0  0  0  0  0
    1.8143   -0.0374   -2.1613 H   0  0  0  0  0  0  0  0  0  0  0  0
  2  1  1  0  0  0  0
  2  3  2  0  0  0  0
  3  4  1  0  0  0  0
  5  3  1  0  0  0  0
  5 29  1  0  0  0  0
  6  7  1  0  0  0  0
  6  5  2  0  0  0  0
  7 31  1  0  0  0  0
  7  8  1  0  0  0  0
  8  9  2  0  0  0  0
 10  8  1  0  0  0  0
 10 11  1  0  0  0  0
 11 12  1  1  0  0  0
 11 13  1  0  0  0  0
 13 33  1  0  0  0  0
 13 14  1  0  0  0  0
 14 16  1  0  0  0  0
 14 19  1  0  0  0  0
 15 14  1  0  0  0  0
 16 34  1  0  0  0  0
 16 17  1  0  0  0  0
 17 18  1  0  0  0  0
 17 37  1  0  0  0  0
 18 38  1  0  0  0  0
 18 39  1  0  0  0  0
 19 41  1  0  0  0  0
 19 18  1  0  0  0  0
 20 11  1  0  0  0  0
 21 42  1  0  0  0  0
 21 20  2  0  0  0  0
 22 21  1  0  0  0  0
 23 22  2  0  0  0  0
 23 24  1  0  0  0  0
 24 25  2  0  0  0  0
 25 20  1  0  0  0  0
 25 46  1  0  0  0  0
 26 49  1  0  0  0  0
 26 10  1  0  0  0  0
 27 28  2  0  0  0  0
 27  6  1  0  0  0  0
 28  2  1  0  0  0  0
 30  7  1  0  0  0  0
 32 13  1  0  0  0  0
 35 16  1  0  0  0  0
 36 17  1  0  0  0  0
 40 19  1  0  0  0  0
 43 22  1  0  0  0  0
 44 23  1  0  0  0  0
 45 24  1  0  0  0  0
 47 26  1  0  0  0  0
 48 26  1  0  0  0  0
 50 27  1  0  0  0  0
 51 28  1  0  0  0  0
M  END
$$$$
