51
rmsd76.gzmat
Cl         0.00000        0.00000        0.00000
C          1.69440        0.00000        0.00000
C          2.40400        0.00000        1.19460
Cl         1.59590       -0.01930        2.68680
C          3.79250        0.02130        1.19550
C          4.47150        0.08100       -0.02330
C          5.96280        0.18900       -0.03070
C          6.46670        1.32460        0.82480
O          7.35960        1.13420        1.64130
N          6.05690        2.64540        0.62880
C          5.94060        3.55930        1.79200
H          5.83270        4.59750        1.35590
C          7.18050        3.58210        2.72770
N          8.48610        3.51810        1.98450
H          8.51580        2.56710        1.50010
C          9.67860        3.63790        2.92010
C         10.82660        4.12920        2.03080
C         10.17350        4.81650        0.81750
C          8.65790        4.62850        0.96580
C          4.71530        3.22920        2.61870
C          4.70520        2.15110        3.50530
C          3.56340        1.87400        4.25210
C          2.42050        2.65850        4.09700
C          2.42260        3.71940        3.19400
C          3.57010        4.00950        2.45830
C          5.06100        2.94650       -0.41430
C          3.76000        0.04350       -1.22570
C          2.36770       -0.00210       -1.21770
H          4.34720       -0.00610        2.13580
H          6.37460        0.27840       -1.06180
H          6.40860       -0.76810        0.35690
H          7.15220        2.70490        3.42860
H          7.13020        4.49840        3.35940
H          9.45950        4.35870        3.73710
H          9.88650        2.65400        3.39290
H         11.48020        3.29450        1.71040
H         11.49330        4.82280        2.57950
H         10.54670        4.38610       -0.13160
H         10.43870        5.89100        0.77190
H          8.16370        4.34130        0.01280
H          8.16790        5.55840        1.32520
H          5.58360        1.51320        3.61420
H          3.56220        1.03920        4.95650
H          1.52250        2.43770        4.67940
H          1.52540        4.32680        3.06320
H          3.56280        4.84570        1.76060
H          5.29260        2.38910       -1.33960
H          5.08850        4.02090       -0.66770
H          4.02910        2.69370       -0.10230
H          4.29000        0.04220       -2.17890
H          1.81490       -0.03970       -2.16140
