
     RDKit          3D

 49 52  0  0  0  0  0  0  0  0999 V2000
   -0.1871   -1.1904   -0.0971 C   0  0  0  0  0  0  0  0  0  0  0  0
    1.2215   -0.5784   -0.1508 C   0  0  0  0  0  0  0  0  0  0  0  0
    1.8145   -0.4078    1.2485 C   0  0  0  0  0  0  0  0  0  0  0  0
    2.1483   -1.3427   -0.9843 N   0  0  0  0  0  0  0  0  0  0  0  0
    1.9773   -1.2154   -2.4215 C   0  0  0  0  0  0  0  0  0  0  0  0
    2.9334   -2.1363   -3.1724 C   0  0  0  0  0  0  0  0  0  0  0  0
    4.3929   -1.9284   -2.7673 C   0  0  0  0  0  0  0  0  0  0  0  0
    5.2934   -2.8250   -3.4765 N   0  0  0  0  0  0  0  0  0  0  0  0
    5.6366   -2.6837   -4.8043 C   0  0  0  0  0  0  0  0  0  0  0  0
    5.2164   -1.7579   -5.6718 N   0  0  0  0  0  0  0  0  0  0  0  0
    5.7650   -1.9187   -6.8777 C   0  0  0  0  0  0  0  0  0  0  0  0
    6.6343   -2.8588   -7.2757 N   0  0  0  0  0  0  0  0  0  0  0  0
    7.0460   -3.7815   -6.3924 C   0  0  0  0  0  0  0  0  0  0  0  0
    7.9201   -4.7343   -6.7834 N   0  0  0  0  0  0  0  0  0  0  0  0
    6.5410   -3.7231   -5.0709 C   0  0  0  0  0  0  0  0  0  0  0  0
    6.7330   -4.5017   -3.9546 N   0  0  0  0  0  0  0  0  0  0  0  0
    5.9772   -3.9513   -3.0290 C   0  0  0  0  0  0  0  0  0  0  0  0
    6.0039   -4.5437   -1.3677 S   0  0  0  0  0  0  0  0  0  0  0  0
    4.2933   -4.6375   -0.8427 C   0  0  0  0  0  0  0  0  0  0  0  0
    4.0476   -4.0683    0.4337 C   0  0  0  0  0  0  0  0  0  0  0  0
    2.7880   -4.2062    0.9762 C   0  0  0  0  0  0  0  0  0  0  0  0
    2.3066   -3.7361    2.1645 O   0  0  0  0  0  0  0  0  0  0  0  0
    0.9859   -4.2640    2.2886 C   0  0  0  0  0  0  0  0  0  0  0  0
    0.5994   -4.7438    1.0003 O   0  0  0  0  0  0  0  0  0  0  0  0
    1.7520   -4.8273    0.2729 C   0  0  0  0  0  0  0  0  0  0  0  0
    1.9529   -5.3808   -0.9764 C   0  0  0  0  0  0  0  0  0  0  0  0
    3.2570   -5.3083   -1.5161 C   0  0  0  0  0  0  0  0  0  0  0  0
    3.5551   -6.2964   -3.3690 I   0  0  0  0  0  0  0  0  0  0  0  0
   -0.6275   -1.2815   -1.1022 H   0  0  0  0  0  0  0  0  0  0  0  0
   -0.8725   -0.5806    0.5132 H   0  0  0  0  0  0  0  0  0  0  0  0
   -0.1491   -2.2028    0.3406 H   0  0  0  0  0  0  0  0  0  0  0  0
    1.1436    0.4227   -0.6121 H   0  0  0  0  0  0  0  0  0  0  0  0
    1.9547   -1.3864    1.7344 H   0  0  0  0  0  0  0  0  0  0  0  0
    1.1588    0.2021    1.8903 H   0  0  0  0  0  0  0  0  0  0  0  0
    2.8001    0.0768    1.1874 H   0  0  0  0  0  0  0  0  0  0  0  0
    2.1204   -2.3262   -0.7160 H   0  0  0  0  0  0  0  0  0  0  0  0
    2.1806   -0.1648   -2.6984 H   0  0  0  0  0  0  0  0  0  0  0  0
    0.9437   -1.4291   -2.7716 H   0  0  0  0  0  0  0  0  0  0  0  0
    2.8384   -1.9634   -4.2550 H   0  0  0  0  0  0  0  0  0  0  0  0
    2.6564   -3.1868   -2.9907 H   0  0  0  0  0  0  0  0  0  0  0  0
    4.5303   -2.0754   -1.6910 H   0  0  0  0  0  0  0  0  0  0  0  0
    4.7002   -0.8980   -3.0047 H   0  0  0  0  0  0  0  0  0  0  0  0
    5.4694   -1.1926   -7.6442 H   0  0  0  0  0  0  0  0  0  0  0  0
    8.2570   -4.7321   -7.7363 H   0  0  0  0  0  0  0  0  0  0  0  0
    8.2354   -5.4298   -6.1224 H   0  0  0  0  0  0  0  0  0  0  0  0
    4.8359   -3.5288    0.9584 H   0  0  0  0  0  0  0  0  0  0  0  0
    0.2989   -3.4664    2.6069 H   0  0  0  0  0  0  0  0  0  0  0  0
    0.9882   -5.1020    3.0112 H   0  0  0  0  0  0  0  0  0  0  0  0
    1.1419   -5.8717   -1.5129 H   0  0  0  0  0  0  0  0  0  0  0  0
  1  2  1  0
  1 29  1  0
  1 30  1  0
  1 31  1  0
  2  3  1  0
  2  4  1  0
  2 32  1  0
  3 33  1  0
  3 34  1  0
  3 35  1  0
  4  5  1  0
  4 36  1  0
  5  6  1  0
  5 37  1  0
  5 38  1  0
  6  7  1  0
  6 39  1  0
  6 40  1  0
  7  8  1  0
  7 41  1  0
  7 42  1  0
  8  9  1  0
  8 17  1  0
  9 10  2  0
  9 15  1  0
 10 11  1  0
 11 12  2  0
 11 43  1  0
 12 13  1  0
 13 14  1  0
 13 15  2  0
 14 44  1  0
 14 45  1  0
 15 16  1  0
 16 17  2  0
 17 18  1  0
 18 19  1  0
 19 20  2  0
 19 27  1  0
 20 21  1  0
 20 46  1  0
 21 22  1  0
 21 25  2  0
 22 23  1  0
 23 24  1  0
 23 47  1  0
 23 48  1  0
 24 25  1  0
 25 26  1  0
 26 27  2  0
 26 49  1  0
 27 28  1  0
M  END

