
     RDKit          3D

 49 52  0  0  0  0  0  0  0  0999 V2000
    0.0576   -0.1170    0.1418 C   0  0  0  0  0  0  0  0  0  0  0  0
    1.5916   -0.2094    0.1377 C   0  0  0  0  0  0  0  0  0  0  0  0
    2.1446   -0.3209    1.5581 C   0  0  0  0  0  0  0  0  0  0  0  0
    2.1254   -1.3071   -0.6628 N   0  0  0  0  0  0  0  0  0  0  0  0
    1.8759   -1.2735   -2.0923 C   0  0  0  0  0  0  0  0  0  0  0  0
    2.6616   -2.3734   -2.8053 C   0  0  0  0  0  0  0  0  0  0  0  0
    4.1673   -2.2473   -2.5717 C   0  0  0  0  0  0  0  0  0  0  0  0
    4.9217   -3.3703   -3.1001 N   0  0  0  0  0  0  0  0  0  0  0  0
    5.6636   -3.3770   -4.2634 C   0  0  0  0  0  0  0  0  0  0  0  0
    5.8126   -2.3960   -5.1565 N   0  0  0  0  0  0  0  0  0  0  0  0
    6.6276   -2.7475   -6.1531 C   0  0  0  0  0  0  0  0  0  0  0  0
    7.2641   -3.9141   -6.3308 N   0  0  0  0  0  0  0  0  0  0  0  0
    7.1019   -4.8901   -5.4237 C   0  0  0  0  0  0  0  0  0  0  0  0
    7.7378   -6.0711   -5.5963 N   0  0  0  0  0  0  0  0  0  0  0  0
    6.2608   -4.6471   -4.3125 C   0  0  0  0  0  0  0  0  0  0  0  0
    5.8857   -5.4109   -3.2277 N   0  0  0  0  0  0  0  0  0  0  0  0
    5.0995   -4.6227   -2.5316 C   0  0  0  0  0  0  0  0  0  0  0  0
    4.3113   -5.0189   -0.9976 S   0  0  0  0  0  0  0  0  0  0  0  0
    5.6037   -5.9780   -0.2261 C   0  0  0  0  0  0  0  0  0  0  0  0
    5.3472   -7.3571   -0.0413 C   0  0  0  0  0  0  0  0  0  0  0  0
    6.3125   -8.1108    0.5936 C   0  0  0  0  0  0  0  0  0  0  0  0
    6.2990   -9.4393    0.9062 O   0  0  0  0  0  0  0  0  0  0  0  0
    7.5875   -9.7397    1.4375 C   0  0  0  0  0  0  0  0  0  0  0  0
    8.2757   -8.5030    1.6271 O   0  0  0  0  0  0  0  0  0  0  0  0
    7.5127   -7.5443    1.0310 C   0  0  0  0  0  0  0  0  0  0  0  0
    7.7944   -6.2019    0.8592 C   0  0  0  0  0  0  0  0  0  0  0  0
    6.8093   -5.4166    0.2265 C   0  0  0  0  0  0  0  0  0  0  0  0
    7.2482   -3.3562   -0.0303 I   0  0  0  0  0  0  0  0  0  0  0  0
   -0.3480   -0.0036   -0.8754 H   0  0  0  0  0  0  0  0  0  0  0  0
   -0.2888    0.7439    0.7359 H   0  0  0  0  0  0  0  0  0  0  0  0
   -0.3819   -1.0289    0.5824 H   0  0  0  0  0  0  0  0  0  0  0  0
    1.9866    0.7208   -0.3121 H   0  0  0  0  0  0  0  0  0  0  0  0
    1.7785   -1.2418    2.0448 H   0  0  0  0  0  0  0  0  0  0  0  0
    1.8274    0.5308    2.1796 H   0  0  0  0  0  0  0  0  0  0  0  0
    3.2435   -0.3619    1.5418 H   0  0  0  0  0  0  0  0  0  0  0  0
    1.8378   -2.2042   -0.2698 H   0  0  0  0  0  0  0  0  0  0  0  0
    2.2021   -0.2868   -2.4686 H   0  0  0  0  0  0  0  0  0  0  0  0
    0.8039   -1.3663   -2.3703 H   0  0  0  0  0  0  0  0  0  0  0  0
    2.4463   -2.3499   -3.8857 H   0  0  0  0  0  0  0  0  0  0  0  0
    2.3190   -3.3582   -2.4390 H   0  0  0  0  0  0  0  0  0  0  0  0
    4.3656   -2.1637   -1.4944 H   0  0  0  0  0  0  0  0  0  0  0  0
    4.5588   -1.3487   -3.0699 H   0  0  0  0  0  0  0  0  0  0  0  0
    6.8024   -1.9899   -6.9261 H   0  0  0  0  0  0  0  0  0  0  0  0
    8.3563   -6.1849   -6.3873 H   0  0  0  0  0  0  0  0  0  0  0  0
    7.6489   -6.7954   -4.8983 H   0  0  0  0  0  0  0  0  0  0  0  0
    4.4203   -7.7993   -0.4046 H   0  0  0  0  0  0  0  0  0  0  0  0
    8.1489  -10.3699    0.7216 H   0  0  0  0  0  0  0  0  0  0  0  0
    7.4805  -10.2560    2.4052 H   0  0  0  0  0  0  0  0  0  0  0  0
    8.7337   -5.7737    1.2068 H   0  0  0  0  0  0  0  0  0  0  0  0
  1  2  1  0
  1 29  1  0
  1 30  1  0
  1 31  1  0
  2  3  1  0
  2  4  1  0
  2 32  1  0
  3 33  1  0
  3 34  1  0
  3 35  1  0
  4  5  1  0
  4 36  1  0
  5  6  1  0
  5 37  1  0
  5 38  1  0
  6  7  1  0
  6 39  1  0
  6 40  1  0
  7  8  1  0
  7 41  1  0
  7 42  1  0
  8  9  1  0
  8 17  1  0
  9 10  2  0
  9 15  1  0
 10 11  1  0
 11 12  2  0
 11 43  1  0
 12 13  1  0
 13 14  1  0
 13 15  2  0
 14 44  1  0
 14 45  1  0
 15 16  1  0
 16 17  2  0
 17 18  1  0
 18 19  1  0
 19 20  2  0
 19 27  1  0
 20 21  1  0
 20 46  1  0
 21 22  1  0
 21 25  2  0
 22 23  1  0
 23 24  1  0
 23 47  1  0
 23 48  1  0
 24 25  1  0
 25 26  1  0
 26 27  2  0
 26 49  1  0
 27 28  1  0
M  END

