rmsd228.gzmat
 OpenBabel08211713433D

 49 52  0  0  0  0  0  0  0  0999 V2000
    0.0000    0.0000    0.0000 C   0  0  0  0  0  0  0  0  0  0  0  0
    1.5405    0.0000    0.0000 C   0  0  0  0  0  0  0  0  0  0  0  0
    2.0625    0.0000    1.4468 C   0  0  0  0  0  0  0  0  0  0  0  0
    2.1300   -1.1728   -0.6801 N   0  0  0  0  0  0  0  0  0  0  0  0
    1.8531   -1.2148   -2.1333 C   0  0  0  0  0  0  0  0  0  0  0  0
    2.8217   -2.2101   -2.7961 C   0  0  0  0  0  0  0  0  0  0  0  0
    4.2671   -1.7004   -2.6576 C   0  0  0  0  0  0  0  0  0  0  0  0
    5.1949   -2.5925   -3.3444 N   0  0  0  0  0  0  0  0  0  0  0  0
    5.3566   -2.6301   -4.7172 C   0  0  0  0  0  0  0  0  0  0  0  0
    4.7848   -1.8619   -5.6855 N   0  0  0  0  0  0  0  0  0  0  0  0
    5.1837   -2.1650   -6.9338 C   0  0  0  0  0  0  0  0  0  0  0  0
    6.0660   -3.1328   -7.3026 N   0  0  0  0  0  0  0  0  0  0  0  0
    6.6424   -3.9087   -6.3404 C   0  0  0  0  0  0  0  0  0  0  0  0
    7.5175   -4.8736   -6.7245 N   0  0  0  0  0  0  0  0  0  0  0  0
    6.3047   -3.6806   -4.9774 C   0  0  0  0  0  0  0  0  0  0  0  0
    6.6808   -4.2659   -3.7809 N   0  0  0  0  0  0  0  0  0  0  0  0
    6.0123   -3.6225   -2.8180 C   0  0  0  0  0  0  0  0  0  0  0  0
    6.2235   -3.9865   -1.1122 S   0  0  0  0  0  0  0  0  0  0  0  0
    4.6516   -4.7121   -0.7089 C   0  0  0  0  0  0  0  0  0  0  0  0
    3.7538   -3.9089    0.0210 C   0  0  0  0  0  0  0  0  0  0  0  0
    2.5473   -4.4832    0.3312 C   0  0  0  0  0  0  0  0  0  0  0  0
    1.4899   -3.9104    0.9965 O   0  0  0  0  0  0  0  0  0  0  0  0
    0.4697   -4.9330    1.0396 C   0  0  0  0  0  0  0  0  0  0  0  0
    0.9624   -6.1243    0.3791 O   0  0  0  0  0  0  0  0  0  0  0  0
    2.2214   -5.8078   -0.0479 C   0  0  0  0  0  0  0  0  0  0  0  0
    3.0956   -6.6054   -0.7479 C   0  0  0  0  0  0  0  0  0  0  0  0
    4.3340   -6.0178   -1.0646 C   0  0  0  0  0  0  0  0  0  0  0  0
    5.7324   -7.2075   -2.1128 I   0  0  0  0  0  0  0  0  0  0  0  0
   -0.4021    0.0195   -1.0170 H   0  0  0  0  0  0  0  0  0  0  0  0
   -0.3912    0.8765    0.5252 H   0  0  0  0  0  0  0  0  0  0  0  0
   -0.4007   -0.8862    0.5004 H   0  0  0  0  0  0  0  0  0  0  0  0
    1.9096    0.9185   -0.5250 H   0  0  0  0  0  0  0  0  0  0  0  0
    1.7055   -0.8705    2.0070 H   0  0  0  0  0  0  0  0  0  0  0  0
    1.7425    0.8972    1.9826 H   0  0  0  0  0  0  0  0  0  0  0  0
    3.1598   -0.0318    1.4608 H   0  0  0  0  0  0  0  0  0  0  0  0
    1.8424   -2.0375   -0.2262 H   0  0  0  0  0  0  0  0  0  0  0  0
    2.0044   -0.2001   -2.5635 H   0  0  0  0  0  0  0  0  0  0  0  0
    0.8059   -1.5069   -2.3627 H   0  0  0  0  0  0  0  0  0  0  0  0
    2.5620   -2.3245   -3.8687 H   0  0  0  0  0  0  0  0  0  0  0  0
    2.7197   -3.2141   -2.3456 H   0  0  0  0  0  0  0  0  0  0  0  0
    4.5454   -1.5968   -1.5824 H   0  0  0  0  0  0  0  0  0  0  0  0
    4.3579   -0.6820   -3.1117 H   0  0  0  0  0  0  0  0  0  0  0  0
    4.7517   -1.5698   -7.7574 H   0  0  0  0  0  0  0  0  0  0  0  0
    7.7356   -5.0106   -7.6913 H   0  0  0  0  0  0  0  0  0  0  0  0
    7.9501   -5.4579   -6.0341 H   0  0  0  0  0  0  0  0  0  0  0  0
    3.9886   -2.8809    0.3144 H   0  0  0  0  0  0  0  0  0  0  0  0
   -0.3981   -4.5697    0.4720 H   0  0  0  0  0  0  0  0  0  0  0  0
    0.2935   -5.1875    2.0944 H   0  0  0  0  0  0  0  0  0  0  0  0
    2.8274   -7.6209   -1.0313 H   0  0  0  0  0  0  0  0  0  0  0  0
  1  2  1  0  0  0  0
  1 31  1  0  0  0  0
  1 30  1  0  0  0  0
  2  3  1  0  0  0  0
  3 35  1  0  0  0  0
  3 34  1  0  0  0  0
  3 33  1  0  0  0  0
  4 36  1  0  0  0  0
  4  2  1  0  0  0  0
  5  4  1  0  0  0  0
  6  7  1  0  0  0  0
  6 40  1  0  0  0  0
  6  5  1  0  0  0  0
  7 41  1  0  0  0  0
  8 17  1  0  0  0  0
  8  7  1  0  0  0  0
  9  8  1  0  0  0  0
 10  9  2  0  0  0  0
 11 10  2  0  0  0  0
 12 11  2  0  0  0  0
 12 13  2  0  0  0  0
 13 15  1  0  0  0  0
 14 13  1  0  0  0  0
 14 45  1  0  0  0  0
 15  9  1  0  0  0  0
 15 16  2  0  0  0  0
 16 17  2  0  0  0  0
 17 18  1  0  0  0  0
 18 19  1  0  0  0  0
 19 20  2  0  0  0  0
 20 46  1  0  0  0  0
 20 21  1  0  0  0  0
 21 22  1  0  0  0  0
 22 23  1  0  0  0  0
 23 48  1  0  0  0  0
 24 23  1  0  0  0  0
 25 21  2  0  0  0  0
 25 24  1  0  0  0  0
 26 25  1  0  0  0  0
 27 26  2  0  0  0  0
 27 19  1  0  0  0  0
 28 27  1  0  0  0  0
 29  1  1  0  0  0  0
 32  2  1  0  0  0  0
 37  5  1  0  0  0  0
 38  5  1  0  0  0  0
 39  6  1  0  0  0  0
 42  7  1  0  0  0  0
 43 11  1  0  0  0  0
 44 14  1  0  0  0  0
 47 23  1  0  0  0  0
 49 26  1  0  0  0  0
M  END
$$$$
