49

C         -0.21540       -0.03060       -0.29520
C          1.32210       -0.03920       -0.28420
C          1.85220        0.19520        1.13460
N          1.91210       -1.26060       -0.83010
C          2.24630       -1.30620       -2.23980
C          1.08760       -1.14540       -3.23650
C          1.49900       -1.36210       -4.69200
N          2.00560       -2.70530       -4.95710
C          3.32770       -3.00580       -5.20640
N          4.36140       -2.16630       -5.30610
C          5.50580       -2.80800       -5.54840
N          5.70320       -4.12610       -5.69450
C          4.65450       -4.95740       -5.59360
N          4.84260       -6.28610       -5.74290
C          3.37710       -4.40310       -5.33440
N          2.12390       -4.95270       -5.18640
C          1.33270       -3.92550       -4.95820
S         -0.38870       -4.08250       -4.61030
C         -1.06110       -3.04050       -5.90280
C         -0.53770       -3.16840       -7.21450
C         -1.06070       -2.35470       -8.19530
O         -0.72450       -2.28060       -9.51320
C         -1.57490       -1.29680      -10.10070
O         -2.42560       -0.78860       -9.07230
C         -2.09690       -1.45140       -7.92900
C         -2.64380       -1.32300       -6.66830
C         -2.09820       -2.13250       -5.64680
I         -2.92380       -1.90450       -3.70060
H         -0.62470       -0.15970       -1.30720
H         -0.61500        0.90980        0.11810
H         -0.60250       -0.85460        0.32980
H          1.67830        0.79230       -0.91930
H          1.54250       -0.62970        1.79860
H          1.46840        1.13540        1.56340
H          2.95150        0.22590        1.13140
H          1.37940       -2.08090       -0.54680
H          2.74610       -2.27130       -2.42900
H          3.01060       -0.53580       -2.44850
H          0.65880       -0.13260       -3.16550
H          0.27770       -1.84500       -2.97830
H          2.32120       -0.68610       -4.96950
H          0.65410       -1.16260       -5.36570
H          6.40140       -2.18220       -5.63960
H          5.77690       -6.63480       -5.90810
H          4.06160       -6.91980       -5.64880
H          0.25310       -3.88680       -7.43120
H         -2.18750       -1.76070      -10.89370
H         -0.96360       -0.47620      -10.51550
H         -3.45200       -0.61990       -6.47120
