
     RDKit          3D

 49 52  0  0  0  0  0  0  0  0999 V2000
   -0.2154   -0.0306   -0.2952 C   0  0  0  0  0  0  0  0  0  0  0  0
    1.3221   -0.0392   -0.2842 C   0  0  0  0  0  0  0  0  0  0  0  0
    1.8522    0.1952    1.1346 C   0  0  0  0  0  0  0  0  0  0  0  0
    1.9121   -1.2606   -0.8301 N   0  0  0  0  0  0  0  0  0  0  0  0
    2.2463   -1.3062   -2.2398 C   0  0  0  0  0  0  0  0  0  0  0  0
    1.0876   -1.1454   -3.2365 C   0  0  0  0  0  0  0  0  0  0  0  0
    1.4990   -1.3621   -4.6920 C   0  0  0  0  0  0  0  0  0  0  0  0
    2.0056   -2.7053   -4.9571 N   0  0  0  0  0  0  0  0  0  0  0  0
    3.3277   -3.0058   -5.2064 C   0  0  0  0  0  0  0  0  0  0  0  0
    4.3614   -2.1663   -5.3061 N   0  0  0  0  0  0  0  0  0  0  0  0
    5.5058   -2.8080   -5.5484 C   0  0  0  0  0  0  0  0  0  0  0  0
    5.7032   -4.1261   -5.6945 N   0  0  0  0  0  0  0  0  0  0  0  0
    4.6545   -4.9574   -5.5936 C   0  0  0  0  0  0  0  0  0  0  0  0
    4.8426   -6.2861   -5.7429 N   0  0  0  0  0  0  0  0  0  0  0  0
    3.3771   -4.4031   -5.3344 C   0  0  0  0  0  0  0  0  0  0  0  0
    2.1239   -4.9527   -5.1864 N   0  0  0  0  0  0  0  0  0  0  0  0
    1.3327   -3.9255   -4.9582 C   0  0  0  0  0  0  0  0  0  0  0  0
   -0.3887   -4.0825   -4.6103 S   0  0  0  0  0  0  0  0  0  0  0  0
   -1.0611   -3.0405   -5.9028 C   0  0  0  0  0  0  0  0  0  0  0  0
   -0.5377   -3.1684   -7.2145 C   0  0  0  0  0  0  0  0  0  0  0  0
   -1.0607   -2.3547   -8.1953 C   0  0  0  0  0  0  0  0  0  0  0  0
   -0.7245   -2.2806   -9.5132 O   0  0  0  0  0  0  0  0  0  0  0  0
   -1.5749   -1.2968  -10.1007 C   0  0  0  0  0  0  0  0  0  0  0  0
   -2.4256   -0.7886   -9.0723 O   0  0  0  0  0  0  0  0  0  0  0  0
   -2.0969   -1.4514   -7.9290 C   0  0  0  0  0  0  0  0  0  0  0  0
   -2.6438   -1.3230   -6.6683 C   0  0  0  0  0  0  0  0  0  0  0  0
   -2.0982   -2.1325   -5.6468 C   0  0  0  0  0  0  0  0  0  0  0  0
   -2.9238   -1.9045   -3.7006 I   0  0  0  0  0  0  0  0  0  0  0  0
   -0.6247   -0.1597   -1.3072 H   0  0  0  0  0  0  0  0  0  0  0  0
   -0.6150    0.9098    0.1181 H   0  0  0  0  0  0  0  0  0  0  0  0
   -0.6025   -0.8546    0.3298 H   0  0  0  0  0  0  0  0  0  0  0  0
    1.6783    0.7923   -0.9193 H   0  0  0  0  0  0  0  0  0  0  0  0
    1.5425   -0.6297    1.7986 H   0  0  0  0  0  0  0  0  0  0  0  0
    1.4684    1.1354    1.5634 H   0  0  0  0  0  0  0  0  0  0  0  0
    2.9515    0.2259    1.1314 H   0  0  0  0  0  0  0  0  0  0  0  0
    1.3794   -2.0809   -0.5468 H   0  0  0  0  0  0  0  0  0  0  0  0
    2.7461   -2.2713   -2.4290 H   0  0  0  0  0  0  0  0  0  0  0  0
    3.0106   -0.5358   -2.4485 H   0  0  0  0  0  0  0  0  0  0  0  0
    0.6588   -0.1326   -3.1655 H   0  0  0  0  0  0  0  0  0  0  0  0
    0.2777   -1.8450   -2.9783 H   0  0  0  0  0  0  0  0  0  0  0  0
    2.3212   -0.6861   -4.9695 H   0  0  0  0  0  0  0  0  0  0  0  0
    0.6541   -1.1626   -5.3657 H   0  0  0  0  0  0  0  0  0  0  0  0
    6.4014   -2.1822   -5.6396 H   0  0  0  0  0  0  0  0  0  0  0  0
    5.7769   -6.6348   -5.9081 H   0  0  0  0  0  0  0  0  0  0  0  0
    4.0616   -6.9198   -5.6488 H   0  0  0  0  0  0  0  0  0  0  0  0
    0.2531   -3.8868   -7.4312 H   0  0  0  0  0  0  0  0  0  0  0  0
   -2.1875   -1.7607  -10.8937 H   0  0  0  0  0  0  0  0  0  0  0  0
   -0.9636   -0.4762  -10.5155 H   0  0  0  0  0  0  0  0  0  0  0  0
   -3.4520   -0.6199   -6.4712 H   0  0  0  0  0  0  0  0  0  0  0  0
  1  2  1  0
  1 29  1  0
  1 30  1  0
  1 31  1  0
  2  3  1  0
  2  4  1  0
  2 32  1  0
  3 33  1  0
  3 34  1  0
  3 35  1  0
  4  5  1  0
  4 36  1  0
  5  6  1  0
  5 37  1  0
  5 38  1  0
  6  7  1  0
  6 39  1  0
  6 40  1  0
  7  8  1  0
  7 41  1  0
  7 42  1  0
  8  9  1  0
  8 17  1  0
  9 10  2  0
  9 15  1  0
 10 11  1  0
 11 12  2  0
 11 43  1  0
 12 13  1  0
 13 14  1  0
 13 15  2  0
 14 44  1  0
 14 45  1  0
 15 16  1  0
 16 17  2  0
 17 18  1  0
 18 19  1  0
 19 20  2  0
 19 27  1  0
 20 21  1  0
 20 46  1  0
 21 22  1  0
 21 25  2  0
 22 23  1  0
 23 24  1  0
 23 47  1  0
 23 48  1  0
 24 25  1  0
 25 26  1  0
 26 27  2  0
 26 49  1  0
 27 28  1  0
M  END

