49
rmsd183.gzmat
C          0.00000        0.00000        0.00000
C          1.54140        0.00000        0.00000
C          2.06420        0.00000        1.44740
N          2.12850       -1.18050       -0.67250
C          1.80980       -1.24230       -2.11700
C          2.74100       -2.26550       -2.79550
C          2.65460       -3.68060       -2.19920
N          1.32170       -4.26000       -2.32650
C          0.33900       -4.21090       -1.35630
N          0.40410       -3.77570       -0.06790
C         -0.74230       -3.91120        0.62330
N         -1.92070       -4.40000        0.15830
C         -2.00420       -4.82720       -1.13540
N         -3.19840       -5.29090       -1.58270
C         -0.84640       -4.75990       -1.96090
N         -0.56760       -5.12560       -3.26680
C          0.71850       -4.82620       -3.47600
S          1.60180       -5.21210       -4.94160
C          1.30720       -3.77190       -5.93650
C         -0.01500       -3.33540       -6.14810
C         -0.16460       -2.25830       -6.98490
O         -1.33040       -1.64620       -7.36500
C         -0.92820       -0.58080       -8.25600
O          0.51480       -0.58920       -8.38820
C          0.94280       -1.62200       -7.60120
C          2.23700       -2.03700       -7.39690
C          2.38820       -3.13850       -6.53630
I          4.35040       -3.84190       -6.17020
H         -0.40060        0.11410       -1.01110
H         -0.39440        0.81800        0.60840
H         -0.39560       -0.93630        0.40830
H          1.91340        0.91470       -0.52750
H          1.69540       -0.86620        2.00720
H          1.76150        0.90560        1.97760
H          3.16030       -0.05370        1.45780
H          1.80620       -2.04180       -0.22050
H          1.97750       -0.24190       -2.57250
H          0.74850       -1.50890       -2.31140
H          3.79040       -1.91540       -2.69410
H          2.51740       -2.28120       -3.87730
H          2.92840       -3.65400       -1.11220
H          3.39770       -4.35190       -2.69090
H         -0.73480       -3.58770        1.67960
H         -3.99030       -5.33500       -0.97160
H         -3.28680       -5.61970       -2.52510
H         -0.87430       -3.82490       -5.67970
H         -1.21420        0.37310       -7.79140
H         -1.35550       -0.79100       -9.24630
H          3.07370       -1.53560       -7.87720
