
     RDKit          3D

 49 52  0  0  0  0  0  0  0  0999 V2000
    0.5249    0.5222   -0.2364 C   0  0  0  0  0  0  0  0  0  0  0  0
    2.0481    0.3202   -0.3284 C   0  0  0  0  0  0  0  0  0  0  0  0
    2.6117   -0.1420    1.0177 C   0  0  0  0  0  0  0  0  0  0  0  0
    2.5050   -0.6023   -1.3625 N   0  0  0  0  0  0  0  0  0  0  0  0
    2.4361   -0.2128   -2.7559 C   0  0  0  0  0  0  0  0  0  0  0  0
    1.0950   -0.4230   -3.4759 C   0  0  0  0  0  0  0  0  0  0  0  0
    1.1797   -0.0278   -4.9488 C   0  0  0  0  0  0  0  0  0  0  0  0
   -0.0917   -0.1619   -5.6452 N   0  0  0  0  0  0  0  0  0  0  0  0
   -0.4382   -1.2078   -6.4713 C   0  0  0  0  0  0  0  0  0  0  0  0
    0.3098   -2.2473   -6.8509 N   0  0  0  0  0  0  0  0  0  0  0  0
   -0.3549   -3.0710   -7.6629 C   0  0  0  0  0  0  0  0  0  0  0  0
   -1.6161   -2.9625   -8.1054 N   0  0  0  0  0  0  0  0  0  0  0  0
   -2.3552   -1.9120   -7.7171 C   0  0  0  0  0  0  0  0  0  0  0  0
   -3.6248   -1.7918   -8.1606 N   0  0  0  0  0  0  0  0  0  0  0  0
   -1.7680   -0.9582   -6.8499 C   0  0  0  0  0  0  0  0  0  0  0  0
   -2.2273    0.2111   -6.2869 N   0  0  0  0  0  0  0  0  0  0  0  0
   -1.2149    0.6571   -5.5736 C   0  0  0  0  0  0  0  0  0  0  0  0
   -1.2540    2.1172   -4.5849 S   0  0  0  0  0  0  0  0  0  0  0  0
   -0.0115    3.0842   -5.4446 C   0  0  0  0  0  0  0  0  0  0  0  0
   -0.0353    3.1074   -6.8618 C   0  0  0  0  0  0  0  0  0  0  0  0
    0.9279    3.8524   -7.5061 C   0  0  0  0  0  0  0  0  0  0  0  0
    1.1113    4.0400   -8.8433 O   0  0  0  0  0  0  0  0  0  0  0  0
    2.2949    4.8235   -8.9848 C   0  0  0  0  0  0  0  0  0  0  0  0
    2.6886    5.2502   -7.6804 O   0  0  0  0  0  0  0  0  0  0  0  0
    1.8846    4.5917   -6.7996 C   0  0  0  0  0  0  0  0  0  0  0  0
    1.9185    4.6069   -5.4200 C   0  0  0  0  0  0  0  0  0  0  0  0
    0.9529    3.8252   -4.7471 C   0  0  0  0  0  0  0  0  0  0  0  0
    1.0379    3.8113   -2.6232 I   0  0  0  0  0  0  0  0  0  0  0  0
    0.1129    0.9762   -1.1481 H   0  0  0  0  0  0  0  0  0  0  0  0
    0.2647    1.1823    0.6076 H   0  0  0  0  0  0  0  0  0  0  0  0
    0.0175   -0.4443   -0.0746 H   0  0  0  0  0  0  0  0  0  0  0  0
    2.5031    1.2981   -0.5704 H   0  0  0  0  0  0  0  0  0  0  0  0
    2.1867   -1.1216    1.2985 H   0  0  0  0  0  0  0  0  0  0  0  0
    2.3651    0.5676    1.8230 H   0  0  0  0  0  0  0  0  0  0  0  0
    3.7042   -0.2527    0.9584 H   0  0  0  0  0  0  0  0  0  0  0  0
    2.1370   -1.5403   -1.2113 H   0  0  0  0  0  0  0  0  0  0  0  0
    3.2151   -0.7648   -3.3164 H   0  0  0  0  0  0  0  0  0  0  0  0
    2.7162    0.8526   -2.8216 H   0  0  0  0  0  0  0  0  0  0  0  0
    0.3056    0.1709   -2.9964 H   0  0  0  0  0  0  0  0  0  0  0  0
    0.7964   -1.4835   -3.4058 H   0  0  0  0  0  0  0  0  0  0  0  0
    1.8880   -0.6749   -5.4866 H   0  0  0  0  0  0  0  0  0  0  0  0
    1.5269    1.0109   -5.0498 H   0  0  0  0  0  0  0  0  0  0  0  0
    0.1958   -3.9510   -8.0157 H   0  0  0  0  0  0  0  0  0  0  0  0
   -4.0032   -2.5060   -8.7677 H   0  0  0  0  0  0  0  0  0  0  0  0
   -4.1924   -1.0120   -7.8604 H   0  0  0  0  0  0  0  0  0  0  0  0
   -0.7945    2.5539   -7.4147 H   0  0  0  0  0  0  0  0  0  0  0  0
    2.0850    5.7029   -9.6150 H   0  0  0  0  0  0  0  0  0  0  0  0
    3.0980    4.2081   -9.4320 H   0  0  0  0  0  0  0  0  0  0  0  0
    2.6642    5.1873   -4.8783 H   0  0  0  0  0  0  0  0  0  0  0  0
  1  2  1  0
  1 29  1  0
  1 30  1  0
  1 31  1  0
  2  3  1  0
  2  4  1  0
  2 32  1  0
  3 33  1  0
  3 34  1  0
  3 35  1  0
  4  5  1  0
  4 36  1  0
  5  6  1  0
  5 37  1  0
  5 38  1  0
  6  7  1  0
  6 39  1  0
  6 40  1  0
  7  8  1  0
  7 41  1  0
  7 42  1  0
  8  9  1  0
  8 17  1  0
  9 10  2  0
  9 15  1  0
 10 11  1  0
 11 12  2  0
 11 43  1  0
 12 13  1  0
 13 14  1  0
 13 15  2  0
 14 44  1  0
 14 45  1  0
 15 16  1  0
 16 17  2  0
 17 18  1  0
 18 19  1  0
 19 20  2  0
 19 27  1  0
 20 21  1  0
 20 46  1  0
 21 22  1  0
 21 25  2  0
 22 23  1  0
 23 24  1  0
 23 47  1  0
 23 48  1  0
 24 25  1  0
 25 26  1  0
 26 27  2  0
 26 49  1  0
 27 28  1  0
M  END

