49

C          0.00850        0.27370       -0.03460
C          1.52170        0.05960        0.12790
C          1.89840       -0.01210        1.60800
N          2.05090       -1.12540       -0.54560
C          1.90580       -1.17240       -1.99500
C          2.58400       -2.40820       -2.59790
C          1.75840       -3.70340       -2.58310
N          1.19080       -4.05540       -1.28570
C         -0.03440       -3.62350       -0.82540
N         -0.95210       -2.89180       -1.46520
C         -2.02130       -2.65150       -0.70570
N         -2.24620       -3.04040        0.55830
C         -1.32140       -3.78290        1.18610
N         -1.53750       -4.18110        2.45710
C         -0.13560       -4.11720        0.48540
N          0.98400       -4.84190        0.82390
C          1.75410       -4.79370       -0.24430
S          3.27860       -5.66570       -0.41000
C          4.42960       -4.29170       -0.33470
C          4.28230       -3.35920        0.72000
C          5.12340       -2.27000        0.72900
O          5.18790       -1.24020        1.62160
C          6.08850       -0.28980        1.05730
O          6.81070       -0.95350        0.02090
C          6.11890       -2.09900       -0.23970
C          6.31810       -3.01720       -1.25130
C          5.44100       -4.12290       -1.29060
I          5.68200       -5.47870       -2.90900
H         -0.29390        0.30360       -1.09160
H         -0.30500        1.22140        0.43220
H         -0.55220       -0.54160        0.45150
H          2.03890        0.92890       -0.32220
H          1.39360       -0.87050        2.08570
H          1.58160        0.89550        2.14500
H          2.98080       -0.15000        1.73520
H          1.65010       -1.95600       -0.11540
H          2.40120       -0.27210       -2.39840
H          0.85240       -1.13420       -2.33920
H          3.54320       -2.56200       -2.08670
H          2.81850       -2.21210       -3.65710
H          2.37710       -4.54890       -2.91610
H          0.90090       -3.60780       -3.26490
H         -2.81760       -2.05560       -1.16620
H         -2.41110       -3.94090        2.90560
H         -0.85930       -4.76670        2.92380
H          3.50700       -3.49260        1.47390
H          6.78780        0.06270        1.83010
H          5.51360        0.55330        0.62820
H          7.10240       -2.88010       -1.99450
