49
rmsd87.gzmat
C          0.00000        0.00000        0.00000
C          1.54070        0.00000        0.00000
C          2.06160        0.00000        1.44680
N          2.12440       -1.17390       -0.68380
C          1.92970       -1.15260       -2.15100
C          2.73680       -2.30020       -2.77760
C          4.23980       -2.08030       -2.53030
N          5.00990       -3.21120       -3.03800
C          5.13810       -3.51980       -4.38030
N          4.69780       -2.84400       -5.47710
C          5.01490       -3.42730       -6.64700
N          5.70720       -4.58440       -6.82550
C          6.15180       -5.26960       -5.73310
N          6.84590       -6.41960       -5.93280
C          5.87350       -4.75600       -4.43580
N          6.15120       -5.18450       -3.14880
C          5.63220       -4.26640       -2.32580
S          5.85910       -4.32930       -0.58700
C          4.19310       -4.35730        0.02140
C          3.18140       -5.04950       -0.67060
C          1.92070       -4.96380       -0.13400
O          0.75720       -5.47490       -0.64480
C         -0.27210       -5.09460        0.29790
O          0.31880       -4.29150        1.34780
C          1.65730       -4.25710        1.06460
C          2.64440       -3.61480        1.77250
C          3.92770       -3.67410        1.20300
I          5.49710       -2.64640        2.17760
H         -0.40140        0.02880       -1.01700
H         -0.39130        0.87170        0.53360
H         -0.40070       -0.89040        0.49420
H          1.91230        0.91930       -0.52250
H          1.68770       -0.85820        2.01300
H          1.75830        0.90860        1.97410
H          3.15820       -0.04930        1.46020
H          1.77530       -2.04120       -0.28260
H          2.29010       -0.17550       -2.54310
H          0.86250       -1.24380       -2.44700
H          2.53610       -2.35000       -3.86840
H          2.41340       -3.27340       -2.36390
H          4.43640       -1.92400       -1.44250
H          4.58340       -1.15490       -3.05480
H          4.67910       -2.91960       -7.56820
H          7.02740       -6.75210       -6.85940
H          7.18000       -6.94440       -5.14720
H          3.37620       -5.62070       -1.57980
H         -0.66810       -6.01140        0.75750
H         -0.99610       -4.46320       -0.23510
H          2.42710       -3.08740        2.69840
