
     RDKit          3D

 49 52  0  0  0  0  0  0  0  0999 V2000
   -0.4156   -0.1712   -0.4388 C   0  0  0  0  0  0  0  0  0  0  0  0
    1.0824   -0.1672   -0.0768 C   0  0  0  0  0  0  0  0  0  0  0  0
    1.2554   -0.1247    1.4436 C   0  0  0  0  0  0  0  0  0  0  0  0
    1.8822   -1.2617   -0.5954 N   0  0  0  0  0  0  0  0  0  0  0  0
    2.0917   -1.4408   -2.0092 C   0  0  0  0  0  0  0  0  0  0  0  0
    1.0085   -2.1393   -2.8602 C   0  0  0  0  0  0  0  0  0  0  0  0
    0.6065   -3.5420   -2.3872 C   0  0  0  0  0  0  0  0  0  0  0  0
   -0.3858   -3.5590   -1.3139 N   0  0  0  0  0  0  0  0  0  0  0  0
   -0.1361   -3.7833    0.0196 C   0  0  0  0  0  0  0  0  0  0  0  0
    1.0332   -4.0376    0.6181 N   0  0  0  0  0  0  0  0  0  0  0  0
    0.9073   -4.1654    1.9418 C   0  0  0  0  0  0  0  0  0  0  0  0
   -0.2047   -4.0640    2.6810 N   0  0  0  0  0  0  0  0  0  0  0  0
   -1.3726   -3.8067    2.0693 C   0  0  0  0  0  0  0  0  0  0  0  0
   -2.4978   -3.7001    2.8051 N   0  0  0  0  0  0  0  0  0  0  0  0
   -1.3780   -3.6541    0.6614 C   0  0  0  0  0  0  0  0  0  0  0  0
   -2.3726   -3.3753   -0.2476 N   0  0  0  0  0  0  0  0  0  0  0  0
   -1.7546   -3.3193   -1.4090 C   0  0  0  0  0  0  0  0  0  0  0  0
   -2.5410   -2.9377   -2.9393 S   0  0  0  0  0  0  0  0  0  0  0  0
   -2.3405   -4.5184   -3.7644 C   0  0  0  0  0  0  0  0  0  0  0  0
   -2.6483   -5.6984   -3.0414 C   0  0  0  0  0  0  0  0  0  0  0  0
   -2.4978   -6.9042   -3.6906 C   0  0  0  0  0  0  0  0  0  0  0  0
   -2.7199   -8.1628   -3.2182 O   0  0  0  0  0  0  0  0  0  0  0  0
   -2.4216   -9.0617   -4.2852 C   0  0  0  0  0  0  0  0  0  0  0  0
   -2.0325   -8.2801   -5.4154 O   0  0  0  0  0  0  0  0  0  0  0  0
   -2.0838   -6.9761   -5.0260 C   0  0  0  0  0  0  0  0  0  0  0  0
   -1.7948   -5.8439   -5.7606 C   0  0  0  0  0  0  0  0  0  0  0  0
   -1.9200   -4.6016   -5.0991 C   0  0  0  0  0  0  0  0  0  0  0  0
   -1.4267   -2.8626   -6.2172 I   0  0  0  0  0  0  0  0  0  0  0  0
   -0.5761   -0.1682   -1.5263 H   0  0  0  0  0  0  0  0  0  0  0  0
   -0.9131    0.7245   -0.0315 H   0  0  0  0  0  0  0  0  0  0  0  0
   -0.9247   -1.0519   -0.0193 H   0  0  0  0  0  0  0  0  0  0  0  0
    1.5119    0.7648   -0.4956 H   0  0  0  0  0  0  0  0  0  0  0  0
    0.8319   -1.0342    1.9040 H   0  0  0  0  0  0  0  0  0  0  0  0
    0.7369    0.7416    1.8823 H   0  0  0  0  0  0  0  0  0  0  0  0
    2.3216   -0.0753    1.7093 H   0  0  0  0  0  0  0  0  0  0  0  0
    1.7976   -2.1313   -0.0754 H   0  0  0  0  0  0  0  0  0  0  0  0
    3.0265   -2.0183   -2.1426 H   0  0  0  0  0  0  0  0  0  0  0  0
    2.2871   -0.4499   -2.4578 H   0  0  0  0  0  0  0  0  0  0  0  0
    1.4055   -2.2458   -3.8842 H   0  0  0  0  0  0  0  0  0  0  0  0
    0.1005   -1.5277   -2.9572 H   0  0  0  0  0  0  0  0  0  0  0  0
    1.4780   -4.0919   -2.0013 H   0  0  0  0  0  0  0  0  0  0  0  0
    0.1935   -4.1188   -3.2253 H   0  0  0  0  0  0  0  0  0  0  0  0
    1.8307   -4.3679    2.4965 H   0  0  0  0  0  0  0  0  0  0  0  0
   -2.4363   -3.7774    3.8113 H   0  0  0  0  0  0  0  0  0  0  0  0
   -3.3718   -3.4646    2.3562 H   0  0  0  0  0  0  0  0  0  0  0  0
   -2.9933   -5.6431   -2.0088 H   0  0  0  0  0  0  0  0  0  0  0  0
   -3.3196   -9.6536   -4.5348 H   0  0  0  0  0  0  0  0  0  0  0  0
   -1.5907   -9.7269   -3.9907 H   0  0  0  0  0  0  0  0  0  0  0  0
   -1.4726   -5.9099   -6.7989 H   0  0  0  0  0  0  0  0  0  0  0  0
  1  2  1  0
  1 29  1  0
  1 30  1  0
  1 31  1  0
  2  3  1  0
  2  4  1  0
  2 32  1  0
  3 33  1  0
  3 34  1  0
  3 35  1  0
  4  5  1  0
  4 36  1  0
  5  6  1  0
  5 37  1  0
  5 38  1  0
  6  7  1  0
  6 39  1  0
  6 40  1  0
  7  8  1  0
  7 41  1  0
  7 42  1  0
  8  9  1  0
  8 17  1  0
  9 10  2  0
  9 15  1  0
 10 11  1  0
 11 12  2  0
 11 43  1  0
 12 13  1  0
 13 14  1  0
 13 15  2  0
 14 44  1  0
 14 45  1  0
 15 16  1  0
 16 17  2  0
 17 18  1  0
 18 19  1  0
 19 20  2  0
 19 27  1  0
 20 21  1  0
 20 46  1  0
 21 22  1  0
 21 25  2  0
 22 23  1  0
 23 24  1  0
 23 47  1  0
 23 48  1  0
 24 25  1  0
 25 26  1  0
 26 27  2  0
 26 49  1  0
 27 28  1  0
M  END

