
     RDKit          3D

 49 52  0  0  0  0  0  0  0  0999 V2000
    0.0085    0.2737   -0.0346 C   0  0  0  0  0  0  0  0  0  0  0  0
    1.5217    0.0596    0.1279 C   0  0  0  0  0  0  0  0  0  0  0  0
    1.8984   -0.0121    1.6080 C   0  0  0  0  0  0  0  0  0  0  0  0
    2.0509   -1.1254   -0.5456 N   0  0  0  0  0  0  0  0  0  0  0  0
    1.9058   -1.1724   -1.9950 C   0  0  0  0  0  0  0  0  0  0  0  0
    2.5840   -2.4082   -2.5979 C   0  0  0  0  0  0  0  0  0  0  0  0
    1.7584   -3.7034   -2.5831 C   0  0  0  0  0  0  0  0  0  0  0  0
    1.1908   -4.0554   -1.2857 N   0  0  0  0  0  0  0  0  0  0  0  0
   -0.0344   -3.6235   -0.8254 C   0  0  0  0  0  0  0  0  0  0  0  0
   -0.9521   -2.8918   -1.4652 N   0  0  0  0  0  0  0  0  0  0  0  0
   -2.0213   -2.6515   -0.7057 C   0  0  0  0  0  0  0  0  0  0  0  0
   -2.2462   -3.0404    0.5583 N   0  0  0  0  0  0  0  0  0  0  0  0
   -1.3214   -3.7829    1.1861 C   0  0  0  0  0  0  0  0  0  0  0  0
   -1.5375   -4.1811    2.4571 N   0  0  0  0  0  0  0  0  0  0  0  0
   -0.1356   -4.1172    0.4854 C   0  0  0  0  0  0  0  0  0  0  0  0
    0.9840   -4.8419    0.8239 N   0  0  0  0  0  0  0  0  0  0  0  0
    1.7541   -4.7937   -0.2443 C   0  0  0  0  0  0  0  0  0  0  0  0
    3.2786   -5.6657   -0.4100 S   0  0  0  0  0  0  0  0  0  0  0  0
    4.4296   -4.2917   -0.3347 C   0  0  0  0  0  0  0  0  0  0  0  0
    4.2823   -3.3592    0.7200 C   0  0  0  0  0  0  0  0  0  0  0  0
    5.1234   -2.2700    0.7290 C   0  0  0  0  0  0  0  0  0  0  0  0
    5.1879   -1.2402    1.6216 O   0  0  0  0  0  0  0  0  0  0  0  0
    6.0885   -0.2898    1.0573 C   0  0  0  0  0  0  0  0  0  0  0  0
    6.8107   -0.9535    0.0209 O   0  0  0  0  0  0  0  0  0  0  0  0
    6.1189   -2.0990   -0.2397 C   0  0  0  0  0  0  0  0  0  0  0  0
    6.3181   -3.0172   -1.2513 C   0  0  0  0  0  0  0  0  0  0  0  0
    5.4410   -4.1229   -1.2906 C   0  0  0  0  0  0  0  0  0  0  0  0
    5.6820   -5.4787   -2.9090 I   0  0  0  0  0  0  0  0  0  0  0  0
   -0.2939    0.3036   -1.0916 H   0  0  0  0  0  0  0  0  0  0  0  0
   -0.3050    1.2214    0.4322 H   0  0  0  0  0  0  0  0  0  0  0  0
   -0.5522   -0.5416    0.4515 H   0  0  0  0  0  0  0  0  0  0  0  0
    2.0389    0.9289   -0.3222 H   0  0  0  0  0  0  0  0  0  0  0  0
    1.3936   -0.8705    2.0857 H   0  0  0  0  0  0  0  0  0  0  0  0
    1.5816    0.8955    2.1450 H   0  0  0  0  0  0  0  0  0  0  0  0
    2.9808   -0.1500    1.7352 H   0  0  0  0  0  0  0  0  0  0  0  0
    1.6501   -1.9560   -0.1154 H   0  0  0  0  0  0  0  0  0  0  0  0
    2.4012   -0.2721   -2.3984 H   0  0  0  0  0  0  0  0  0  0  0  0
    0.8524   -1.1342   -2.3392 H   0  0  0  0  0  0  0  0  0  0  0  0
    3.5432   -2.5620   -2.0867 H   0  0  0  0  0  0  0  0  0  0  0  0
    2.8185   -2.2121   -3.6571 H   0  0  0  0  0  0  0  0  0  0  0  0
    2.3771   -4.5489   -2.9161 H   0  0  0  0  0  0  0  0  0  0  0  0
    0.9009   -3.6078   -3.2649 H   0  0  0  0  0  0  0  0  0  0  0  0
   -2.8176   -2.0556   -1.1662 H   0  0  0  0  0  0  0  0  0  0  0  0
   -2.4111   -3.9409    2.9056 H   0  0  0  0  0  0  0  0  0  0  0  0
   -0.8593   -4.7667    2.9238 H   0  0  0  0  0  0  0  0  0  0  0  0
    3.5070   -3.4926    1.4739 H   0  0  0  0  0  0  0  0  0  0  0  0
    6.7878    0.0627    1.8301 H   0  0  0  0  0  0  0  0  0  0  0  0
    5.5136    0.5533    0.6282 H   0  0  0  0  0  0  0  0  0  0  0  0
    7.1024   -2.8801   -1.9945 H   0  0  0  0  0  0  0  0  0  0  0  0
  1  2  1  0
  1 29  1  0
  1 30  1  0
  1 31  1  0
  2  3  1  0
  2  4  1  0
  2 32  1  0
  3 33  1  0
  3 34  1  0
  3 35  1  0
  4  5  1  0
  4 36  1  0
  5  6  1  0
  5 37  1  0
  5 38  1  0
  6  7  1  0
  6 39  1  0
  6 40  1  0
  7  8  1  0
  7 41  1  0
  7 42  1  0
  8  9  1  0
  8 17  1  0
  9 10  2  0
  9 15  1  0
 10 11  1  0
 11 12  2  0
 11 43  1  0
 12 13  1  0
 13 14  1  0
 13 15  2  0
 14 44  1  0
 14 45  1  0
 15 16  1  0
 16 17  2  0
 17 18  1  0
 18 19  1  0
 19 20  2  0
 19 27  1  0
 20 21  1  0
 20 46  1  0
 21 22  1  0
 21 25  2  0
 22 23  1  0
 23 24  1  0
 23 47  1  0
 23 48  1  0
 24 25  1  0
 25 26  1  0
 26 27  2  0
 26 49  1  0
 27 28  1  0
M  END

