rmsd193.gzmat
 OpenBabel08211713433D

 49 51  0  0  0  0  0  0  0  0999 V2000
    0.0000    0.0000    0.0000 C   0  0  0  0  0  0  0  0  0  0  0  0
    1.5409    0.0000    0.0000 C   0  0  0  0  0  0  0  0  0  0  0  0
    2.0625    0.0000    1.4474 C   0  0  0  0  0  0  0  0  0  0  0  0
    2.1282   -1.1737   -0.6790 N   0  0  0  0  0  0  0  0  0  0  0  0
    1.9747   -1.1389   -2.1508 C   0  0  0  0  0  0  0  0  0  0  0  0
    2.7170   -2.3417   -2.7590 C   0  0  0  0  0  0  0  0  0  0  0  0
    4.2053   -2.2710   -2.3754 C   0  0  0  0  0  0  0  0  0  0  0  0
    4.9361   -3.4171   -2.8995 N   0  0  0  0  0  0  0  0  0  0  0  0
    5.6087   -3.4417   -4.1092 C   0  0  0  0  0  0  0  0  0  0  0  0
    5.7830   -2.4539   -5.0289 N   0  0  0  0  0  0  0  0  0  0  0  0
    6.5198   -2.8202   -6.0939 C   0  0  0  0  0  0  0  0  0  0  0  0
    7.0867   -4.0352   -6.3209 N   0  0  0  0  0  0  0  0  0  0  0  0
    6.9179   -5.0313   -5.4037 C   0  0  0  0  0  0  0  0  0  0  0  0
    7.5013   -6.2348   -5.6418 N   0  0  0  0  0  0  0  0  0  0  0  0
    6.1429   -4.7714   -4.2400 C   0  0  0  0  0  0  0  0  0  0  0  0
    5.7624   -5.5310   -3.1441 N   0  0  0  0  0  0  0  0  0  0  0  0
    5.0456   -4.7189   -2.3586 C   0  0  0  0  0  0  0  0  0  0  0  0
    4.3200   -5.1904   -0.8289 S   0  0  0  0  0  0  0  0  0  0  0  0
    5.6296   -6.1446   -0.1033 C   0  0  0  0  0  0  0  0  0  0  0  0
    5.6253   -7.5351   -0.3275 C   0  0  0  0  0  0  0  0  0  0  0  0
    6.6187   -8.2461    0.2988 C   0  0  0  0  0  0  0  0  0  0  0  0
    6.8409   -9.6000    0.2527 O   0  0  0  0  0  0  0  0  0  0  0  0
    8.0066   -9.8206    1.0777 C   0  0  0  0  0  0  0  0  0  0  0  0
    8.4596   -8.5523    1.6128 O   0  0  0  0  0  0  0  0  0  0  0  0
    7.5939   -7.6201    1.1131 C   0  0  0  0  0  0  0  0  0  0  0  0
    7.6160   -6.2613    1.3251 C   0  0  0  0  0  0  0  0  0  0  0  0
    6.5990   -5.5341    0.6836 C   0  0  0  0  0  0  0  0  0  0  0  0
    6.5842   -3.4345    0.9302 I   0  0  0  0  0  0  0  0  0  0  0  0
   -0.4031   -0.0098   -1.0170 H   0  0  0  0  0  0  0  0  0  0  0  0
   -0.3915    0.8926    0.4990 H   0  0  0  0  0  0  0  0  0  0  0  0
   -0.4019   -0.8705    0.5282 H   0  0  0  0  0  0  0  0  0  0  0  0
    1.9098    0.9210   -0.5224 H   0  0  0  0  0  0  0  0  0  0  0  0
    1.6737   -0.8477    2.0201 H   0  0  0  0  0  0  0  0  0  0  0  0
    1.7799    0.9187    1.9684 H   0  0  0  0  0  0  0  0  0  0  0  0
    3.1585   -0.0757    1.4615 H   0  0  0  0  0  0  0  0  0  0  0  0
    1.7702   -2.0440   -0.2909 H   0  0  0  0  0  0  0  0  0  0  0  0
    2.4192   -0.1897   -2.5265 H   0  0  0  0  0  0  0  0  0  0  0  0
    0.9139   -1.1477   -2.4796 H   0  0  0  0  0  0  0  0  0  0  0  0
    2.6050   -2.3343   -3.8612 H   0  0  0  0  0  0  0  0  0  0  0  0
    2.2666   -3.2907   -2.4141 H   0  0  0  0  0  0  0  0  0  0  0  0
    4.3205   -2.2153   -1.2642 H   0  0  0  0  0  0  0  0  0  0  0  0
    4.6648   -1.3369   -2.7860 H   0  0  0  0  0  0  0  0  0  0  0  0
    6.6894   -2.0567   -6.8732 H   0  0  0  0  0  0  0  0  0  0  0  0
    8.0517   -6.3810   -6.4645 H   0  0  0  0  0  0  0  0  0  0  0  0
    7.4056   -6.9758   -4.9737 H   0  0  0  0  0  0  0  0  0  0  0  0
    4.8915   -8.0202   -0.9737 H   0  0  0  0  0  0  0  0  0  0  0  0
    8.8055  -10.2148    0.4342 H   0  0  0  0  0  0  0  0  0  0  0  0
    7.7062  -10.4510    1.9260 H   0  0  0  0  0  0  0  0  0  0  0  0
    8.3806   -5.7993    1.9452 H   0  0  0  0  0  0  0  0  0  0  0  0
  1  2  1  0  0  0  0
  1 30  1  0  0  0  0
  1 31  1  0  0  0  0
  2  3  1  0  0  0  0
  3 35  1  0  0  0  0
  3 34  1  0  0  0  0
  3 33  1  0  0  0  0
  4 36  1  0  0  0  0
  4  2  1  0  0  0  0
  5  4  1  0  0  0  0
  6 40  1  0  0  0  0
  6  7  1  0  0  0  0
  6  5  1  0  0  0  0
  7 41  1  0  0  0  0
  8  7  1  0  0  0  0
  8 17  1  0  0  0  0
  9  8  1  0  0  0  0
 10  9  2  0  0  0  0
 11 10  2  0  0  0  0
 12 11  2  0  0  0  0
 12 13  2  0  0  0  0
 13 15  1  0  0  0  0
 14 13  1  0  0  0  0
 14 45  1  0  0  0  0
 15  9  1  0  0  0  0
 15 16  2  0  0  0  0
 16 17  2  0  0  0  0
 17 18  1  0  0  0  0
 18 19  1  0  0  0  0
 19 27  1  0  0  0  0
 20 19  2  0  0  0  0
 20 21  1  0  0  0  0
 21 25  2  0  0  0  0
 22 21  1  0  0  0  0
 22 23  1  0  0  0  0
 23 24  1  0  0  0  0
 23 48  1  0  0  0  0
 25 26  1  0  0  0  0
 25 24  1  0  0  0  0
 26 49  1  0  0  0  0
 27 28  1  0  0  0  0
 27 26  2  0  0  0  0
 29  1  1  0  0  0  0
 32  2  1  0  0  0  0
 37  5  1  0  0  0  0
 38  5  1  0  0  0  0
 42  7  1  0  0  0  0
 43 11  1  0  0  0  0
 44 14  1  0  0  0  0
 46 20  1  0  0  0  0
 47 23  1  0  0  0  0
M  RAD  2   6   2  39   2
M  END
$$$$
