rmsd122.gzmat
 OpenBabel08211713433D

 49 52  0  0  0  0  0  0  0  0999 V2000
    0.0000    0.0000    0.0000 C   0  0  0  0  0  0  0  0  0  0  0  0
    1.5413    0.0000    0.0000 C   0  0  0  0  0  0  0  0  0  0  0  0
    2.0460    0.0000    1.4559 C   0  0  0  0  0  0  0  0  0  0  0  0
    2.1577   -1.1699   -0.6587 N   0  0  0  0  0  0  0  0  0  0  0  0
    2.1497   -1.1504   -2.1262 C   0  0  0  0  0  0  0  0  0  0  0  0
    0.8485   -1.6164   -2.8171 C   0  0  0  0  0  0  0  0  0  0  0  0
    0.5259   -3.0927   -2.5360 C   0  0  0  0  0  0  0  0  0  0  0  0
   -0.6130   -3.2438   -1.6344 N   0  0  0  0  0  0  0  0  0  0  0  0
   -0.5229   -3.5448   -0.2898 C   0  0  0  0  0  0  0  0  0  0  0  0
    0.5765   -3.7796    0.4753 N   0  0  0  0  0  0  0  0  0  0  0  0
    0.3084   -4.0666    1.7623 C   0  0  0  0  0  0  0  0  0  0  0  0
   -0.9178   -4.1072    2.3457 N   0  0  0  0  0  0  0  0  0  0  0  0
   -2.0279   -3.8501    1.5944 C   0  0  0  0  0  0  0  0  0  0  0  0
   -3.2394   -3.8841    2.2043 N   0  0  0  0  0  0  0  0  0  0  0  0
   -1.8720   -3.5515    0.2109 C   0  0  0  0  0  0  0  0  0  0  0  0
   -2.7436   -3.2457   -0.8204 N   0  0  0  0  0  0  0  0  0  0  0  0
   -1.9909   -3.0504   -1.9074 C   0  0  0  0  0  0  0  0  0  0  0  0
   -2.6275   -2.5696   -3.4703 S   0  0  0  0  0  0  0  0  0  0  0  0
   -2.6718   -4.1324   -4.3133 C   0  0  0  0  0  0  0  0  0  0  0  0
   -3.3386   -5.2200   -3.7165 C   0  0  0  0  0  0  0  0  0  0  0  0
   -3.3503   -6.3867   -4.4385 C   0  0  0  0  0  0  0  0  0  0  0  0
   -3.9282   -7.5805   -4.0953 O   0  0  0  0  0  0  0  0  0  0  0  0
   -3.6372   -8.4744   -5.1943 C   0  0  0  0  0  0  0  0  0  0  0  0
   -2.8810   -7.7596   -6.2026 O   0  0  0  0  0  0  0  0  0  0  0  0
   -2.7282   -6.4944   -5.7082 C   0  0  0  0  0  0  0  0  0  0  0  0
   -2.0838   -5.4363   -6.3032 C   0  0  0  0  0  0  0  0  0  0  0  0
   -2.0743   -4.2416   -5.5621 C   0  0  0  0  0  0  0  0  0  0  0  0
   -1.1189   -2.5577   -6.4146 I   0  0  0  0  0  0  0  0  0  0  0  0
   -0.4061    0.1412   -1.0049 H   0  0  0  0  0  0  0  0  0  0  0  0
   -0.3924    0.8058    0.6280 H   0  0  0  0  0  0  0  0  0  0  0  0
   -0.4005   -0.9393    0.3933 H   0  0  0  0  0  0  0  0  0  0  0  0
    1.9067    0.9241   -0.5158 H   0  0  0  0  0  0  0  0  0  0  0  0
    1.6706   -0.8662    2.0108 H   0  0  0  0  0  0  0  0  0  0  0  0
    1.7329    0.9046    1.9819 H   0  0  0  0  0  0  0  0  0  0  0  0
    3.1417   -0.0522    1.4795 H   0  0  0  0  0  0  0  0  0  0  0  0
    1.7796   -2.0425   -0.2922 H   0  0  0  0  0  0  0  0  0  0  0  0
    2.9929   -1.8074   -2.4490 H   0  0  0  0  0  0  0  0  0  0  0  0
    2.4050   -0.1281   -2.4812 H   0  0  0  0  0  0  0  0  0  0  0  0
    0.9475   -1.4587   -3.9081 H   0  0  0  0  0  0  0  0  0  0  0  0
    0.0104   -0.9633   -2.5064 H   0  0  0  0  0  0  0  0  0  0  0  0
    1.4083   -3.6077   -2.0735 H   0  0  0  0  0  0  0  0  0  0  0  0
    0.3120   -3.6418   -3.4821 H   0  0  0  0  0  0  0  0  0  0  0  0
    1.1692   -4.2807    2.4211 H   0  0  0  0  0  0  0  0  0  0  0  0
   -3.3135   -4.0898    3.1813 H   0  0  0  0  0  0  0  0  0  0  0  0
   -4.0705   -3.6894    1.6793 H   0  0  0  0  0  0  0  0  0  0  0  0
   -3.8200   -5.1448   -2.7378 H   0  0  0  0  0  0  0  0  0  0  0  0
   -4.5927   -8.7751   -5.6457 H   0  0  0  0  0  0  0  0  0  0  0  0
   -3.0002   -9.2835   -4.8102 H   0  0  0  0  0  0  0  0  0  0  0  0
   -1.6161   -5.5367   -7.2794 H   0  0  0  0  0  0  0  0  0  0  0  0
  1 31  1  0  0  0  0
  1 30  1  0  0  0  0
  2  1  1  0  0  0  0
  2  3  1  0  0  0  0
  3 35  1  0  0  0  0
  3 34  1  0  0  0  0
  3 33  1  0  0  0  0
  4 36  1  0  0  0  0
  4  2  1  0  0  0  0
  5  4  1  0  0  0  0
  6  7  1  0  0  0  0
  6 40  1  0  0  0  0
  6  5  1  0  0  0  0
  7 41  1  0  0  0  0
  7  8  1  0  0  0  0
  8  9  1  0  0  0  0
  9 15  1  0  0  0  0
  9 10  2  0  0  0  0
 10 11  2  0  0  0  0
 11 12  2  0  0  0  0
 11 43  1  0  0  0  0
 13 14  1  0  0  0  0
 13 12  2  0  0  0  0
 14 44  1  0  0  0  0
 15 13  1  0  0  0  0
 16 15  2  0  0  0  0
 17  8  1  0  0  0  0
 17 16  2  0  0  0  0
 18 17  1  0  0  0  0
 19 20  1  0  0  0  0
 19 18  1  0  0  0  0
 20 46  1  0  0  0  0
 21 22  1  0  0  0  0
 21 20  2  0  0  0  0
 23 48  1  0  0  0  0
 23 22  1  0  0  0  0
 24 25  1  0  0  0  0
 24 23  1  0  0  0  0
 25 21  1  0  0  0  0
 26 25  2  0  0  0  0
 26 27  1  0  0  0  0
 27 19  2  0  0  0  0
 28 27  1  0  0  0  0
 29  1  1  0  0  0  0
 32  2  1  0  0  0  0
 37  5  1  0  0  0  0
 38  5  1  0  0  0  0
 39  6  1  0  0  0  0
 42  7  1  0  0  0  0
 45 14  1  0  0  0  0
 47 23  1  0  0  0  0
 49 26  1  0  0  0  0
M  END
$$$$
