49

C          0.52490        0.52220       -0.23640
C          2.04810        0.32020       -0.32840
C          2.61170       -0.14200        1.01770
N          2.50500       -0.60230       -1.36250
C          2.43610       -0.21280       -2.75590
C          1.09500       -0.42300       -3.47590
C          1.17970       -0.02780       -4.94880
N         -0.09170       -0.16190       -5.64520
C         -0.43820       -1.20780       -6.47130
N          0.30980       -2.24730       -6.85090
C         -0.35490       -3.07100       -7.66290
N         -1.61610       -2.96250       -8.10540
C         -2.35520       -1.91200       -7.71710
N         -3.62480       -1.79180       -8.16060
C         -1.76800       -0.95820       -6.84990
N         -2.22730        0.21110       -6.28690
C         -1.21490        0.65710       -5.57360
S         -1.25400        2.11720       -4.58490
C         -0.01150        3.08420       -5.44460
C         -0.03530        3.10740       -6.86180
C          0.92790        3.85240       -7.50610
O          1.11130        4.04000       -8.84330
C          2.29490        4.82350       -8.98480
O          2.68860        5.25020       -7.68040
C          1.88460        4.59170       -6.79960
C          1.91850        4.60690       -5.42000
C          0.95290        3.82520       -4.74710
I          1.03790        3.81130       -2.62320
H          0.11290        0.97620       -1.14810
H          0.26470        1.18230        0.60760
H          0.01750       -0.44430       -0.07460
H          2.50310        1.29810       -0.57040
H          2.18670       -1.12160        1.29850
H          2.36510        0.56760        1.82300
H          3.70420       -0.25270        0.95840
H          2.13700       -1.54030       -1.21130
H          3.21510       -0.76480       -3.31640
H          2.71620        0.85260       -2.82160
H          0.30560        0.17090       -2.99640
H          0.79640       -1.48350       -3.40580
H          1.88800       -0.67490       -5.48660
H          1.52690        1.01090       -5.04980
H          0.19580       -3.95100       -8.01570
H         -4.00320       -2.50600       -8.76770
H         -4.19240       -1.01200       -7.86040
H         -0.79450        2.55390       -7.41470
H          2.08500        5.70290       -9.61500
H          3.09800        4.20810       -9.43200
H          2.66420        5.18730       -4.87830
