rmsd87.gzmat
 OpenBabel08211713433D

 49 52  0  0  0  0  0  0  0  0999 V2000
    0.0000    0.0000    0.0000 C   0  0  0  0  0  0  0  0  0  0  0  0
    1.5407    0.0000    0.0000 C   0  0  0  0  0  0  0  0  0  0  0  0
    2.0616    0.0000    1.4468 C   0  0  0  0  0  0  0  0  0  0  0  0
    2.1244   -1.1739   -0.6838 N   0  0  0  0  0  0  0  0  0  0  0  0
    1.9297   -1.1526   -2.1510 C   0  0  0  0  0  0  0  0  0  0  0  0
    2.7368   -2.3002   -2.7776 C   0  0  0  0  0  0  0  0  0  0  0  0
    4.2398   -2.0803   -2.5303 C   0  0  0  0  0  0  0  0  0  0  0  0
    5.0099   -3.2112   -3.0380 N   0  0  0  0  0  0  0  0  0  0  0  0
    5.1381   -3.5198   -4.3803 C   0  0  0  0  0  0  0  0  0  0  0  0
    4.6978   -2.8440   -5.4771 N   0  0  0  0  0  0  0  0  0  0  0  0
    5.0149   -3.4273   -6.6470 C   0  0  0  0  0  0  0  0  0  0  0  0
    5.7072   -4.5844   -6.8255 N   0  0  0  0  0  0  0  0  0  0  0  0
    6.1518   -5.2696   -5.7331 C   0  0  0  0  0  0  0  0  0  0  0  0
    6.8459   -6.4196   -5.9328 N   0  0  0  0  0  0  0  0  0  0  0  0
    5.8735   -4.7560   -4.4358 C   0  0  0  0  0  0  0  0  0  0  0  0
    6.1512   -5.1845   -3.1488 N   0  0  0  0  0  0  0  0  0  0  0  0
    5.6322   -4.2664   -2.3258 C   0  0  0  0  0  0  0  0  0  0  0  0
    5.8591   -4.3293   -0.5870 S   0  0  0  0  0  0  0  0  0  0  0  0
    4.1931   -4.3573    0.0214 C   0  0  0  0  0  0  0  0  0  0  0  0
    3.1814   -5.0495   -0.6706 C   0  0  0  0  0  0  0  0  0  0  0  0
    1.9207   -4.9638   -0.1340 C   0  0  0  0  0  0  0  0  0  0  0  0
    0.7572   -5.4749   -0.6448 O   0  0  0  0  0  0  0  0  0  0  0  0
   -0.2721   -5.0946    0.2979 C   0  0  0  0  0  0  0  0  0  0  0  0
    0.3188   -4.2915    1.3478 O   0  0  0  0  0  0  0  0  0  0  0  0
    1.6573   -4.2571    1.0646 C   0  0  0  0  0  0  0  0  0  0  0  0
    2.6444   -3.6148    1.7725 C   0  0  0  0  0  0  0  0  0  0  0  0
    3.9277   -3.6741    1.2030 C   0  0  0  0  0  0  0  0  0  0  0  0
    5.4971   -2.6464    2.1776 I   0  0  0  0  0  0  0  0  0  0  0  0
   -0.4014    0.0288   -1.0170 H   0  0  0  0  0  0  0  0  0  0  0  0
   -0.3913    0.8717    0.5336 H   0  0  0  0  0  0  0  0  0  0  0  0
   -0.4007   -0.8904    0.4942 H   0  0  0  0  0  0  0  0  0  0  0  0
    1.9123    0.9193   -0.5225 H   0  0  0  0  0  0  0  0  0  0  0  0
    1.6877   -0.8582    2.0130 H   0  0  0  0  0  0  0  0  0  0  0  0
    1.7583    0.9086    1.9741 H   0  0  0  0  0  0  0  0  0  0  0  0
    3.1582   -0.0493    1.4602 H   0  0  0  0  0  0  0  0  0  0  0  0
    1.7753   -2.0412   -0.2826 H   0  0  0  0  0  0  0  0  0  0  0  0
    2.2901   -0.1755   -2.5431 H   0  0  0  0  0  0  0  0  0  0  0  0
    0.8625   -1.2438   -2.4470 H   0  0  0  0  0  0  0  0  0  0  0  0
    2.5361   -2.3500   -3.8684 H   0  0  0  0  0  0  0  0  0  0  0  0
    2.4134   -3.2734   -2.3639 H   0  0  0  0  0  0  0  0  0  0  0  0
    4.4364   -1.9240   -1.4425 H   0  0  0  0  0  0  0  0  0  0  0  0
    4.5834   -1.1549   -3.0548 H   0  0  0  0  0  0  0  0  0  0  0  0
    4.6791   -2.9196   -7.5682 H   0  0  0  0  0  0  0  0  0  0  0  0
    7.0274   -6.7521   -6.8594 H   0  0  0  0  0  0  0  0  0  0  0  0
    7.1800   -6.9444   -5.1472 H   0  0  0  0  0  0  0  0  0  0  0  0
    3.3762   -5.6207   -1.5798 H   0  0  0  0  0  0  0  0  0  0  0  0
   -0.6681   -6.0114    0.7575 H   0  0  0  0  0  0  0  0  0  0  0  0
   -0.9961   -4.4632   -0.2351 H   0  0  0  0  0  0  0  0  0  0  0  0
    2.4271   -3.0874    2.6984 H   0  0  0  0  0  0  0  0  0  0  0  0
  1  2  1  0  0  0  0
  1 31  1  0  0  0  0
  1 30  1  0  0  0  0
  2  3  1  0  0  0  0
  3 35  1  0  0  0  0
  3 34  1  0  0  0  0
  3 33  1  0  0  0  0
  4 36  1  0  0  0  0
  4  2  1  0  0  0  0
  5  4  1  0  0  0  0
  6  7  1  0  0  0  0
  6 40  1  0  0  0  0
  6  5  1  0  0  0  0
  7 41  1  0  0  0  0
  8  7  1  0  0  0  0
  8 17  1  0  0  0  0
  9  8  1  0  0  0  0
 10  9  2  0  0  0  0
 11 10  2  0  0  0  0
 12 11  2  0  0  0  0
 12 13  2  0  0  0  0
 13 15  1  0  0  0  0
 14 13  1  0  0  0  0
 14 45  1  0  0  0  0
 15  9  1  0  0  0  0
 15 16  2  0  0  0  0
 16 17  2  0  0  0  0
 17 18  1  0  0  0  0
 18 19  1  0  0  0  0
 19 27  2  0  0  0  0
 20 21  2  0  0  0  0
 20 19  1  0  0  0  0
 21 25  1  0  0  0  0
 22 21  1  0  0  0  0
 22 23  1  0  0  0  0
 23 47  1  0  0  0  0
 23 24  1  0  0  0  0
 25 24  1  0  0  0  0
 25 26  2  0  0  0  0
 26 49  1  0  0  0  0
 27 26  1  0  0  0  0
 27 28  1  0  0  0  0
 29  1  1  0  0  0  0
 32  2  1  0  0  0  0
 37  5  1  0  0  0  0
 38  5  1  0  0  0  0
 39  6  1  0  0  0  0
 42  7  1  0  0  0  0
 43 11  1  0  0  0  0
 44 14  1  0  0  0  0
 46 20  1  0  0  0  0
 48 23  1  0  0  0  0
M  END
$$$$
