49
rmsd193.gzmat
C          0.00000        0.00000        0.00000
C          1.54090        0.00000        0.00000
C          2.06250        0.00000        1.44740
N          2.12820       -1.17370       -0.67900
C          1.97470       -1.13890       -2.15080
C          2.71700       -2.34170       -2.75900
C          4.20530       -2.27100       -2.37540
N          4.93610       -3.41710       -2.89950
C          5.60870       -3.44170       -4.10920
N          5.78300       -2.45390       -5.02890
C          6.51980       -2.82020       -6.09390
N          7.08670       -4.03520       -6.32090
C          6.91790       -5.03130       -5.40370
N          7.50130       -6.23480       -5.64180
C          6.14290       -4.77140       -4.24000
N          5.76240       -5.53100       -3.14410
C          5.04560       -4.71890       -2.35860
S          4.32000       -5.19040       -0.82890
C          5.62960       -6.14460       -0.10330
C          5.62530       -7.53510       -0.32750
C          6.61870       -8.24610        0.29880
O          6.84090       -9.60000        0.25270
C          8.00660       -9.82060        1.07770
O          8.45960       -8.55230        1.61280
C          7.59390       -7.62010        1.11310
C          7.61600       -6.26130        1.32510
C          6.59900       -5.53410        0.68360
I          6.58420       -3.43450        0.93020
H         -0.40310       -0.00980       -1.01700
H         -0.39150        0.89260        0.49900
H         -0.40190       -0.87050        0.52820
H          1.90980        0.92100       -0.52240
H          1.67370       -0.84770        2.02010
H          1.77990        0.91870        1.96840
H          3.15850       -0.07570        1.46150
H          1.77020       -2.04400       -0.29090
H          2.41920       -0.18970       -2.52650
H          0.91390       -1.14770       -2.47960
H          2.60500       -2.33430       -3.86120
H          2.26660       -3.29070       -2.41410
H          4.32050       -2.21530       -1.26420
H          4.66480       -1.33690       -2.78600
H          6.68940       -2.05670       -6.87320
H          8.05170       -6.38100       -6.46450
H          7.40560       -6.97580       -4.97370
H          4.89150       -8.02020       -0.97370
H          8.80550      -10.21480        0.43420
H          7.70620      -10.45100        1.92600
H          8.38060       -5.79930        1.94520
