rmsd88.gzmat
 OpenBabel08211713433D

 49 52  0  0  0  0  0  0  0  0999 V2000
    0.0000    0.0000    0.0000 C   0  0  0  0  0  0  0  0  0  0  0  0
    1.5423    0.0000    0.0000 C   0  0  0  0  0  0  0  0  0  0  0  0
    2.0531    0.0000    1.4538 C   0  0  0  0  0  0  0  0  0  0  0  0
    2.1368   -1.1780   -0.6632 N   0  0  0  0  0  0  0  0  0  0  0  0
    2.3505   -1.0461   -2.1101 C   0  0  0  0  0  0  0  0  0  0  0  0
    1.0689   -1.1438   -2.9642 C   0  0  0  0  0  0  0  0  0  0  0  0
    1.4028   -1.2408   -4.4582 C   0  0  0  0  0  0  0  0  0  0  0  0
    1.8938   -2.5652   -4.8225 N   0  0  0  0  0  0  0  0  0  0  0  0
    3.2243   -2.8828   -5.0194 C   0  0  0  0  0  0  0  0  0  0  0  0
    4.3292   -2.0924   -4.9370 N   0  0  0  0  0  0  0  0  0  0  0  0
    5.4830   -2.7330   -5.2001 C   0  0  0  0  0  0  0  0  0  0  0  0
    5.6351   -4.0418   -5.5364 N   0  0  0  0  0  0  0  0  0  0  0  0
    4.5326   -4.8398   -5.6297 C   0  0  0  0  0  0  0  0  0  0  0  0
    4.7054   -6.1388   -5.9847 N   0  0  0  0  0  0  0  0  0  0  0  0
    3.2515   -4.2808   -5.3614 C   0  0  0  0  0  0  0  0  0  0  0  0
    1.9598   -4.7805   -5.3602 N   0  0  0  0  0  0  0  0  0  0  0  0
    1.1617   -3.7618   -5.0274 C   0  0  0  0  0  0  0  0  0  0  0  0
   -0.5745   -3.9156   -4.8213 S   0  0  0  0  0  0  0  0  0  0  0  0
   -1.1549   -3.0153   -6.2381 C   0  0  0  0  0  0  0  0  0  0  0  0
   -0.6887   -3.3731   -7.5183 C   0  0  0  0  0  0  0  0  0  0  0  0
   -1.1946   -2.6474   -8.5669 C   0  0  0  0  0  0  0  0  0  0  0  0
   -0.9085   -2.7867   -9.8992 O   0  0  0  0  0  0  0  0  0  0  0  0
   -1.7072   -1.7829  -10.5670 C   0  0  0  0  0  0  0  0  0  0  0  0
   -2.4698   -1.0463   -9.5792 O   0  0  0  0  0  0  0  0  0  0  0  0
   -2.1358   -1.6038   -8.3768 C   0  0  0  0  0  0  0  0  0  0  0  0
   -2.6064   -1.2557   -7.1334 C   0  0  0  0  0  0  0  0  0  0  0  0
   -2.0807   -1.9959   -6.0595 C   0  0  0  0  0  0  0  0  0  0  0  0
   -2.7514   -1.5217   -4.1097 I   0  0  0  0  0  0  0  0  0  0  0  0
   -0.4073    0.0841   -1.0118 H   0  0  0  0  0  0  0  0  0  0  0  0
   -0.3887    0.8424    0.5809 H   0  0  0  0  0  0  0  0  0  0  0  0
   -0.4014   -0.9151    0.4471 H   0  0  0  0  0  0  0  0  0  0  0  0
    1.9105    0.9245   -0.5141 H   0  0  0  0  0  0  0  0  0  0  0  0
    1.6615   -0.8505    2.0195 H   0  0  0  0  0  0  0  0  0  0  0  0
    1.7685    0.9170    1.9745 H   0  0  0  0  0  0  0  0  0  0  0  0
    3.1487   -0.0798    1.4719 H   0  0  0  0  0  0  0  0  0  0  0  0
    1.6429   -2.0335   -0.4305 H   0  0  0  0  0  0  0  0  0  0  0  0
    3.0635   -1.8548   -2.4024 H   0  0  0  0  0  0  0  0  0  0  0  0
    2.8829   -0.0928   -2.3178 H   0  0  0  0  0  0  0  0  0  0  0  0
    0.4335   -0.2540   -2.7937 H   0  0  0  0  0  0  0  0  0  0  0  0
    0.4658   -2.0109   -2.6366 H   0  0  0  0  0  0  0  0  0  0  0  0
    2.1902   -0.4881   -4.7258 H   0  0  0  0  0  0  0  0  0  0  0  0
    0.5109   -0.9957   -5.0805 H   0  0  0  0  0  0  0  0  0  0  0  0
    6.4127   -2.1396   -5.1389 H   0  0  0  0  0  0  0  0  0  0  0  0
    5.6209   -6.5017   -6.1642 H   0  0  0  0  0  0  0  0  0  0  0  0
    3.9131   -6.7488   -6.0524 H   0  0  0  0  0  0  0  0  0  0  0  0
    0.0308   -4.1807   -7.6739 H   0  0  0  0  0  0  0  0  0  0  0  0
   -2.4220   -2.3016  -11.2207 H   0  0  0  0  0  0  0  0  0  0  0  0
   -1.0212   -1.0758  -11.0538 H   0  0  0  0  0  0  0  0  0  0  0  0
   -3.3353   -0.4587   -7.0084 H   0  0  0  0  0  0  0  0  0  0  0  0
  1 31  1  0  0  0  0
  1 30  1  0  0  0  0
  2  1  1  0  0  0  0
  2  3  1  0  0  0  0
  3 35  1  0  0  0  0
  3 34  1  0  0  0  0
  3 33  1  0  0  0  0
  4 36  1  0  0  0  0
  4  2  1  0  0  0  0
  5  4  1  0  0  0  0
  6 39  1  0  0  0  0
  6 40  1  0  0  0  0
  6  5  1  0  0  0  0
  7  6  1  0  0  0  0
  8  7  1  0  0  0  0
  9 10  2  0  0  0  0
  9  8  1  0  0  0  0
 11 43  1  0  0  0  0
 11 10  2  0  0  0  0
 12 11  2  0  0  0  0
 13 12  2  0  0  0  0
 13 15  1  0  0  0  0
 14 13  1  0  0  0  0
 15 16  2  0  0  0  0
 15  9  1  0  0  0  0
 16 17  2  0  0  0  0
 17  8  1  0  0  0  0
 17 18  1  0  0  0  0
 19 27  1  0  0  0  0
 19 18  1  0  0  0  0
 20 19  2  0  0  0  0
 21 25  2  0  0  0  0
 21 20  1  0  0  0  0
 22 21  1  0  0  0  0
 23 22  1  0  0  0  0
 23 24  1  0  0  0  0
 24 25  1  0  0  0  0
 25 26  1  0  0  0  0
 26 49  1  0  0  0  0
 26 27  2  0  0  0  0
 27 28  1  0  0  0  0
 29  1  1  0  0  0  0
 32  2  1  0  0  0  0
 37  5  1  0  0  0  0
 38  5  1  0  0  0  0
 41  7  1  0  0  0  0
 42  7  1  0  0  0  0
 44 14  1  0  0  0  0
 45 14  1  0  0  0  0
 46 20  1  0  0  0  0
 47 23  1  0  0  0  0
 48 23  1  0  0  0  0
M  END
$$$$
