rmsd103.gzmat
 OpenBabel08211713433D

 49 52  0  0  0  0  0  0  0  0999 V2000
    0.0000    0.0000    0.0000 C   0  0  0  0  0  0  0  0  0  0  0  0
    1.5418    0.0000    0.0000 C   0  0  0  0  0  0  0  0  0  0  0  0
    2.0478    0.0000    1.4555 C   0  0  0  0  0  0  0  0  0  0  0  0
    2.1618   -1.1663   -0.6633 N   0  0  0  0  0  0  0  0  0  0  0  0
    2.0307   -1.2106   -2.1254 C   0  0  0  0  0  0  0  0  0  0  0  0
    0.7252   -1.8223   -2.6820 C   0  0  0  0  0  0  0  0  0  0  0  0
    0.5577   -3.3032   -2.3026 C   0  0  0  0  0  0  0  0  0  0  0  0
   -0.5305   -3.4988   -1.3485 N   0  0  0  0  0  0  0  0  0  0  0  0
   -0.3750   -3.6474    0.0157 C   0  0  0  0  0  0  0  0  0  0  0  0
    0.7610   -3.7048    0.7607 N   0  0  0  0  0  0  0  0  0  0  0  0
    0.5548   -3.8757    2.0797 C   0  0  0  0  0  0  0  0  0  0  0  0
   -0.6456   -3.9629    2.7091 N   0  0  0  0  0  0  0  0  0  0  0  0
   -1.7944   -3.8874    1.9755 C   0  0  0  0  0  0  0  0  0  0  0  0
   -2.9813   -3.9671    2.6278 N   0  0  0  0  0  0  0  0  0  0  0  0
   -1.7033   -3.7239    0.5643 C   0  0  0  0  0  0  0  0  0  0  0  0
   -2.6289   -3.6120   -0.4592 N   0  0  0  0  0  0  0  0  0  0  0  0
   -1.9285   -3.4641   -1.5873 C   0  0  0  0  0  0  0  0  0  0  0  0
   -2.6505   -3.2258   -3.1684 S   0  0  0  0  0  0  0  0  0  0  0  0
   -2.4156   -4.8293   -3.8949 C   0  0  0  0  0  0  0  0  0  0  0  0
   -2.7275   -5.9880   -3.1570 C   0  0  0  0  0  0  0  0  0  0  0  0
   -2.5422   -7.1825   -3.8062 C   0  0  0  0  0  0  0  0  0  0  0  0
   -2.7593   -8.4443   -3.3195 O   0  0  0  0  0  0  0  0  0  0  0  0
   -2.4033   -9.3361   -4.4014 C   0  0  0  0  0  0  0  0  0  0  0  0
   -1.9880   -8.5532   -5.5477 O   0  0  0  0  0  0  0  0  0  0  0  0
   -2.0793   -7.2496   -5.1452 C   0  0  0  0  0  0  0  0  0  0  0  0
   -1.7816   -6.1253   -5.8769 C   0  0  0  0  0  0  0  0  0  0  0  0
   -1.9558   -4.9034   -5.2034 C   0  0  0  0  0  0  0  0  0  0  0  0
   -1.4867   -3.1226   -6.2439 I   0  0  0  0  0  0  0  0  0  0  0  0
   -0.4057    0.2108   -0.9933 H   0  0  0  0  0  0  0  0  0  0  0  0
   -0.3925    0.7622    0.6805 H   0  0  0  0  0  0  0  0  0  0  0  0
   -0.4002   -0.9637    0.3299 H   0  0  0  0  0  0  0  0  0  0  0  0
    1.9075    0.9229   -0.5181 H   0  0  0  0  0  0  0  0  0  0  0  0
    1.6287   -0.8355    2.0264 H   0  0  0  0  0  0  0  0  0  0  0  0
    1.7840    0.9292    1.9661 H   0  0  0  0  0  0  0  0  0  0  0  0
    3.1401   -0.1069    1.4804 H   0  0  0  0  0  0  0  0  0  0  0  0
    1.8545   -2.0379   -0.2323 H   0  0  0  0  0  0  0  0  0  0  0  0
    2.9012   -1.8046   -2.4952 H   0  0  0  0  0  0  0  0  0  0  0  0
    2.1595   -0.1869   -2.5397 H   0  0  0  0  0  0  0  0  0  0  0  0
    0.7200   -1.7168   -3.7838 H   0  0  0  0  0  0  0  0  0  0  0  0
   -0.1411   -1.2279   -2.3333 H   0  0  0  0  0  0  0  0  0  0  0  0
    1.4997   -3.7055   -1.8471 H   0  0  0  0  0  0  0  0  0  0  0  0
    0.3642   -3.9252   -3.2078 H   0  0  0  0  0  0  0  0  0  0  0  0
    1.4492   -3.9409    2.7257 H   0  0  0  0  0  0  0  0  0  0  0  0
   -3.0111   -4.0768    3.6225 H   0  0  0  0  0  0  0  0  0  0  0  0
   -3.8398   -3.9052    2.1147 H   0  0  0  0  0  0  0  0  0  0  0  0
   -3.0974   -5.9460   -2.1297 H   0  0  0  0  0  0  0  0  0  0  0  0
   -3.3058   -9.8938   -4.6876 H   0  0  0  0  0  0  0  0  0  0  0  0
   -1.5404   -9.9346   -4.0758 H   0  0  0  0  0  0  0  0  0  0  0  0
   -1.4318   -6.1955   -6.9037 H   0  0  0  0  0  0  0  0  0  0  0  0
  1 31  1  0  0  0  0
  1 30  1  0  0  0  0
  2  1  1  0  0  0  0
  2  3  1  0  0  0  0
  3 35  1  0  0  0  0
  3 34  1  0  0  0  0
  3 33  1  0  0  0  0
  4 36  1  0  0  0  0
  4  2  1  0  0  0  0
  5  4  1  0  0  0  0
  6 40  1  0  0  0  0
  6  7  1  0  0  0  0
  6  5  1  0  0  0  0
  7 41  1  0  0  0  0
  7  8  1  0  0  0  0
  8  9  1  0  0  0  0
  9 15  1  0  0  0  0
  9 10  2  0  0  0  0
 10 11  2  0  0  0  0
 11 12  2  0  0  0  0
 11 43  1  0  0  0  0
 13 14  1  0  0  0  0
 13 12  2  0  0  0  0
 14 44  1  0  0  0  0
 15 13  1  0  0  0  0
 16 15  2  0  0  0  0
 17  8  1  0  0  0  0
 17 16  2  0  0  0  0
 18 17  1  0  0  0  0
 19 18  1  0  0  0  0
 19 20  2  0  0  0  0
 20 46  1  0  0  0  0
 21 22  1  0  0  0  0
 21 20  1  0  0  0  0
 23 48  1  0  0  0  0
 23 22  1  0  0  0  0
 24 25  1  0  0  0  0
 24 23  1  0  0  0  0
 25 21  2  0  0  0  0
 26 27  2  0  0  0  0
 26 25  1  0  0  0  0
 27 19  1  0  0  0  0
 28 27  1  0  0  0  0
 29  1  1  0  0  0  0
 32  2  1  0  0  0  0
 37  5  1  0  0  0  0
 38  5  1  0  0  0  0
 39  6  1  0  0  0  0
 42  7  1  0  0  0  0
 45 14  1  0  0  0  0
 47 23  1  0  0  0  0
 49 26  1  0  0  0  0
M  END
$$$$
