rmsd183.gzmat
 OpenBabel08211713433D

 49 52  0  0  0  0  0  0  0  0999 V2000
    0.0000    0.0000    0.0000 C   0  0  0  0  0  0  0  0  0  0  0  0
    1.5414    0.0000    0.0000 C   0  0  0  0  0  0  0  0  0  0  0  0
    2.0642    0.0000    1.4474 C   0  0  0  0  0  0  0  0  0  0  0  0
    2.1285   -1.1805   -0.6725 N   0  0  0  0  0  0  0  0  0  0  0  0
    1.8098   -1.2423   -2.1170 C   0  0  0  0  0  0  0  0  0  0  0  0
    2.7410   -2.2655   -2.7955 C   0  0  0  0  0  0  0  0  0  0  0  0
    2.6546   -3.6806   -2.1992 C   0  0  0  0  0  0  0  0  0  0  0  0
    1.3217   -4.2600   -2.3265 N   0  0  0  0  0  0  0  0  0  0  0  0
    0.3390   -4.2109   -1.3563 C   0  0  0  0  0  0  0  0  0  0  0  0
    0.4041   -3.7757   -0.0679 N   0  0  0  0  0  0  0  0  0  0  0  0
   -0.7423   -3.9112    0.6233 C   0  0  0  0  0  0  0  0  0  0  0  0
   -1.9207   -4.4000    0.1583 N   0  0  0  0  0  0  0  0  0  0  0  0
   -2.0042   -4.8272   -1.1354 C   0  0  0  0  0  0  0  0  0  0  0  0
   -3.1984   -5.2909   -1.5827 N   0  0  0  0  0  0  0  0  0  0  0  0
   -0.8464   -4.7599   -1.9609 C   0  0  0  0  0  0  0  0  0  0  0  0
   -0.5676   -5.1256   -3.2668 N   0  0  0  0  0  0  0  0  0  0  0  0
    0.7185   -4.8262   -3.4760 C   0  0  0  0  0  0  0  0  0  0  0  0
    1.6018   -5.2121   -4.9416 S   0  0  0  0  0  0  0  0  0  0  0  0
    1.3072   -3.7719   -5.9365 C   0  0  0  0  0  0  0  0  0  0  0  0
   -0.0150   -3.3354   -6.1481 C   0  0  0  0  0  0  0  0  0  0  0  0
   -0.1646   -2.2583   -6.9849 C   0  0  0  0  0  0  0  0  0  0  0  0
   -1.3304   -1.6462   -7.3650 O   0  0  0  0  0  0  0  0  0  0  0  0
   -0.9282   -0.5808   -8.2560 C   0  0  0  0  0  0  0  0  0  0  0  0
    0.5148   -0.5892   -8.3882 O   0  0  0  0  0  0  0  0  0  0  0  0
    0.9428   -1.6220   -7.6012 C   0  0  0  0  0  0  0  0  0  0  0  0
    2.2370   -2.0370   -7.3969 C   0  0  0  0  0  0  0  0  0  0  0  0
    2.3882   -3.1385   -6.5363 C   0  0  0  0  0  0  0  0  0  0  0  0
    4.3504   -3.8419   -6.1702 I   0  0  0  0  0  0  0  0  0  0  0  0
   -0.4006    0.1141   -1.0111 H   0  0  0  0  0  0  0  0  0  0  0  0
   -0.3944    0.8180    0.6084 H   0  0  0  0  0  0  0  0  0  0  0  0
   -0.3956   -0.9363    0.4083 H   0  0  0  0  0  0  0  0  0  0  0  0
    1.9134    0.9147   -0.5275 H   0  0  0  0  0  0  0  0  0  0  0  0
    1.6954   -0.8662    2.0072 H   0  0  0  0  0  0  0  0  0  0  0  0
    1.7615    0.9056    1.9776 H   0  0  0  0  0  0  0  0  0  0  0  0
    3.1603   -0.0537    1.4578 H   0  0  0  0  0  0  0  0  0  0  0  0
    1.8062   -2.0418   -0.2205 H   0  0  0  0  0  0  0  0  0  0  0  0
    1.9775   -0.2419   -2.5725 H   0  0  0  0  0  0  0  0  0  0  0  0
    0.7485   -1.5089   -2.3114 H   0  0  0  0  0  0  0  0  0  0  0  0
    3.7904   -1.9154   -2.6941 H   0  0  0  0  0  0  0  0  0  0  0  0
    2.5174   -2.2812   -3.8773 H   0  0  0  0  0  0  0  0  0  0  0  0
    2.9284   -3.6540   -1.1122 H   0  0  0  0  0  0  0  0  0  0  0  0
    3.3977   -4.3519   -2.6909 H   0  0  0  0  0  0  0  0  0  0  0  0
   -0.7348   -3.5877    1.6796 H   0  0  0  0  0  0  0  0  0  0  0  0
   -3.9903   -5.3350   -0.9716 H   0  0  0  0  0  0  0  0  0  0  0  0
   -3.2868   -5.6197   -2.5251 H   0  0  0  0  0  0  0  0  0  0  0  0
   -0.8743   -3.8249   -5.6797 H   0  0  0  0  0  0  0  0  0  0  0  0
   -1.2142    0.3731   -7.7914 H   0  0  0  0  0  0  0  0  0  0  0  0
   -1.3555   -0.7910   -9.2463 H   0  0  0  0  0  0  0  0  0  0  0  0
    3.0737   -1.5356   -7.8772 H   0  0  0  0  0  0  0  0  0  0  0  0
  1 31  1  0  0  0  0
  1 30  1  0  0  0  0
  2  1  1  0  0  0  0
  2  3  1  0  0  0  0
  3 35  1  0  0  0  0
  3 34  1  0  0  0  0
  3 33  1  0  0  0  0
  4 36  1  0  0  0  0
  4  2  1  0  0  0  0
  5  4  1  0  0  0  0
  6 39  1  0  0  0  0
  6  7  1  0  0  0  0
  6  5  1  0  0  0  0
  7 41  1  0  0  0  0
  8  7  1  0  0  0  0
  8  9  1  0  0  0  0
  9 10  2  0  0  0  0
 10 11  2  0  0  0  0
 11 43  1  0  0  0  0
 12 11  2  0  0  0  0
 13 12  2  0  0  0  0
 14 13  1  0  0  0  0
 14 44  1  0  0  0  0
 15  9  1  0  0  0  0
 15 13  1  0  0  0  0
 16 15  2  0  0  0  0
 17 16  2  0  0  0  0
 17  8  1  0  0  0  0
 18 17  1  0  0  0  0
 19 18  1  0  0  0  0
 20 19  1  0  0  0  0
 20 46  1  0  0  0  0
 21 20  2  0  0  0  0
 22 21  1  0  0  0  0
 23 47  1  0  0  0  0
 23 22  1  0  0  0  0
 24 23  1  0  0  0  0
 24 25  1  0  0  0  0
 25 26  2  0  0  0  0
 25 21  1  0  0  0  0
 26 27  1  0  0  0  0
 27 28  1  0  0  0  0
 27 19  2  0  0  0  0
 29  1  1  0  0  0  0
 32  2  1  0  0  0  0
 37  5  1  0  0  0  0
 38  5  1  0  0  0  0
 40  6  1  0  0  0  0
 42  7  1  0  0  0  0
 45 14  1  0  0  0  0
 48 23  1  0  0  0  0
 49 26  1  0  0  0  0
M  END
$$$$
