49
rmsd4.gzmat
C          0.00000        0.00000        0.00000
C          1.53970        0.00000        0.00000
C          2.05060        0.00000        1.45070
N          2.13760       -1.17530       -0.67310
C          1.87810       -1.21560       -2.13360
C          2.52520       -2.48470       -2.71760
C          1.59020       -3.70700       -2.74120
N          1.07610       -4.06170       -1.42210
C         -0.14010       -3.62480       -0.92640
N         -1.15310       -2.96980       -1.55640
C         -2.20930       -2.70150       -0.76670
N         -2.34290       -3.00330        0.55180
C         -1.33630       -3.66490        1.19200
N         -1.48080       -3.94040        2.51280
C         -0.16990       -4.01760        0.45810
N          1.00870       -4.67160        0.77500
C          1.74430       -4.69120       -0.34020
S          3.28950       -5.51600       -0.46550
C          4.41630       -4.15890       -0.26040
C          4.26540       -3.29100        0.83870
C          5.14790       -2.24190        0.89990
O          5.21580       -1.25350        1.84740
C          6.26020       -0.36340        1.39270
O          6.88230       -0.92390        0.21020
C          6.15970       -2.04920       -0.07520
C          6.33900       -2.91140       -1.13020
C          5.42550       -3.97760       -1.19720
I          5.60490       -5.33260       -2.81270
H         -0.40600       -0.00530       -1.01650
H         -0.39320        0.88470        0.50970
H         -0.40070       -0.87770        0.51760
H          1.91340        0.91440       -0.52790
H          1.62270       -0.82450        2.02990
H          1.79820        0.93510        1.95640
H          3.14200       -0.12170        1.47760
H          1.81100       -2.03610       -0.24600
H          2.34620       -0.31270       -2.58380
H          0.79500       -1.18360       -2.38510
H          3.45180       -2.70400       -2.14900
H          2.85970       -2.28370       -3.75440
H          2.12040       -4.58790       -3.17520
H          0.71260       -3.49840       -3.40700
H         -3.06240       -2.17440       -1.23050
H         -2.32090       -3.69050        2.99710
H         -0.76700       -4.45120        2.99730
H          3.48710       -3.42990        1.59260
H          7.02380       -0.31560        2.17980
H          5.79090        0.58820        1.10220
H          7.12990       -2.75740       -1.85900
