rmsd52.gzmat
 OpenBabel08211713373D

 30 32  0  0  0  0  0  0  0  0999 V2000
    0.0000    0.0000    0.0000 O   0  0  0  0  0  0  0  0  0  0  0  0
    1.7035    0.0000    0.0000 S   0  0  0  0  0  0  0  0  0  0  0  0
    1.7861    0.0000    1.7585 C   0  0  0  0  0  0  0  0  0  0  0  0
    3.0224    0.0069    2.4832 C   0  0  0  0  0  0  0  0  0  0  0  0
    4.3991   -0.7683    1.6540 S   0  0  0  0  0  0  0  0  0  0  0  0
    4.0651   -2.5477    1.9906 C   0  0  0  0  0  0  0  0  0  0  0  0
    4.3802   -2.8503    3.4109 C   0  0  0  0  0  0  0  0  0  0  0  0
    3.3653   -2.8432    4.3723 C   0  0  0  0  0  0  0  0  0  0  0  0
    3.6625   -3.1027    5.7086 C   0  0  0  0  0  0  0  0  0  0  0  0
    4.9794   -3.3725    6.0609 C   0  0  0  0  0  0  0  0  0  0  0  0
    5.3911   -3.7299    7.8788 Br  0  0  0  0  0  0  0  0  0  0  0  0
    6.0038   -3.3945    5.1221 C   0  0  0  0  0  0  0  0  0  0  0  0
    5.6964   -3.1324    3.7892 C   0  0  0  0  0  0  0  0  0  0  0  0
    3.2029    0.5631    3.6987 C   0  0  0  0  0  0  0  0  0  0  0  0
    2.1957    1.2694    4.4701 C   0  0  0  0  0  0  0  0  0  0  0  0
    0.8827    1.0016    4.4934 C   0  0  0  0  0  0  0  0  0  0  0  0
    0.2334   -0.0776    3.7121 C   0  0  0  0  0  0  0  0  0  0  0  0
   -0.4739   -0.9099    4.2161 O   0  0  0  0  0  0  0  0  0  0  0  0
    0.5334   -0.0223    2.2764 C   0  0  0  0  0  0  0  0  0  0  0  0
   -0.5437   -0.0085    1.2765 C   0  0  0  0  0  0  0  0  0  0  0  0
   -1.7322    0.0266    1.3773 O   0  0  0  0  0  0  0  0  0  0  0  0
    4.7006   -3.1242    1.2863 H   0  0  0  0  0  0  0  0  0  0  0  0
    3.0199   -2.8077    1.7278 H   0  0  0  0  0  0  0  0  0  0  0  0
    2.3331   -2.6403    4.0836 H   0  0  0  0  0  0  0  0  0  0  0  0
    2.8632   -3.0943    6.4519 H   0  0  0  0  0  0  0  0  0  0  0  0
    7.0331   -3.6132    5.4073 H   0  0  0  0  0  0  0  0  0  0  0  0
    6.4896   -3.1446    3.0425 H   0  0  0  0  0  0  0  0  0  0  0  0
    4.1923    0.5296    4.1850 H   0  0  0  0  0  0  0  0  0  0  0  0
    2.5972    2.0739    5.1028 H   0  0  0  0  0  0  0  0  0  0  0  0
    0.1877    1.5664    5.1241 H   0  0  0  0  0  0  0  0  0  0  0  0
  1 20  1  0  0  0  0
  2  1  1  0  0  0  0
  2  3  1  0  0  0  0
  3 19  2  0  0  0  0
  3  4  1  0  0  0  0
  4 14  2  0  0  0  0
  5  6  1  0  0  0  0
  5  4  1  0  0  0  0
  6  7  1  0  0  0  0
  7 13  2  0  0  0  0
  7  8  1  0  0  0  0
  8  9  2  0  0  0  0
  9 10  1  0  0  0  0
  9 25  1  0  0  0  0
 10 11  1  0  0  0  0
 12 26  1  0  0  0  0
 12 10  2  0  0  0  0
 13 12  1  0  0  0  0
 14 28  1  0  0  0  0
 14 15  1  0  0  0  0
 15 16  2  0  0  0  0
 15 29  1  0  0  0  0
 16 30  1  0  0  0  0
 17 18  2  0  0  0  0
 17 16  1  0  0  0  0
 19 17  1  0  0  0  0
 20 21  2  0  0  0  0
 20 19  1  0  0  0  0
 22  6  1  0  0  0  0
 23  6  1  0  0  0  0
 24  8  1  0  0  0  0
 27 13  1  0  0  0  0
M  END
$$$$
