30

O          0.04940       -0.58940        0.15180
S          1.74460       -0.62260        0.20090
C          1.75200       -0.15230        1.89040
C          3.04760       -0.02430        2.50490
S          4.40470       -0.70810        1.55660
C          4.15280       -2.53810        1.95550
C          3.60520       -2.71330        3.33620
C          2.22370       -2.85600        3.53010
C          1.66210       -2.80280        4.80690
C          2.50050       -2.61830        5.90800
Br         1.74750       -2.47340        7.64820
C          3.88640       -2.51800        5.74620
C          4.42810       -2.56000        4.46180
C          3.29550        0.53470        3.72330
C          2.34970        1.05090        4.67640
C          0.99920        0.90950        4.71130
C          0.09340        0.16420        3.80730
O         -0.97320       -0.23960        4.23920
C          0.48060       -0.03140        2.39450
C         -0.56310       -0.27190        1.36480
O         -1.75270       -0.20970        1.43550
H          5.15800       -2.96580        1.83480
H          3.48540       -2.95680        1.19140
H          1.56700       -2.97530        2.66580
H          0.58190       -2.87380        4.93970
H          4.53040       -2.38940        6.61720
H          5.50650       -2.43830        4.33020
H          4.34570        0.58730        4.01940
H          2.80260        1.57040        5.52620
H          0.46390        1.30850        5.57810
