30
rmsd143.gzmat
O          0.00000        0.00000        0.00000
S          1.70330        0.00000        0.00000
C          1.78660        0.00000        1.75880
C          3.02410        0.00590        2.47970
S          4.41160       -0.75920        1.65430
C          4.15790       -2.55460        2.01630
C          3.53550       -2.72820        3.35400
C          2.16340       -2.97560        3.45590
C          1.55010       -3.03260        4.70570
C          2.33150       -2.85600        5.84070
Br         1.49860       -2.86700        7.54340
C          3.70550       -2.65950        5.76630
C          4.30780       -2.59790        4.51230
C          3.20380        0.54550        3.70310
C          2.19790        1.22310        4.49970
C          0.88510        0.95400        4.52290
C          0.22230       -0.09120        3.70950
O         -0.51510       -0.91300        4.18960
C          0.53360       -0.02340        2.27690
C         -0.54390       -0.00980        1.27630
O         -1.73250        0.02240        1.37660
H          5.15940       -3.02790        1.95690
H          3.55380       -3.01080        1.20720
H          1.55990       -3.11170        2.55770
H          0.46890       -3.19360        4.77270
H          4.31250       -2.54980        6.66500
H          5.38300       -2.43900        4.43790
H          4.19590        0.51010        4.18430
H          2.60120        2.00210        5.16300
H          0.19870        1.49100        5.18820
