
     RDKit          3D

 30 32  0  0  0  0  0  0  0  0999 V2000
    0.0494   -0.5894    0.1518 O   0  0  0  0  0  0  0  0  0  0  0  0
    1.7446   -0.6226    0.2009 S   0  0  0  0  0  0  0  0  0  0  0  0
    1.7520   -0.1523    1.8904 C   0  0  0  0  0  0  0  0  0  0  0  0
    3.0476   -0.0243    2.5049 C   0  0  0  0  0  0  0  0  0  0  0  0
    4.4047   -0.7081    1.5566 S   0  0  0  0  0  0  0  0  0  0  0  0
    4.1528   -2.5381    1.9555 C   0  0  0  0  0  0  0  0  0  0  0  0
    3.6052   -2.7133    3.3362 C   0  0  0  0  0  0  0  0  0  0  0  0
    2.2237   -2.8560    3.5301 C   0  0  0  0  0  0  0  0  0  0  0  0
    1.6621   -2.8028    4.8069 C   0  0  0  0  0  0  0  0  0  0  0  0
    2.5005   -2.6183    5.9080 C   0  0  0  0  0  0  0  0  0  0  0  0
    1.7475   -2.4734    7.6482 Br  0  0  0  0  0  0  0  0  0  0  0  0
    3.8864   -2.5180    5.7462 C   0  0  0  0  0  0  0  0  0  0  0  0
    4.4281   -2.5600    4.4618 C   0  0  0  0  0  0  0  0  0  0  0  0
    3.2955    0.5347    3.7233 C   0  0  0  0  0  0  0  0  0  0  0  0
    2.3497    1.0509    4.6764 C   0  0  0  0  0  0  0  0  0  0  0  0
    0.9992    0.9095    4.7113 C   0  0  0  0  0  0  0  0  0  0  0  0
    0.0934    0.1642    3.8073 C   0  0  0  0  0  0  0  0  0  0  0  0
   -0.9732   -0.2396    4.2392 O   0  0  0  0  0  0  0  0  0  0  0  0
    0.4806   -0.0314    2.3945 C   0  0  0  0  0  0  0  0  0  0  0  0
   -0.5631   -0.2719    1.3648 C   0  0  0  0  0  0  0  0  0  0  0  0
   -1.7527   -0.2097    1.4355 O   0  0  0  0  0  0  0  0  0  0  0  0
    5.1580   -2.9658    1.8348 H   0  0  0  0  0  0  0  0  0  0  0  0
    3.4854   -2.9568    1.1914 H   0  0  0  0  0  0  0  0  0  0  0  0
    1.5670   -2.9753    2.6658 H   0  0  0  0  0  0  0  0  0  0  0  0
    0.5819   -2.8738    4.9397 H   0  0  0  0  0  0  0  0  0  0  0  0
    4.5304   -2.3894    6.6172 H   0  0  0  0  0  0  0  0  0  0  0  0
    5.5065   -2.4383    4.3302 H   0  0  0  0  0  0  0  0  0  0  0  0
    4.3457    0.5873    4.0194 H   0  0  0  0  0  0  0  0  0  0  0  0
    2.8026    1.5704    5.5262 H   0  0  0  0  0  0  0  0  0  0  0  0
    0.4639    1.3085    5.5781 H   0  0  0  0  0  0  0  0  0  0  0  0
  1  2  1  0
  1 20  1  0
  2  3  1  0
  3  4  1  0
  3 19  2  0
  4  5  1  0
  4 14  2  0
  5  6  1  0
  6  7  1  0
  6 22  1  0
  6 23  1  0
  7  8  2  0
  7 13  1  0
  8  9  1  0
  8 24  1  0
  9 10  2  0
  9 25  1  0
 10 11  1  0
 10 12  1  0
 12 13  2  0
 12 26  1  0
 13 27  1  0
 14 15  1  0
 14 28  1  0
 15 16  2  0
 15 29  1  0
 16 17  1  0
 16 30  1  0
 17 18  2  0
 17 19  1  0
 19 20  1  0
 20 21  2  0
M  END

