rmsd90.gzmat
 OpenBabel08211713373D

 30 32  0  0  0  0  0  0  0  0999 V2000
    0.0000    0.0000    0.0000 O   0  0  0  0  0  0  0  0  0  0  0  0
    1.7033    0.0000    0.0000 S   0  0  0  0  0  0  0  0  0  0  0  0
    1.7868    0.0000    1.7584 C   0  0  0  0  0  0  0  0  0  0  0  0
    3.0238    0.0052    2.4807 C   0  0  0  0  0  0  0  0  0  0  0  0
    4.4089   -0.7734    1.6636 S   0  0  0  0  0  0  0  0  0  0  0  0
    4.1330   -2.5649    2.0289 C   0  0  0  0  0  0  0  0  0  0  0  0
    3.5416   -2.7277    3.3823 C   0  0  0  0  0  0  0  0  0  0  0  0
    2.1685   -2.9527    3.5187 C   0  0  0  0  0  0  0  0  0  0  0  0
    1.5852   -3.0003    4.7830 C   0  0  0  0  0  0  0  0  0  0  0  0
    2.3972   -2.8382    5.8982 C   0  0  0  0  0  0  0  0  0  0  0  0
    1.6051   -2.8444    7.6203 Br  0  0  0  0  0  0  0  0  0  0  0  0
    3.7716   -2.6606    5.7900 C   0  0  0  0  0  0  0  0  0  0  0  0
    4.3440   -2.6087    4.5216 C   0  0  0  0  0  0  0  0  0  0  0  0
    3.2034    0.5505    3.7014 C   0  0  0  0  0  0  0  0  0  0  0  0
    2.1967    1.2281    4.4973 C   0  0  0  0  0  0  0  0  0  0  0  0
    0.8851    0.9534    4.5236 C   0  0  0  0  0  0  0  0  0  0  0  0
    0.2255   -0.0942    3.7103 C   0  0  0  0  0  0  0  0  0  0  0  0
   -0.5062   -0.9206    4.1911 O   0  0  0  0  0  0  0  0  0  0  0  0
    0.5340   -0.0243    2.2767 C   0  0  0  0  0  0  0  0  0  0  0  0
   -0.5434   -0.0147    1.2764 C   0  0  0  0  0  0  0  0  0  0  0  0
   -1.7320    0.0097    1.3781 O   0  0  0  0  0  0  0  0  0  0  0  0
    5.1233   -3.0569    1.9406 H   0  0  0  0  0  0  0  0  0  0  0  0
    3.5003   -3.0096    1.2350 H   0  0  0  0  0  0  0  0  0  0  0  0
    1.5406   -3.0795    2.6361 H   0  0  0  0  0  0  0  0  0  0  0  0
    0.5032   -3.1431    4.8766 H   0  0  0  0  0  0  0  0  0  0  0  0
    4.4029   -2.5591    6.6734 H   0  0  0  0  0  0  0  0  0  0  0  0
    5.4193   -2.4669    4.4216 H   0  0  0  0  0  0  0  0  0  0  0  0
    4.1955    0.5180    4.1820 H   0  0  0  0  0  0  0  0  0  0  0  0
    2.5982    2.0098    5.1582 H   0  0  0  0  0  0  0  0  0  0  0  0
    0.1983    1.4874    5.1907 H   0  0  0  0  0  0  0  0  0  0  0  0
  1 20  1  0  0  0  0
  2  1  1  0  0  0  0
  2  3  1  0  0  0  0
  3 19  2  0  0  0  0
  3  4  1  0  0  0  0
  4 14  2  0  0  0  0
  5  6  1  0  0  0  0
  5  4  1  0  0  0  0
  6  7  1  0  0  0  0
  7  8  2  0  0  0  0
  7 13  1  0  0  0  0
  8  9  1  0  0  0  0
  9 25  1  0  0  0  0
  9 10  2  0  0  0  0
 10 11  1  0  0  0  0
 12 10  1  0  0  0  0
 12 26  1  0  0  0  0
 13 12  2  0  0  0  0
 14 28  1  0  0  0  0
 14 15  1  0  0  0  0
 15 16  2  0  0  0  0
 15 29  1  0  0  0  0
 16 30  1  0  0  0  0
 17 18  2  0  0  0  0
 17 16  1  0  0  0  0
 19 17  1  0  0  0  0
 20 21  2  0  0  0  0
 20 19  1  0  0  0  0
 22  6  1  0  0  0  0
 23  6  1  0  0  0  0
 24  8  1  0  0  0  0
 27 13  1  0  0  0  0
M  END
$$$$
