rmsd82.gzmat
 OpenBabel08211713373D

 30 32  0  0  0  0  0  0  0  0999 V2000
    0.0000    0.0000    0.0000 O   0  0  0  0  0  0  0  0  0  0  0  0
    1.7031    0.0000    0.0000 S   0  0  0  0  0  0  0  0  0  0  0  0
    1.7864    0.0000    1.7588 C   0  0  0  0  0  0  0  0  0  0  0  0
    3.0232   -0.0126    2.4816 C   0  0  0  0  0  0  0  0  0  0  0  0
    4.3966   -0.8125    1.6663 S   0  0  0  0  0  0  0  0  0  0  0  0
    3.9900   -2.6034    1.8666 C   0  0  0  0  0  0  0  0  0  0  0  0
    3.4598   -2.8558    3.2315 C   0  0  0  0  0  0  0  0  0  0  0  0
    2.0800   -2.9603    3.4302 C   0  0  0  0  0  0  0  0  0  0  0  0
    1.5621   -3.0981    4.7160 C   0  0  0  0  0  0  0  0  0  0  0  0
    2.4445   -3.1510    5.7872 C   0  0  0  0  0  0  0  0  0  0  0  0
    1.7465   -3.3030    7.5435 Br  0  0  0  0  0  0  0  0  0  0  0  0
    3.8220   -3.0936    5.6113 C   0  0  0  0  0  0  0  0  0  0  0  0
    4.3292   -2.9475    4.3225 C   0  0  0  0  0  0  0  0  0  0  0  0
    3.2103    0.5347    3.7003 C   0  0  0  0  0  0  0  0  0  0  0  0
    2.2151    1.2495    4.4790 C   0  0  0  0  0  0  0  0  0  0  0  0
    0.8978    1.0041    4.5017 C   0  0  0  0  0  0  0  0  0  0  0  0
    0.2293   -0.0567    3.7130 C   0  0  0  0  0  0  0  0  0  0  0  0
   -0.4991   -0.8736    4.2135 O   0  0  0  0  0  0  0  0  0  0  0  0
    0.5333   -0.0098    2.2774 C   0  0  0  0  0  0  0  0  0  0  0  0
   -0.5440   -0.0002    1.2765 C   0  0  0  0  0  0  0  0  0  0  0  0
   -1.7326    0.0316    1.3762 O   0  0  0  0  0  0  0  0  0  0  0  0
    4.9302   -3.1588    1.6708 H   0  0  0  0  0  0  0  0  0  0  0  0
    3.2813   -2.9187    1.0748 H   0  0  0  0  0  0  0  0  0  0  0  0
    1.3965   -2.9240    2.5812 H   0  0  0  0  0  0  0  0  0  0  0  0
    0.4776   -3.1455    4.8610 H   0  0  0  0  0  0  0  0  0  0  0  0
    4.5056   -3.1588    6.4583 H   0  0  0  0  0  0  0  0  0  0  0  0
    5.4066   -2.8977    4.1696 H   0  0  0  0  0  0  0  0  0  0  0  0
    4.1974    0.4804    4.1887 H   0  0  0  0  0  0  0  0  0  0  0  0
    2.6294    2.0368    5.1249 H   0  0  0  0  0  0  0  0  0  0  0  0
    0.2150    1.5720    5.1439 H   0  0  0  0  0  0  0  0  0  0  0  0
  1 20  1  0  0  0  0
  2  1  1  0  0  0  0
  2  3  1  0  0  0  0
  3 19  2  0  0  0  0
  3  4  1  0  0  0  0
  4 14  2  0  0  0  0
  5  6  1  0  0  0  0
  5  4  1  0  0  0  0
  6  7  1  0  0  0  0
  7  8  2  0  0  0  0
  7 13  1  0  0  0  0
  8  9  1  0  0  0  0
  9 25  1  0  0  0  0
  9 10  2  0  0  0  0
 10 11  1  0  0  0  0
 12 10  1  0  0  0  0
 12 26  1  0  0  0  0
 13 12  2  0  0  0  0
 14 28  1  0  0  0  0
 14 15  1  0  0  0  0
 15 16  2  0  0  0  0
 15 29  1  0  0  0  0
 16 30  1  0  0  0  0
 17 18  2  0  0  0  0
 17 16  1  0  0  0  0
 19 17  1  0  0  0  0
 20 21  2  0  0  0  0
 20 19  1  0  0  0  0
 22  6  1  0  0  0  0
 23  6  1  0  0  0  0
 24  8  1  0  0  0  0
 27 13  1  0  0  0  0
M  END
$$$$
