30
rmsd49.gzmat
O          0.00000        0.00000        0.00000
S          1.70320        0.00000        0.00000
C          1.78550        0.00000        1.75770
C          3.02130        0.00250        2.48250
S          4.39130       -0.82470        1.68930
C          4.02940       -2.59920        2.05820
C          3.55750       -2.73930        3.46020
C          2.18860       -2.83440        3.72770
C          1.72920       -2.87170        5.04250
C          2.65810       -2.83170        6.07440
Br         2.03970       -2.84090        7.86700
C          4.02610       -2.77840        5.83320
C          4.47430       -2.73320        4.51540
C          3.20460        0.57070        3.69210
C          2.20000        1.27670        4.46610
C          0.88790        1.00460        4.49730
C          0.23230       -0.06780        3.71260
O         -0.48410       -0.89420        4.21530
C          0.53270       -0.01920        2.27660
C         -0.54450       -0.01430        1.27650
O         -1.73370        0.00420        1.37570
H          4.97260       -3.15360        1.87430
H          3.29730       -2.99380        1.32570
H          1.46680       -2.86780        2.91020
H          0.65240       -2.91610        5.23800
H          4.74770       -2.76980        6.65050
H          5.54340       -2.68570        4.31100
H          4.19400        0.53570        4.17790
H          2.60320        2.07760        5.10200
H          0.19860        1.56060        5.14270
