rmsd143.gzmat
 OpenBabel08211713373D

 30 32  0  0  0  0  0  0  0  0999 V2000
    0.0000    0.0000    0.0000 O   0  0  0  0  0  0  0  0  0  0  0  0
    1.7033    0.0000    0.0000 S   0  0  0  0  0  0  0  0  0  0  0  0
    1.7866    0.0000    1.7588 C   0  0  0  0  0  0  0  0  0  0  0  0
    3.0241    0.0059    2.4797 C   0  0  0  0  0  0  0  0  0  0  0  0
    4.4116   -0.7592    1.6543 S   0  0  0  0  0  0  0  0  0  0  0  0
    4.1579   -2.5546    2.0163 C   0  0  0  0  0  0  0  0  0  0  0  0
    3.5355   -2.7282    3.3540 C   0  0  0  0  0  0  0  0  0  0  0  0
    2.1634   -2.9756    3.4559 C   0  0  0  0  0  0  0  0  0  0  0  0
    1.5501   -3.0326    4.7057 C   0  0  0  0  0  0  0  0  0  0  0  0
    2.3315   -2.8560    5.8407 C   0  0  0  0  0  0  0  0  0  0  0  0
    1.4986   -2.8670    7.5434 Br  0  0  0  0  0  0  0  0  0  0  0  0
    3.7055   -2.6595    5.7663 C   0  0  0  0  0  0  0  0  0  0  0  0
    4.3078   -2.5979    4.5123 C   0  0  0  0  0  0  0  0  0  0  0  0
    3.2038    0.5455    3.7031 C   0  0  0  0  0  0  0  0  0  0  0  0
    2.1979    1.2231    4.4997 C   0  0  0  0  0  0  0  0  0  0  0  0
    0.8851    0.9540    4.5229 C   0  0  0  0  0  0  0  0  0  0  0  0
    0.2223   -0.0912    3.7095 C   0  0  0  0  0  0  0  0  0  0  0  0
   -0.5151   -0.9130    4.1896 O   0  0  0  0  0  0  0  0  0  0  0  0
    0.5336   -0.0234    2.2769 C   0  0  0  0  0  0  0  0  0  0  0  0
   -0.5439   -0.0098    1.2763 C   0  0  0  0  0  0  0  0  0  0  0  0
   -1.7325    0.0224    1.3766 O   0  0  0  0  0  0  0  0  0  0  0  0
    5.1594   -3.0279    1.9569 H   0  0  0  0  0  0  0  0  0  0  0  0
    3.5538   -3.0108    1.2072 H   0  0  0  0  0  0  0  0  0  0  0  0
    1.5599   -3.1117    2.5577 H   0  0  0  0  0  0  0  0  0  0  0  0
    0.4689   -3.1936    4.7727 H   0  0  0  0  0  0  0  0  0  0  0  0
    4.3125   -2.5498    6.6650 H   0  0  0  0  0  0  0  0  0  0  0  0
    5.3830   -2.4390    4.4379 H   0  0  0  0  0  0  0  0  0  0  0  0
    4.1959    0.5101    4.1843 H   0  0  0  0  0  0  0  0  0  0  0  0
    2.6012    2.0021    5.1630 H   0  0  0  0  0  0  0  0  0  0  0  0
    0.1987    1.4910    5.1882 H   0  0  0  0  0  0  0  0  0  0  0  0
  1 20  1  0  0  0  0
  2  1  1  0  0  0  0
  2  3  1  0  0  0  0
  3 19  2  0  0  0  0
  3  4  1  0  0  0  0
  4 14  2  0  0  0  0
  5  6  1  0  0  0  0
  5  4  1  0  0  0  0
  6  7  1  0  0  0  0
  7  8  2  0  0  0  0
  7 13  1  0  0  0  0
  8  9  1  0  0  0  0
  9 25  1  0  0  0  0
  9 10  2  0  0  0  0
 10 11  1  0  0  0  0
 12 10  1  0  0  0  0
 12 26  1  0  0  0  0
 13 12  2  0  0  0  0
 14 28  1  0  0  0  0
 14 15  1  0  0  0  0
 15 16  2  0  0  0  0
 15 29  1  0  0  0  0
 16 30  1  0  0  0  0
 17 18  2  0  0  0  0
 17 16  1  0  0  0  0
 19 17  1  0  0  0  0
 20 21  2  0  0  0  0
 20 19  1  0  0  0  0
 22  6  1  0  0  0  0
 23  6  1  0  0  0  0
 24  8  1  0  0  0  0
 27 13  1  0  0  0  0
M  END
$$$$
