63

C         -0.10860       -0.14870        0.03430
C          1.22280       -0.63650        0.06710
C          1.92170       -0.79320        1.25750
C          1.27500       -0.45750        2.45870
C         -0.06190        0.03290        2.41810
C         -0.76440        0.19840        1.22340
N         -0.38960        0.25280        3.73700
H         -1.25580        0.60270        4.12930
C          0.70670       -0.09070        4.50080
N          1.71580       -0.51740        3.75990
C          0.74490       -0.00020        5.96320
C          1.90680       -0.44230        6.61710
C          2.03120       -0.37750        8.00200
C          3.33210       -0.77770        8.68560
H          3.94660       -1.32100        7.95610
C          3.03150       -1.72140        9.83560
O          2.87790       -1.39130       10.98730
O          2.91270       -2.99450        9.42090
C          4.10050        0.45440        9.19360
C          4.38820        1.45190        8.09520
O          4.18750        2.63740        8.15590
O          4.92350        0.85790        7.00580
C          0.96760        0.13560        8.75290
C         -0.21090        0.57970        8.14570
C         -0.31540        0.51550        6.73850
O         -1.42570        0.97040        6.09350
C         -1.32800        1.13100        8.95730
C         -1.09590        2.15160        9.91290
C         -2.16370        2.66780       10.65320
C         -3.46210        2.18990       10.46040
C         -3.72210        1.18650        9.52430
C         -5.12120        0.64630        9.30670
N         -5.27260       -0.76990        9.60110
C         -5.00940       -1.70860        8.62310
O         -4.74430       -1.41040        7.46760
N         -5.05040       -3.01580        9.06370
C         -2.64210        0.67000        8.78860
O          0.17300        2.59770       10.07220
C         -0.81360       -0.02620       -1.27930
N         -0.66230       -0.80580       -2.28680
N         -1.73550        1.00580       -1.34970
H          1.71110       -0.87380       -0.88050
H          2.94930       -1.16070        1.27220
H         -1.79530        0.55460        1.20220
H          2.71600       -0.82420        5.99430
H          2.66630       -3.52270       10.19990
H          3.53320        0.97050        9.97730
H          5.06280        0.13700        9.63020
H          5.04710        1.55200        6.33570
H          1.05250        0.19850        9.83800
H         -2.06280        1.30570        6.74470
H         -1.97310        3.45600       11.38800
H         -4.28050        2.61110       11.05080
H         -5.41110        0.77020        8.25350
H         -5.83780        1.21470        9.91980
H         -5.13710       -1.05120       10.56600
H         -5.63400       -3.25500        9.85690
H         -5.01660       -3.70480        8.32140
H         -2.84310       -0.12720        8.06820
H          0.19230        3.31010       10.72440
H         -0.04350       -1.58150       -2.04270
H         -1.49850        1.86200       -0.86110
H         -2.11980        1.14080       -2.28000
