63
rmsd246.gzmat
C          0.00000        0.00000        0.00000
C          1.41160        0.00000        0.00000
C          2.13250        0.00000        1.17960
C          1.41510       -0.00170        2.38160
C         -0.02520        0.00420        2.36570
C         -0.74290        0.00430        1.16930
N         -0.42050       -0.00640        3.70270
H         -1.35240        0.06730        4.05350
C          0.75220        0.00020        4.47790
N          1.85460       -0.00660        3.70330
C          0.76010       -0.01180        5.92860
C          1.92830       -0.41720        6.58450
C          2.01390       -0.38860        7.97490
C          3.31730       -0.75390        8.62650
H          3.95440       -1.34570        7.90410
C          3.06110       -1.59630        9.85360
O          2.65260       -1.25260       10.93110
O          3.37900       -2.89020        9.60630
C          4.07700        0.51220        9.05220
C          4.46170        1.36690        7.88150
O          4.67360        2.54970        7.88160
O          4.58710        0.62850        6.75230
C          0.91770        0.02520        8.73470
C         -0.26530        0.41510        8.11210
C         -0.33230        0.39450        6.71090
O         -1.45180        0.75720        6.04160
C         -1.40790        0.82900        8.92080
C         -2.04080       -0.09250        9.77480
C         -3.11230        0.27130       10.59090
C         -3.55270        1.59210       10.56450
C         -2.93500        2.52460        9.73280
C         -3.38400        3.96170        9.73000
N         -2.37740        4.84430       10.34130
C         -1.37240        5.32820        9.49210
O         -1.44380        5.25360        8.27930
N         -0.27880        5.92570       10.11990
C         -1.87300        2.14020        8.91030
O         -1.53850       -1.34970        9.74730
C         -0.71620        0.01570       -1.30650
N         -1.42800        0.97340       -1.80000
N         -0.53340       -1.13240       -2.08570
H          1.93290       -0.00020       -0.95930
H          3.22050        0.00110        1.19360
H         -1.82930        0.00700        1.15950
H          2.78850       -0.73980        5.98030
H          3.20170       -3.49870       10.36520
H          3.45670        1.11880        9.75630
H          4.99420        0.25110        9.62460
H          4.74490        1.16310        5.93170
H          0.97490        0.04660        9.82840
H         -2.15070        1.13290        6.64190
H         -3.58990       -0.45590       11.23920
H         -4.38390        1.89210       11.20280
H         -4.33760        4.10000       10.29100
H         -3.58780        4.30580        8.68220
H         -2.16690        4.65740       11.31010
H         -0.32300        6.24280       11.06330
H          0.37420        6.41240        9.52910
H         -1.38770        2.88570        8.26550
H         -2.00800       -1.95550       10.37400
H         -1.49500        1.85560       -1.32760
H         -0.34550       -1.99330       -1.61590
H         -1.08280       -1.20740       -2.92360
