63

C          0.45060        0.11280       -0.27710
C          1.84640        0.34100       -0.16350
C          2.48140        0.41990        1.07130
C          1.70640        0.25920        2.23070
C          0.30580        0.02610        2.10750
C         -0.33470       -0.05010        0.87140
N         -0.13980       -0.09480        3.40490
H         -1.08050       -0.25680        3.74340
C          0.95070        0.06740        4.23570
N          2.06560        0.27940        3.55850
C          0.87480        0.01180        5.69790
C          2.06010        0.20430        6.42910
C          2.07180        0.18840        7.82120
C          3.35450        0.47090        8.58930
H          4.20220        0.41520        7.89400
C          3.56430       -0.59840        9.65010
O          3.16190       -0.52500       10.78690
O          4.19770       -1.67560        9.16540
C          3.31760        1.85330        9.24310
C          4.62360        2.19640        9.91920
O          5.60670        1.49670        9.92890
O          4.57800        3.39920       10.52080
C          0.87030       -0.04400        8.50350
C         -0.32750       -0.25810        7.81650
C         -0.32250       -0.21470        6.40670
O         -1.48510       -0.37490        5.70660
C         -1.60010       -0.52180        8.54020
C         -2.09020        0.38360        9.50540
C         -3.29750        0.11520       10.16560
C         -4.02540       -1.03840        9.88600
C         -3.55910       -1.96010        8.93530
C         -4.34890       -3.21560        8.62610
N         -5.57810       -2.98270        7.88080
C         -6.74080       -2.65660        8.55040
O         -6.83470       -2.66190        9.76800
N         -7.79120       -2.30470        7.72310
C         -2.35310       -1.68310        8.28260
O         -1.36380        1.49950        9.76170
C         -0.20510        0.05480       -1.62150
N         -1.38790        0.47200       -1.89610
N          0.58330       -0.46680       -2.62970
H          2.42310        0.48300       -1.07910
H          3.55360        0.60820        1.15070
H         -1.40470       -0.24960        0.78690
H          2.97360        0.37590        5.85750
H          4.25830       -2.31760        9.89380
H          3.09490        2.62850        8.49290
H          2.51580        1.90740        9.99520
H          5.44910        3.54100       10.92990
H          0.86080       -0.06730        9.59400
H         -2.21720       -0.44190        6.34170
H         -3.66590        0.82520       10.91270
H         -4.96550       -1.24000       10.40350
H         -4.64480       -3.71010        9.56130
H         -3.72340       -3.92010        8.05620
H         -5.47700       -2.63970        6.93200
H         -7.83220       -2.69450        6.78810
H         -8.68270       -2.23600        8.20040
H         -1.95770       -2.40570        7.56220
H         -1.80610        2.02240       10.44340
H         -1.79230        0.94050       -1.08320
H          1.24100       -1.19540       -2.37860
H          0.09340       -0.60650       -3.50760
