63
rmsd245.gzmat
C          0.00000        0.00000        0.00000
C          1.41270        0.00000        0.00000
C          2.13300        0.00000        1.17910
C          1.41420       -0.00670        2.38110
C         -0.02560       -0.00810        2.36460
C         -0.74380       -0.00080        1.16710
N         -0.42060       -0.02400        3.70040
H         -1.35470       -0.01650        4.05120
C          0.75060       -0.03320        4.47820
N          1.85270       -0.02010        3.70220
C          0.76360       -0.07310        5.92870
C          2.00350       -0.07910        6.58040
C          2.08190       -0.12840        7.96930
C          3.41530       -0.16520        8.66100
H          3.27890        0.01450        9.76820
C          4.29080        0.94890        8.13520
O          4.44480        2.04620        8.59600
O          4.94920        0.55790        7.01470
C          4.08510       -1.53060        8.45400
C          3.34600       -2.58170        9.21860
O          2.57350       -2.45210       10.13130
O          3.67430       -3.81440        8.75330
C          0.91640       -0.19370        8.73760
C         -0.33230       -0.20390        8.12030
C         -0.39360       -0.12100        6.72070
O         -1.58200       -0.10580        6.06670
C         -1.55130       -0.31260        8.91420
C         -1.82730        0.60670        9.94030
C         -2.98800        0.52820       10.71360
C         -3.88470       -0.50410       10.46600
C         -3.61990       -1.44530        9.46690
C         -4.58230       -2.58120        9.24670
N         -4.40420       -3.64020       10.25350
C         -5.09530       -3.47980       11.46080
O         -5.98200       -2.66000       11.61460
N         -4.72560       -4.34650       12.49360
C         -2.46100       -1.34950        8.69980
O         -0.89480        1.57180       10.12390
C         -0.70040       -0.02340       -1.31480
N         -0.75730       -1.00470       -2.15210
N         -1.40990        1.14350       -1.61920
H          1.93620       -0.00030       -0.95650
H          3.22140        0.00320        1.19640
H         -1.83130        0.00260        1.15160
H          2.91940       -0.04700        5.96930
H          5.48590        1.27520        6.59420
H          4.13000       -1.79030        7.36690
H          5.14980       -1.51290        8.77530
H          3.21220       -4.55260        9.21960
H          0.97580       -0.25310        9.82950
H         -2.35230        0.04410        6.67740
H         -3.18560        1.25380       11.49680
H         -4.80140       -0.59210       11.06190
H         -4.45060       -3.04710        8.24140
H         -5.64090       -2.21470        9.28200
H         -3.49990       -4.09030       10.25270
H         -4.22980       -5.19250       12.31110
H         -5.32320       -4.36570       13.30170
H         -2.24830       -2.09580        7.93090
H         -1.14080        2.19940       10.84970
H         -0.35100       -1.89330       -1.92380
H         -1.08390        2.00390       -1.22970
H         -1.80400        1.20930       -2.54130
