
     RDKit          3D

 63 66  0  0  0  0  0  0  0  0999 V2000
    0.4506    0.1128   -0.2771 C   0  0  0  0  0  0  0  0  0  0  0  0
    1.8464    0.3410   -0.1635 C   0  0  0  0  0  0  0  0  0  0  0  0
    2.4814    0.4199    1.0713 C   0  0  0  0  0  0  0  0  0  0  0  0
    1.7064    0.2592    2.2307 C   0  0  0  0  0  0  0  0  0  0  0  0
    0.3058    0.0261    2.1075 C   0  0  0  0  0  0  0  0  0  0  0  0
   -0.3347   -0.0501    0.8714 C   0  0  0  0  0  0  0  0  0  0  0  0
   -0.1398   -0.0948    3.4049 N   0  0  0  0  0  0  0  0  0  0  0  0
   -1.0805   -0.2568    3.7434 H   0  0  0  0  0  0  0  0  0  0  0  0
    0.9507    0.0674    4.2357 C   0  0  0  0  0  0  0  0  0  0  0  0
    2.0656    0.2794    3.5585 N   0  0  0  0  0  0  0  0  0  0  0  0
    0.8748    0.0118    5.6979 C   0  0  0  0  0  0  0  0  0  0  0  0
    2.0601    0.2043    6.4291 C   0  0  0  0  0  0  0  0  0  0  0  0
    2.0718    0.1884    7.8212 C   0  0  0  0  0  0  0  0  0  0  0  0
    3.3545    0.4709    8.5893 C   0  0  2  0  0  0  0  0  0  0  0  0
    4.2022    0.4152    7.8940 H   0  0  0  0  0  0  0  0  0  0  0  0
    3.5643   -0.5984    9.6501 C   0  0  0  0  0  0  0  0  0  0  0  0
    3.1619   -0.5250   10.7869 O   0  0  0  0  0  0  0  0  0  0  0  0
    4.1977   -1.6756    9.1654 O   0  0  0  0  0  0  0  0  0  0  0  0
    3.3176    1.8533    9.2431 C   0  0  0  0  0  0  0  0  0  0  0  0
    4.6236    2.1964    9.9192 C   0  0  0  0  0  0  0  0  0  0  0  0
    5.6067    1.4967    9.9289 O   0  0  0  0  0  0  0  0  0  0  0  0
    4.5780    3.3992   10.5208 O   0  0  0  0  0  0  0  0  0  0  0  0
    0.8703   -0.0440    8.5035 C   0  0  0  0  0  0  0  0  0  0  0  0
   -0.3275   -0.2581    7.8165 C   0  0  0  0  0  0  0  0  0  0  0  0
   -0.3225   -0.2147    6.4067 C   0  0  0  0  0  0  0  0  0  0  0  0
   -1.4851   -0.3749    5.7066 O   0  0  0  0  0  0  0  0  0  0  0  0
   -1.6001   -0.5218    8.5402 C   0  0  0  0  0  0  0  0  0  0  0  0
   -2.0902    0.3836    9.5054 C   0  0  0  0  0  0  0  0  0  0  0  0
   -3.2975    0.1152   10.1656 C   0  0  0  0  0  0  0  0  0  0  0  0
   -4.0254   -1.0384    9.8860 C   0  0  0  0  0  0  0  0  0  0  0  0
   -3.5591   -1.9601    8.9353 C   0  0  0  0  0  0  0  0  0  0  0  0
   -4.3489   -3.2156    8.6261 C   0  0  0  0  0  0  0  0  0  0  0  0
   -5.5781   -2.9827    7.8808 N   0  0  0  0  0  0  0  0  0  0  0  0
   -6.7408   -2.6566    8.5504 C   0  0  0  0  0  0  0  0  0  0  0  0
   -6.8347   -2.6619    9.7680 O   0  0  0  0  0  0  0  0  0  0  0  0
   -7.7912   -2.3047    7.7231 N   0  0  0  0  0  0  0  0  0  0  0  0
   -2.3531   -1.6831    8.2826 C   0  0  0  0  0  0  0  0  0  0  0  0
   -1.3638    1.4995    9.7617 O   0  0  0  0  0  0  0  0  0  0  0  0
   -0.2051    0.0548   -1.6215 C   0  0  0  0  0  0  0  0  0  0  0  0
   -1.3879    0.4720   -1.8961 N   0  0  0  0  0  0  0  0  0  0  0  0
    0.5833   -0.4668   -2.6297 N   0  0  0  0  0  0  0  0  0  0  0  0
    2.4231    0.4830   -1.0791 H   0  0  0  0  0  0  0  0  0  0  0  0
    3.5536    0.6082    1.1507 H   0  0  0  0  0  0  0  0  0  0  0  0
   -1.4047   -0.2496    0.7869 H   0  0  0  0  0  0  0  0  0  0  0  0
    2.9736    0.3759    5.8575 H   0  0  0  0  0  0  0  0  0  0  0  0
    4.2583   -2.3176    9.8938 H   0  0  0  0  0  0  0  0  0  0  0  0
    3.0949    2.6285    8.4929 H   0  0  0  0  0  0  0  0  0  0  0  0
    2.5158    1.9074    9.9952 H   0  0  0  0  0  0  0  0  0  0  0  0
    5.4491    3.5410   10.9299 H   0  0  0  0  0  0  0  0  0  0  0  0
    0.8608   -0.0673    9.5940 H   0  0  0  0  0  0  0  0  0  0  0  0
   -2.2172   -0.4419    6.3417 H   0  0  0  0  0  0  0  0  0  0  0  0
   -3.6659    0.8252   10.9127 H   0  0  0  0  0  0  0  0  0  0  0  0
   -4.9655   -1.2400   10.4035 H   0  0  0  0  0  0  0  0  0  0  0  0
   -4.6448   -3.7101    9.5613 H   0  0  0  0  0  0  0  0  0  0  0  0
   -3.7234   -3.9201    8.0562 H   0  0  0  0  0  0  0  0  0  0  0  0
   -5.4770   -2.6397    6.9320 H   0  0  0  0  0  0  0  0  0  0  0  0
   -7.8322   -2.6945    6.7881 H   0  0  0  0  0  0  0  0  0  0  0  0
   -8.6827   -2.2360    8.2004 H   0  0  0  0  0  0  0  0  0  0  0  0
   -1.9577   -2.4057    7.5622 H   0  0  0  0  0  0  0  0  0  0  0  0
   -1.8061    2.0224   10.4434 H   0  0  0  0  0  0  0  0  0  0  0  0
   -1.7923    0.9405   -1.0832 H   0  0  0  0  0  0  0  0  0  0  0  0
    1.2410   -1.1954   -2.3786 H   0  0  0  0  0  0  0  0  0  0  0  0
    0.0934   -0.6065   -3.5076 H   0  0  0  0  0  0  0  0  0  0  0  0
  1  2  2  0
  1  6  1  0
  1 39  1  0
  2  3  1  0
  2 42  1  0
  3  4  2  0
  3 43  1  0
  4  5  1  0
  4 10  1  0
  5  6  2  0
  5  7  1  0
  6 44  1  0
  7  8  1  0
  7  9  1  0
  9 10  2  0
  9 11  1  0
 11 12  2  0
 11 25  1  0
 12 13  1  0
 12 45  1  0
 13 14  1  0
 13 23  2  0
 14 15  1  6
 14 16  1  0
 14 19  1  0
 16 17  2  0
 16 18  1  0
 18 46  1  0
 19 20  1  0
 19 47  1  0
 19 48  1  0
 20 21  2  0
 20 22  1  0
 22 49  1  0
 23 24  1  0
 23 50  1  0
 24 25  2  0
 24 27  1  0
 25 26  1  0
 26 51  1  0
 27 28  2  0
 27 37  1  0
 28 29  1  0
 28 38  1  0
 29 30  2  0
 29 52  1  0
 30 31  1  0
 30 53  1  0
 31 32  1  0
 31 37  2  0
 32 33  1  0
 32 54  1  0
 32 55  1  0
 33 34  1  0
 33 56  1  0
 34 35  2  0
 34 36  1  0
 36 57  1  0
 36 58  1  0
 37 59  1  0
 38 60  1  0
 39 40  2  0
 39 41  1  0
 40 61  1  0
 41 62  1  0
 41 63  1  0
M  END

