63
rmsd172.gzmat
C          0.00000        0.00000        0.00000
C          1.41260        0.00000        0.00000
C          2.13280        0.00000        1.17940
C          1.41410       -0.00350        2.38170
C         -0.02550       -0.01580        2.36510
C         -0.74350       -0.01220        1.16750
N         -0.42190       -0.00520        3.70110
H         -1.35350       -0.06820        4.05080
C          0.75060        0.00250        4.47840
N          1.85200        0.00890        3.70300
C          0.76270        0.03630        5.92940
C          1.98030        0.28520        6.57850
C          2.05400        0.32380        7.96800
C          3.36900        0.61300        8.63510
H          4.18030        0.74730        7.85750
C          3.75120       -0.57800        9.48420
O          4.53220       -1.45150        9.22740
O          3.07890       -0.56630       10.66590
C          3.29420        1.88240        9.49540
C          3.17870        3.08500        8.61110
O          3.79280        3.34660        7.61200
O          2.24250        3.93880        9.10050
C          0.90740        0.10590        8.73780
C         -0.31830       -0.13080        8.12450
C         -0.37560       -0.17130        6.72250
O         -1.53890       -0.41230        6.06890
C         -1.51830       -0.34680        8.92670
C         -1.62150       -1.46810        9.76620
C         -2.75860       -1.71020       10.54100
C         -3.80780       -0.80110       10.48490
C         -3.71880        0.33330        9.67190
C         -4.86750        1.30520        9.63540
N         -5.94220        0.85160        8.73870
C         -6.85330       -0.06960        9.26600
O         -6.91560       -0.33400       10.45240
N         -7.71790       -0.66860        8.34320
C         -2.58040        0.55750        8.90060
O         -0.54750       -2.29310        9.77320
C         -0.70470        0.00730       -1.31310
N         -0.81280       -0.96410       -2.15590
N         -1.36250        1.20810       -1.60880
H          1.93660        0.00150       -0.95630
H          3.22160        0.00450        1.19630
H         -1.83070       -0.01380        1.15290
H          2.87840        0.44910        5.96440
H          3.25160       -1.36140       11.22740
H          2.44150        1.82830       10.21320
H          4.19850        1.98480       10.13520
H          2.11780        4.74950        8.54840
H          0.96540        0.11380        9.83110
H         -2.29770       -0.58250        6.68680
H         -2.82300       -2.58830       11.17650
H         -4.71650       -0.97270       11.07570
H         -4.54280        2.31540        9.29260
H         -5.29080        1.44890       10.66400
H         -5.72090        0.83700        7.75580
H         -7.91010       -0.24170        7.46190
H         -8.47610       -1.20850        8.72610
H         -2.50230        1.45210        8.27980
H         -0.69310       -3.09210       10.34060
H         -0.45170       -1.87420       -1.93800
H         -0.99110        2.05110       -1.22180
H         -1.75730        1.29530       -2.52900
