
     RDKit          3D

 63 66  0  0  0  0  0  0  0  0999 V2000
   -0.0121    0.0378   -0.0248 C   0  0  0  0  0  0  0  0  0  0  0  0
    1.4061    0.0335   -0.0120 C   0  0  0  0  0  0  0  0  0  0  0  0
    2.1327   -0.0017    1.1717 C   0  0  0  0  0  0  0  0  0  0  0  0
    1.4269   -0.0382    2.3858 C   0  0  0  0  0  0  0  0  0  0  0  0
    0.0026   -0.0326    2.3652 C   0  0  0  0  0  0  0  0  0  0  0  0
   -0.7305    0.0106    1.1784 C   0  0  0  0  0  0  0  0  0  0  0  0
   -0.3622   -0.0831    3.6921 N   0  0  0  0  0  0  0  0  0  0  0  0
   -1.2901   -0.0952    4.0984 H   0  0  0  0  0  0  0  0  0  0  0  0
    0.7966   -0.1111    4.4412 C   0  0  0  0  0  0  0  0  0  0  0  0
    1.8798   -0.0846    3.6836 N   0  0  0  0  0  0  0  0  0  0  0  0
    0.8187   -0.1651    5.9054 C   0  0  0  0  0  0  0  0  0  0  0  0
    2.0687   -0.1675    6.5456 C   0  0  0  0  0  0  0  0  0  0  0  0
    2.1797   -0.2000    7.9357 C   0  0  0  0  0  0  0  0  0  0  0  0
    3.5440   -0.2198    8.6154 C   0  0  2  0  0  0  0  0  0  0  0  0
    3.3857   -0.0904    9.6932 H   0  0  0  0  0  0  0  0  0  0  0  0
    4.3519    0.9905    8.1750 C   0  0  0  0  0  0  0  0  0  0  0  0
    4.3629    2.0538    8.7388 O   0  0  0  0  0  0  0  0  0  0  0  0
    5.0522    0.7589    7.0427 O   0  0  0  0  0  0  0  0  0  0  0  0
    4.2823   -1.5436    8.3801 C   0  0  0  0  0  0  0  0  0  0  0  0
    3.6098   -2.6959    9.0903 C   0  0  0  0  0  0  0  0  0  0  0  0
    2.8290   -2.5996   10.0056 O   0  0  0  0  0  0  0  0  0  0  0  0
    4.0105   -3.8835    8.5999 O   0  0  0  0  0  0  0  0  0  0  0  0
    1.0110   -0.2442    8.7033 C   0  0  0  0  0  0  0  0  0  0  0  0
   -0.2531   -0.2600    8.1062 C   0  0  0  0  0  0  0  0  0  0  0  0
   -0.3454   -0.2073    6.7007 C   0  0  0  0  0  0  0  0  0  0  0  0
   -1.5644   -0.1805    6.0863 O   0  0  0  0  0  0  0  0  0  0  0  0
   -1.4964   -0.3317    8.9203 C   0  0  0  0  0  0  0  0  0  0  0  0
   -1.7880    0.6476    9.8936 C   0  0  0  0  0  0  0  0  0  0  0  0
   -2.9757    0.5640   10.6345 C   0  0  0  0  0  0  0  0  0  0  0  0
   -3.8774   -0.4762   10.4258 C   0  0  0  0  0  0  0  0  0  0  0  0
   -3.6086   -1.4692    9.4706 C   0  0  0  0  0  0  0  0  0  0  0  0
   -4.5598   -2.6324    9.2794 C   0  0  0  0  0  0  0  0  0  0  0  0
   -4.5747   -3.5734   10.3903 N   0  0  0  0  0  0  0  0  0  0  0  0
   -5.4086   -3.3490   11.4685 C   0  0  0  0  0  0  0  0  0  0  0  0
   -6.2477   -2.4615   11.4919 O   0  0  0  0  0  0  0  0  0  0  0  0
   -5.2033   -4.2074   12.5314 N   0  0  0  0  0  0  0  0  0  0  0  0
   -2.4201   -1.3776    8.7385 C   0  0  0  0  0  0  0  0  0  0  0  0
   -0.8962    1.6514   10.0727 O   0  0  0  0  0  0  0  0  0  0  0  0
   -0.7351    0.0512   -1.3343 C   0  0  0  0  0  0  0  0  0  0  0  0
   -0.3416   -0.5201   -2.4133 N   0  0  0  0  0  0  0  0  0  0  0  0
   -1.9548    0.7088   -1.3177 N   0  0  0  0  0  0  0  0  0  0  0  0
    1.9329    0.0804   -0.9674 H   0  0  0  0  0  0  0  0  0  0  0  0
    3.2241    0.0054    1.1720 H   0  0  0  0  0  0  0  0  0  0  0  0
   -1.8214   -0.0049    1.1696 H   0  0  0  0  0  0  0  0  0  0  0  0
    2.9514   -0.1277    5.9062 H   0  0  0  0  0  0  0  0  0  0  0  0
    5.4880    1.5948    6.8025 H   0  0  0  0  0  0  0  0  0  0  0  0
    4.3697   -1.7763    7.3099 H   0  0  0  0  0  0  0  0  0  0  0  0
    5.3161   -1.4920    8.7645 H   0  0  0  0  0  0  0  0  0  0  0  0
    3.5651   -4.5693    9.1269 H   0  0  0  0  0  0  0  0  0  0  0  0
    1.0806   -0.2868    9.7901 H   0  0  0  0  0  0  0  0  0  0  0  0
   -2.2552   -0.1488    6.7686 H   0  0  0  0  0  0  0  0  0  0  0  0
   -3.1938    1.3344   11.3808 H   0  0  0  0  0  0  0  0  0  0  0  0
   -4.7998   -0.5351   11.0075 H   0  0  0  0  0  0  0  0  0  0  0  0
   -4.3016   -3.1799    8.3594 H   0  0  0  0  0  0  0  0  0  0  0  0
   -5.5896   -2.2642    9.1757 H   0  0  0  0  0  0  0  0  0  0  0  0
   -3.7076   -4.0671   10.5724 H   0  0  0  0  0  0  0  0  0  0  0  0
   -4.8256   -5.1314   12.3552 H   0  0  0  0  0  0  0  0  0  0  0  0
   -5.9218   -4.1602   13.2445 H   0  0  0  0  0  0  0  0  0  0  0  0
   -2.1830   -2.1539    8.0047 H   0  0  0  0  0  0  0  0  0  0  0  0
   -1.2147    2.2501   10.7609 H   0  0  0  0  0  0  0  0  0  0  0  0
    0.5082   -1.0595   -2.2374 H   0  0  0  0  0  0  0  0  0  0  0  0
   -2.0150    1.5399   -0.7399 H   0  0  0  0  0  0  0  0  0  0  0  0
   -2.3747    0.8020   -2.2377 H   0  0  0  0  0  0  0  0  0  0  0  0
  1  2  2  0
  1  6  1  0
  1 39  1  0
  2  3  1  0
  2 42  1  0
  3  4  2  0
  3 43  1  0
  4  5  1  0
  4 10  1  0
  5  6  2  0
  5  7  1  0
  6 44  1  0
  7  8  1  0
  7  9  1  0
  9 10  2  0
  9 11  1  0
 11 12  2  0
 11 25  1  0
 12 13  1  0
 12 45  1  0
 13 14  1  0
 13 23  2  0
 14 15  1  1
 14 16  1  0
 14 19  1  0
 16 17  2  0
 16 18  1  0
 18 46  1  0
 19 20  1  0
 19 47  1  0
 19 48  1  0
 20 21  2  0
 20 22  1  0
 22 49  1  0
 23 24  1  0
 23 50  1  0
 24 25  2  0
 24 27  1  0
 25 26  1  0
 26 51  1  0
 27 28  2  0
 27 37  1  0
 28 29  1  0
 28 38  1  0
 29 30  2  0
 29 52  1  0
 30 31  1  0
 30 53  1  0
 31 32  1  0
 31 37  2  0
 32 33  1  0
 32 54  1  0
 32 55  1  0
 33 34  1  0
 33 56  1  0
 34 35  2  0
 34 36  1  0
 36 57  1  0
 36 58  1  0
 37 59  1  0
 38 60  1  0
 39 40  2  0
 39 41  1  0
 40 61  1  0
 41 62  1  0
 41 63  1  0
M  END

