63

C          0.18040       -0.06230       -0.10920
C          1.55580        0.26060       -0.01400
C          2.19130        0.43020        1.21140
C          1.42990        0.26880        2.37750
C          0.04950       -0.05320        2.27760
C         -0.59240       -0.21710        1.05110
N         -0.38990       -0.14540        3.58620
H         -1.32350       -0.38780        3.89100
C          0.68080        0.11190        4.41140
N          1.77970        0.36420        3.70830
C          0.62490        0.10680        5.86430
C         -0.58140       -0.13820        6.53700
C         -0.63590       -0.16980        7.92670
C         -1.93430       -0.36040        8.68250
H         -1.68450       -0.74490        9.68660
C         -2.84670       -1.43230        8.09180
O         -2.55790       -2.23120        7.24010
O         -4.05110       -1.43230        8.70420
C         -2.68200        0.96590        8.92010
C         -3.27750        1.55010        7.66160
O         -3.50660        0.93860        6.64420
O         -3.56920        2.85350        7.80210
C          0.55090        0.05330        8.63960
C          1.77750        0.31370        8.01930
C          1.82120        0.34370        6.60080
O          2.98000        0.58270        5.98670
C          3.00270        0.55360        8.82540
C          3.33230       -0.26510        9.92710
C          4.49010       -0.01100       10.67570
C          5.33400        1.04640       10.35100
C          5.03050        1.87700        9.26120
C          5.92210        3.05170        8.91970
N          5.81540        4.16730        9.85340
C          6.59400        4.19030       10.99180
O          7.49680        3.39700       11.20810
N          6.25520        5.19170       11.88760
C          3.87570        1.61250        8.52150
O          2.51060       -1.30590       10.24100
C         -0.43840       -0.25810       -1.45790
N          0.14480       -0.76470       -2.48120
N         -1.77150        0.10800       -1.54230
H          2.12230        0.39710       -0.93750
H          3.25000        0.68720        1.27360
H         -1.64760       -0.48440        0.97980
H         -1.49700       -0.30960        5.97550
H         -4.57010       -2.14320        8.29140
H         -3.51630        0.81850        9.62510
H         -2.00800        1.70690        9.37280
H         -3.97890        3.14470        6.96890
H          0.52690        0.02000        9.72980
H          2.82730        0.55700        4.99690
H          4.72920       -0.66370       11.52180
H          6.23310        1.24160       10.93920
H          5.68620        3.41900        7.90900
H          6.97640        2.74440        8.92960
H          4.90360        4.60740        9.91580
H          5.84170        6.04480       11.52800
H          6.94050        5.32590       12.62230
H          3.63900        2.24120        7.66230
H          2.90730       -1.80910       10.96380
H          1.07910       -1.09430       -2.23150
H         -2.05560        0.92450       -1.01240
H         -2.14320        0.06570       -2.48650
