rmsd87.gzmat
 OpenBabel08211713433D

 63 66  0  0  1  0  0  0  0  0999 V2000
    0.0000    0.0000    0.0000 C   0  0  0  0  0  0  0  0  0  0  0  0
    1.4116    0.0000    0.0000 C   0  0  0  0  0  0  0  0  0  0  0  0
    2.1323    0.0000    1.1797 C   0  0  0  0  0  0  0  0  0  0  0  0
    1.4143   -0.0058    2.3817 C   0  0  0  0  0  0  0  0  0  0  0  0
   -0.0259   -0.0049    2.3644 C   0  0  2  0  0  0  0  0  0  0  0  0
   -0.7442    0.0012    1.1677 C   0  0  0  0  0  0  0  0  0  0  0  0
   -0.4222   -0.0064    3.6997 N   0  0  0  0  0  0  0  0  0  0  0  0
   -1.3546   -0.0691    4.0506 H   0  0  0  0  0  0  0  0  0  0  0  0
    0.7499   -0.0313    4.4779 C   0  0  0  0  0  0  0  0  0  0  0  0
    1.8520   -0.0190    3.7040 N   0  0  0  0  0  0  0  0  0  0  0  0
    0.7538   -0.0516    5.9293 C   0  0  0  0  0  0  0  0  0  0  0  0
    1.9594    0.1805    6.6051 C   0  0  0  0  0  0  0  0  0  0  0  0
    2.0080    0.1772    7.9963 C   0  0  0  0  0  0  0  0  0  0  0  0
    3.2986    0.5018    8.6920 C   0  0  2  0  0  0  0  0  0  0  0  0
    4.1447    0.5666    7.9450 H   0  0  0  0  0  0  0  0  0  0  0  0
    3.6145   -0.5983    9.6811 C   0  0  0  0  0  0  0  0  0  0  0  0
    3.2286   -0.7086   10.8150 O   0  0  0  0  0  0  0  0  0  0  0  0
    4.4241   -1.5228    9.1172 O   0  0  0  0  0  0  0  0  0  0  0  0
    3.1655    1.8382    9.4345 C   0  0  0  0  0  0  0  0  0  0  0  0
    4.5034    2.4440    9.7077 C   0  0  0  0  0  0  0  0  0  0  0  0
    5.5897    2.0734    9.3510 O   0  0  0  0  0  0  0  0  0  0  0  0
    4.3590    3.5672   10.4578 O   0  0  0  0  0  0  0  0  0  0  0  0
    0.8574   -0.0988    8.7421 C   0  0  0  0  0  0  0  0  0  0  0  0
   -0.3493   -0.3580    8.1005 C   0  0  0  0  0  0  0  0  0  0  0  0
   -0.3926   -0.3037    6.6971 C   0  0  0  0  0  0  0  0  0  0  0  0
   -1.5422   -0.5114    6.0091 O   0  0  0  0  0  0  0  0  0  0  0  0
   -1.5597   -0.6799    8.8456 C   0  0  0  0  0  0  0  0  0  0  0  0
   -2.0536    0.1684    9.8498 C   0  0  0  0  0  0  0  0  0  0  0  0
   -3.2620   -0.0844   10.5024 C   0  0  0  0  0  0  0  0  0  0  0  0
   -4.0022   -1.2022   10.1306 C   0  0  0  0  0  0  0  0  0  0  0  0
   -3.5166   -2.0747    9.1541 C   0  0  0  0  0  0  0  0  0  0  0  0
   -4.3594   -3.2248    8.6700 C   0  0  0  0  0  0  0  0  0  0  0  0
   -4.7590   -3.0161    7.2655 N   0  0  0  0  0  0  0  0  0  0  0  0
   -5.6876   -1.9878    7.0450 C   0  0  0  0  0  0  0  0  0  0  0  0
   -6.3638   -1.5049    7.9305 O   0  0  0  0  0  0  0  0  0  0  0  0
   -5.7779   -1.5319    5.7203 N   0  0  0  0  0  0  0  0  0  0  0  0
   -2.2862   -1.8327    8.5464 C   0  0  0  0  0  0  0  0  0  0  0  0
   -1.2897    1.2533   10.1265 O   0  0  0  0  0  0  0  0  0  0  0  0
   -0.7148    0.0137   -1.3082 C   0  0  0  0  0  0  0  0  0  0  0  0
   -1.3015    1.0165   -1.8708 N   0  0  0  0  0  0  0  0  0  0  0  0
   -0.6822   -1.2020   -1.9986 N   0  0  0  0  0  0  0  0  0  0  0  0
    1.9326   -0.0013   -0.9592 H   0  0  0  0  0  0  0  0  0  0  0  0
    3.2209    0.0019    1.1957 H   0  0  0  0  0  0  0  0  0  0  0  0
   -1.8301    0.0086    1.1584 H   0  0  0  0  0  0  0  0  0  0  0  0
    2.8656    0.3671    6.0120 H   0  0  0  0  0  0  0  0  0  0  0  0
    4.6671   -2.2646    9.7263 H   0  0  0  0  0  0  0  0  0  0  0  0
    2.5451    2.5524    8.8425 H   0  0  0  0  0  0  0  0  0  0  0  0
    2.5996    1.7115   10.3901 H   0  0  0  0  0  0  0  0  0  0  0  0
    5.2150    4.0114   10.6774 H   0  0  0  0  0  0  0  0  0  0  0  0
    0.8972   -0.1145    9.8371 H   0  0  0  0  0  0  0  0  0  0  0  0
   -2.3575   -0.5042    6.5757 H   0  0  0  0  0  0  0  0  0  0  0  0
   -3.6307    0.5885   11.2709 H   0  0  0  0  0  0  0  0  0  0  0  0
   -4.9775   -1.3860   10.5890 H   0  0  0  0  0  0  0  0  0  0  0  0
   -5.2852   -3.3412    9.2869 H   0  0  0  0  0  0  0  0  0  0  0  0
   -3.8096   -4.1920    8.7374 H   0  0  0  0  0  0  0  0  0  0  0  0
   -4.0359   -3.1790    6.5785 H   0  0  0  0  0  0  0  0  0  0  0  0
   -5.5250   -2.1296    4.9594 H   0  0  0  0  0  0  0  0  0  0  0  0
   -6.5481   -0.9141    5.5190 H   0  0  0  0  0  0  0  0  0  0  0  0
   -1.8851   -2.5408    7.8180 H   0  0  0  0  0  0  0  0  0  0  0  0
   -1.6982    1.8314   10.8192 H   0  0  0  0  0  0  0  0  0  0  0  0
   -1.2558    1.9306   -1.4599 H   0  0  0  0  0  0  0  0  0  0  0  0
   -0.5767   -2.0415   -1.4691 H   0  0  0  0  0  0  0  0  0  0  0  0
   -1.2451   -1.2750   -2.8270 H   0  0  0  0  0  0  0  0  0  0  0  0
  1  2  1  0  0  0  0
  1  6  2  0  0  0  0
  2  3  2  0  0  0  0
  3 43  1  0  0  0  0
  3  4  1  0  0  0  0
  4 10  2  0  0  0  0
  5  6  1  1  0  0  0
  5  4  1  0  0  0  0
  5  7  1  0  0  0  0
  7  8  1  0  0  0  0
  7  9  1  0  0  0  0
  9 11  1  0  0  0  0
 10  9  2  0  0  0  0
 11 12  2  0  0  0  0
 11 25  1  0  0  0  0
 12 13  1  0  0  0  0
 13 14  1  0  0  0  0
 13 23  2  0  0  0  0
 14 15  1  6  0  0  0
 14 19  1  0  0  0  0
 14 16  1  0  0  0  0
 16 17  2  0  0  0  0
 18 16  1  0  0  0  0
 18 46  1  0  0  0  0
 19 20  1  0  0  0  0
 19 48  1  0  0  0  0
 20 22  1  0  0  0  0
 21 20  2  0  0  0  0
 22 49  1  0  0  0  0
 23 50  1  0  0  0  0
 24 23  1  0  0  0  0
 24 27  1  0  0  0  0
 25 24  2  0  0  0  0
 26 51  1  0  0  0  0
 26 25  1  0  0  0  0
 27 28  1  0  0  0  0
 28 38  1  0  0  0  0
 28 29  2  0  0  0  0
 29 52  1  0  0  0  0
 30 29  1  0  0  0  0
 30 53  1  0  0  0  0
 31 30  2  0  0  0  0
 32 55  1  0  0  0  0
 32 31  1  0  0  0  0
 32 54  1  0  0  0  0
 33 32  1  0  0  0  0
 34 33  1  0  0  0  0
 34 35  2  0  0  0  0
 36 34  1  0  0  0  0
 37 27  2  0  0  0  0
 37 31  1  0  0  0  0
 38 60  1  0  0  0  0
 39  1  1  0  0  0  0
 40 61  1  0  0  0  0
 40 39  1  0  0  0  0
 41 62  1  0  0  0  0
 41 39  2  0  0  0  0
 42  2  1  0  0  0  0
 44  6  1  0  0  0  0
 45 12  1  0  0  0  0
 47 19  1  0  0  0  0
 56 33  1  0  0  0  0
 57 36  1  0  0  0  0
 58 36  1  0  0  0  0
 59 37  1  0  0  0  0
 63 41  1  0  0  0  0
M  RAD  2   5   2  40   2
M  END
$$$$
