63

C         -0.01210        0.03780       -0.02480
C          1.40610        0.03350       -0.01200
C          2.13270       -0.00170        1.17170
C          1.42690       -0.03820        2.38580
C          0.00260       -0.03260        2.36520
C         -0.73050        0.01060        1.17840
N         -0.36220       -0.08310        3.69210
H         -1.29010       -0.09520        4.09840
C          0.79660       -0.11110        4.44120
N          1.87980       -0.08460        3.68360
C          0.81870       -0.16510        5.90540
C          2.06870       -0.16750        6.54560
C          2.17970       -0.20000        7.93570
C          3.54400       -0.21980        8.61540
H          3.38570       -0.09040        9.69320
C          4.35190        0.99050        8.17500
O          4.36290        2.05380        8.73880
O          5.05220        0.75890        7.04270
C          4.28230       -1.54360        8.38010
C          3.60980       -2.69590        9.09030
O          2.82900       -2.59960       10.00560
O          4.01050       -3.88350        8.59990
C          1.01100       -0.24420        8.70330
C         -0.25310       -0.26000        8.10620
C         -0.34540       -0.20730        6.70070
O         -1.56440       -0.18050        6.08630
C         -1.49640       -0.33170        8.92030
C         -1.78800        0.64760        9.89360
C         -2.97570        0.56400       10.63450
C         -3.87740       -0.47620       10.42580
C         -3.60860       -1.46920        9.47060
C         -4.55980       -2.63240        9.27940
N         -4.57470       -3.57340       10.39030
C         -5.40860       -3.34900       11.46850
O         -6.24770       -2.46150       11.49190
N         -5.20330       -4.20740       12.53140
C         -2.42010       -1.37760        8.73850
O         -0.89620        1.65140       10.07270
C         -0.73510        0.05120       -1.33430
N         -0.34160       -0.52010       -2.41330
N         -1.95480        0.70880       -1.31770
H          1.93290        0.08040       -0.96740
H          3.22410        0.00540        1.17200
H         -1.82140       -0.00490        1.16960
H          2.95140       -0.12770        5.90620
H          5.48800        1.59480        6.80250
H          4.36970       -1.77630        7.30990
H          5.31610       -1.49200        8.76450
H          3.56510       -4.56930        9.12690
H          1.08060       -0.28680        9.79010
H         -2.25520       -0.14880        6.76860
H         -3.19380        1.33440       11.38080
H         -4.79980       -0.53510       11.00750
H         -4.30160       -3.17990        8.35940
H         -5.58960       -2.26420        9.17570
H         -3.70760       -4.06710       10.57240
H         -4.82560       -5.13140       12.35520
H         -5.92180       -4.16020       13.24450
H         -2.18300       -2.15390        8.00470
H         -1.21470        2.25010       10.76090
H          0.50820       -1.05950       -2.23740
H         -2.01500        1.53990       -0.73990
H         -2.37470        0.80200       -2.23770
