63
rmsd119.gzmat
C          0.00000        0.00000        0.00000
C          1.41240        0.00000        0.00000
C          2.13370        0.00000        1.17890
C          1.41790        0.00020        2.38220
C         -0.02200        0.00300        2.36540
C         -0.74130        0.00220        1.16940
N         -0.41850       -0.00400        3.70100
H         -1.35040        0.07900        4.05080
C          0.75390        0.01100        4.47720
N          1.85730        0.00240        3.70520
C          0.74550        0.01140        5.92820
C          1.86070       -0.48100        6.61320
C          1.91410       -0.44230        8.00570
C          3.16180       -0.91680        8.69520
H          3.77420       -1.54980        7.98690
C          2.79310       -1.74980        9.89970
O          2.42710       -1.38330       10.98470
O          2.93800       -3.06710        9.61770
C          4.00660        0.27730        9.16470
C          4.46620        1.13070        8.02090
O          4.74700        2.29870        8.04840
O          4.57350        0.40670        6.88010
C          0.84540        0.08370        8.73450
C         -0.29030        0.55910        8.08200
C         -0.32550        0.52140        6.67940
O         -1.37910        0.98320        5.96620
C         -1.40270        1.11460        8.84510
C         -1.18840        2.17720        9.74330
C         -2.23120        2.75490       10.46790
C         -3.51890        2.25070       10.30460
C         -3.75250        1.18590        9.43580
C         -5.14140        0.63360        9.25840
N         -5.29310       -0.68910        9.88320
C         -4.92540       -1.79820        9.11130
O         -4.70020       -1.73010        7.91680
N         -4.86090       -3.01580        9.79260
C         -2.69680        0.61800        8.71840
O          0.09480        2.59570        9.85260
C         -0.70550       -0.02630       -1.31160
N         -0.67040       -0.96140       -2.20130
N         -1.54220        1.07130       -1.55030
H          1.93690        0.00120       -0.95610
H          3.22190        0.00340        1.19280
H         -1.82930       -0.00070        1.15480
H          2.70460       -0.88020        6.03360
H          2.67990       -3.66700       10.36030
H          3.42390        0.90920        9.87850
H          4.89410       -0.06610        9.74020
H          4.77850        0.94690        6.07400
H          0.89250        0.13600        9.82810
H         -2.10670        1.34610        6.53790
H         -2.04570        3.58100       11.14670
H         -4.34340        2.69520       10.86200
H         -5.39130        0.55400        8.16820
H         -5.91350        1.30480        9.70300
H         -5.17060       -0.71370       10.88480
H         -5.30450       -3.14360       10.67640
H         -4.77150       -3.84550        9.23170
H         -2.89060       -0.23850        8.05790
H          0.18850        3.36760       10.46580
H         -0.17760       -1.81670       -2.02350
H         -1.30170        1.94340       -1.12630
H         -1.95290        1.13790       -2.46550
