63

C         -0.06050        0.34120        0.16070
C          1.25250       -0.19620        0.13330
C          1.95000       -0.49520        1.29880
C          1.32000       -0.26060        2.53140
C         -0.00100        0.27450        2.54970
C         -0.70160        0.57920        1.38330
N         -0.31820        0.36660        3.88610
H         -1.16830        0.70960        4.31810
C          0.76960       -0.08600        4.60380
N          1.76200       -0.46750        3.81730
C          0.82530       -0.12290        6.06800
C          2.01300       -0.57310        6.66730
C          2.15670       -0.62240        8.05100
C          3.47750       -1.04980        8.67740
H          4.08680       -1.51870        7.89380
C          3.21450       -2.09320        9.74820
O          3.08490       -1.86610       10.92720
O          3.09980       -3.32660        9.22670
C          4.23790        0.14780        9.27300
C          4.45620        1.24690        8.25920
O          4.18000        2.40850        8.41370
O          5.01590        0.77520        7.12340
C          1.09080       -0.20580        8.85660
C         -0.10990        0.25160        8.30420
C         -0.24200        0.28200        6.89780
O         -1.40080        0.68380        6.30600
C         -1.22450        0.71240        9.17380
C         -1.69230       -0.07910       10.25100
C         -2.73820        0.38540       11.05410
C         -3.33450        1.62380       10.80430
C         -2.89970        2.42360        9.74530
C         -3.53030        3.77120        9.45410
N         -2.59850        4.88640        9.45810
C         -1.91940        5.21920        8.30140
O         -2.13510        4.67870        7.22580
N         -0.96330        6.19690        8.46410
C         -1.84370        1.95110        8.94890
O         -1.10060       -1.28010       10.46720
C         -0.77340        0.67250       -1.11290
N         -1.58440        1.65250       -1.28510
N         -0.47090       -0.15470       -2.17940
H          1.72760       -0.35030       -0.83700
H          2.96460       -0.89650        1.26960
H         -1.72050        0.97030        1.40850
H          2.82530       -0.87140        6.00400
H          2.87460       -3.92330        9.96130
H          3.68940        0.57220       10.12220
H          5.22260       -0.18570        9.64160
H          5.08730        1.52580        6.50890
H          1.18740       -0.23940        9.94220
H         -2.04000        0.94860        6.98670
H         -3.08920       -0.23390       11.88530
H         -4.15030        1.96480       11.44750
H         -4.33070        3.97120       10.18360
H         -3.98640        3.76070        8.45360
H         -2.14800        5.09990       10.34130
H         -1.04380        6.86530        9.22070
H         -0.55920        6.54280        7.60220
H         -1.49180        2.58360        8.13040
H         -1.50280       -1.70460       11.23620
H         -1.60930        2.23930       -0.44910
H         -0.27750       -1.12750       -1.97190
H         -1.04600        0.00650       -3.00020
