rmsd5.gzmat
 OpenBabel08211713373D

 31 33  0  0  0  0  0  0  0  0999 V2000
    0.0000    0.0000    0.0000 O   0  0  0  0  0  0  0  0  0  0  0  0
    1.4238    0.0000    0.0000 C   0  0  0  0  0  0  0  0  0  0  0  0
    1.9654    0.0000    1.2648 C   0  0  0  0  0  0  0  0  0  0  0  0
    0.8668    0.0012    2.1672 C   0  0  0  0  0  0  0  0  0  0  0  0
    0.3264    0.0031    3.4887 C   0  0  0  0  0  0  0  0  0  0  0  0
   -1.0286    0.0014    3.4291 N   0  0  0  0  0  0  0  0  0  0  0  0
   -1.4178    0.0046    2.0971 N   0  0  0  0  0  0  0  0  0  0  0  0
   -0.2924   -0.0009    1.3256 C   0  0  0  0  0  0  0  0  0  0  0  0
   -2.7789   -0.0400    1.7173 C   0  0  0  0  0  0  0  0  0  0  0  0
   -3.7834   -0.0385    2.6944 C   0  0  0  0  0  0  0  0  0  0  0  0
   -5.1139   -0.0950    2.2936 C   0  0  0  0  0  0  0  0  0  0  0  0
   -5.4429   -0.1477    0.9394 C   0  0  0  0  0  0  0  0  0  0  0  0
   -4.4359   -0.1424   -0.0243 C   0  0  0  0  0  0  0  0  0  0  0  0
   -3.0974   -0.0882    0.3530 C   0  0  0  0  0  0  0  0  0  0  0  0
    1.0454    0.0079    4.7742 C   0  0  0  0  0  0  0  0  0  0  0  0
    2.0458   -0.0021   -1.3118 C   0  0  0  0  0  0  0  0  0  0  0  0
    3.2323   -0.0294   -1.5299 O   0  0  0  0  0  0  0  0  0  0  0  0
    1.1131    0.0331   -2.2985 O   0  0  0  0  0  0  0  0  0  0  0  0
    1.6250    0.0224   -3.6282 C   0  0  0  0  0  0  0  0  0  0  0  0
    3.0115   -0.0016    1.5208 H   0  0  0  0  0  0  0  0  0  0  0  0
   -3.5190    0.0047    3.7536 H   0  0  0  0  0  0  0  0  0  0  0  0
   -5.9016   -0.1001    3.0462 H   0  0  0  0  0  0  0  0  0  0  0  0
   -6.4862   -0.1929    0.6347 H   0  0  0  0  0  0  0  0  0  0  0  0
   -4.6944   -0.1826   -1.0825 H   0  0  0  0  0  0  0  0  0  0  0  0
   -2.3190   -0.0847   -0.4096 H   0  0  0  0  0  0  0  0  0  0  0  0
    0.3586   -0.0103    5.6376 H   0  0  0  0  0  0  0  0  0  0  0  0
    1.6733    0.9084    4.8760 H   0  0  0  0  0  0  0  0  0  0  0  0
    1.7076   -0.8688    4.8655 H   0  0  0  0  0  0  0  0  0  0  0  0
    0.7133    0.1041   -4.2325 H   0  0  0  0  0  0  0  0  0  0  0  0
    2.1532   -0.9168   -3.8233 H   0  0  0  0  0  0  0  0  0  0  0  0
    2.2924    0.8760   -3.7904 H   0  0  0  0  0  0  0  0  0  0  0  0
  1  8  1  0  0  0  0
  2  1  1  0  0  0  0
  2  3  2  0  0  0  0
  3 20  1  0  0  0  0
  3  4  1  0  0  0  0
  4  5  1  0  0  0  0
  5 15  1  0  0  0  0
  6  5  2  0  0  0  0
  7  6  1  0  0  0  0
  8  7  1  0  0  0  0
  8  4  2  0  0  0  0
  9  7  1  0  0  0  0
  9 10  2  0  0  0  0
 10 21  1  0  0  0  0
 11 10  1  0  0  0  0
 11 22  1  0  0  0  0
 12 11  2  0  0  0  0
 13 14  2  0  0  0  0
 13 12  1  0  0  0  0
 14  9  1  0  0  0  0
 15 28  1  0  0  0  0
 15 27  1  0  0  0  0
 15 26  1  0  0  0  0
 16  2  1  0  0  0  0
 17 16  2  0  0  0  0
 18 16  1  0  0  0  0
 19 18  1  0  0  0  0
 23 12  1  0  0  0  0
 24 13  1  0  0  0  0
 25 14  1  0  0  0  0
 29 19  1  0  0  0  0
 30 19  1  0  0  0  0
 31 19  1  0  0  0  0
M  END
$$$$
