rmsd34.gzmat
 OpenBabel08211713373D

 31 33  0  0  0  0  0  0  0  0999 V2000
    0.0000    0.0000    0.0000 O   0  0  0  0  0  0  0  0  0  0  0  0
    1.4241    0.0000    0.0000 C   0  0  0  0  0  0  0  0  0  0  0  0
    1.9642    0.0000    1.2657 C   0  0  0  0  0  0  0  0  0  0  0  0
    0.8648   -0.0014    2.1671 C   0  0  0  0  0  0  0  0  0  0  0  0
    0.3252   -0.0033    3.4889 C   0  0  0  0  0  0  0  0  0  0  0  0
   -1.0300   -0.0010    3.4300 N   0  0  0  0  0  0  0  0  0  0  0  0
   -1.4191    0.0028    2.0982 N   0  0  0  0  0  0  0  0  0  0  0  0
   -0.2937    0.0002    1.3257 C   0  0  0  0  0  0  0  0  0  0  0  0
   -2.7802   -0.0012    1.7161 C   0  0  0  0  0  0  0  0  0  0  0  0
   -3.7889    0.0062    2.6887 C   0  0  0  0  0  0  0  0  0  0  0  0
   -5.1186   -0.0001    2.2809 C   0  0  0  0  0  0  0  0  0  0  0  0
   -5.4422   -0.0150    0.9245 C   0  0  0  0  0  0  0  0  0  0  0  0
   -4.4309   -0.0209   -0.0348 C   0  0  0  0  0  0  0  0  0  0  0  0
   -3.0936   -0.0128    0.3496 C   0  0  0  0  0  0  0  0  0  0  0  0
    1.0486   -0.0106    4.7717 C   0  0  0  0  0  0  0  0  0  0  0  0
    2.0450   -0.0027   -1.3130 C   0  0  0  0  0  0  0  0  0  0  0  0
    3.2285    0.0809   -1.5344 O   0  0  0  0  0  0  0  0  0  0  0  0
    1.1183   -0.1219   -2.2994 O   0  0  0  0  0  0  0  0  0  0  0  0
    1.6356   -0.1371   -3.6275 C   0  0  0  0  0  0  0  0  0  0  0  0
    3.0089   -0.0001    1.5271 H   0  0  0  0  0  0  0  0  0  0  0  0
   -3.5286    0.0162    3.7494 H   0  0  0  0  0  0  0  0  0  0  0  0
   -5.9108    0.0067    3.0291 H   0  0  0  0  0  0  0  0  0  0  0  0
   -6.4852   -0.0225    0.6154 H   0  0  0  0  0  0  0  0  0  0  0  0
   -4.6842   -0.0323   -1.0950 H   0  0  0  0  0  0  0  0  0  0  0  0
   -2.3109   -0.0164   -0.4083 H   0  0  0  0  0  0  0  0  0  0  0  0
    0.3657    0.0110    5.6377 H   0  0  0  0  0  0  0  0  0  0  0  0
    1.7154    0.8630    4.8602 H   0  0  0  0  0  0  0  0  0  0  0  0
    1.6728   -0.9140    4.8720 H   0  0  0  0  0  0  0  0  0  0  0  0
    0.7344   -0.2953   -4.2318 H   0  0  0  0  0  0  0  0  0  0  0  0
    2.3500   -0.9572   -3.7553 H   0  0  0  0  0  0  0  0  0  0  0  0
    2.1103    0.8222   -3.8587 H   0  0  0  0  0  0  0  0  0  0  0  0
  1  8  1  0  0  0  0
  2  1  1  0  0  0  0
  2  3  2  0  0  0  0
  3 20  1  0  0  0  0
  3  4  1  0  0  0  0
  4  5  1  0  0  0  0
  5 15  1  0  0  0  0
  6  5  2  0  0  0  0
  7  6  1  0  0  0  0
  8  7  1  0  0  0  0
  8  4  2  0  0  0  0
  9  7  1  0  0  0  0
  9 10  2  0  0  0  0
 10 21  1  0  0  0  0
 11 10  1  0  0  0  0
 11 22  1  0  0  0  0
 12 11  2  0  0  0  0
 13 14  2  0  0  0  0
 13 12  1  0  0  0  0
 14  9  1  0  0  0  0
 15 27  1  0  0  0  0
 15 28  1  0  0  0  0
 15 26  1  0  0  0  0
 16  2  1  0  0  0  0
 17 16  2  0  0  0  0
 18 16  1  0  0  0  0
 19 18  1  0  0  0  0
 23 12  1  0  0  0  0
 24 13  1  0  0  0  0
 25 14  1  0  0  0  0
 29 19  1  0  0  0  0
 30 19  1  0  0  0  0
 31 19  1  0  0  0  0
M  END
$$$$
