31
rmsd34.gzmat
O          0.00000        0.00000        0.00000
C          1.42410        0.00000        0.00000
C          1.96420        0.00000        1.26570
C          0.86480       -0.00140        2.16710
C          0.32520       -0.00330        3.48890
N         -1.03000       -0.00100        3.43000
N         -1.41910        0.00280        2.09820
C         -0.29370        0.00020        1.32570
C         -2.78020       -0.00120        1.71610
C         -3.78890        0.00620        2.68870
C         -5.11860       -0.00010        2.28090
C         -5.44220       -0.01500        0.92450
C         -4.43090       -0.02090       -0.03480
C         -3.09360       -0.01280        0.34960
C          1.04860       -0.01060        4.77170
C          2.04500       -0.00270       -1.31300
O          3.22850        0.08090       -1.53440
O          1.11830       -0.12190       -2.29940
C          1.63560       -0.13710       -3.62750
H          3.00890       -0.00010        1.52710
H         -3.52860        0.01620        3.74940
H         -5.91080        0.00670        3.02910
H         -6.48520       -0.02250        0.61540
H         -4.68420       -0.03230       -1.09500
H         -2.31090       -0.01640       -0.40830
H          0.36570        0.01100        5.63770
H          1.71540        0.86300        4.86020
H          1.67280       -0.91400        4.87200
H          0.73440       -0.29530       -4.23180
H          2.35000       -0.95720       -3.75530
H          2.11030        0.82220       -3.85870
