31
rmsd2.gzmat
O          0.00000        0.00000        0.00000
C          1.42380        0.00000        0.00000
C          1.96560        0.00000        1.26470
C          0.86720       -0.00170        2.16690
C          0.32880       -0.00690        3.48910
N         -1.02620       -0.01150        3.43040
N         -1.41670       -0.01130        2.09900
C         -0.29250       -0.00160        1.32590
C         -2.77950        0.00860        1.72300
C         -3.10190        0.06610        0.36000
C         -4.44230        0.08860       -0.01400
C         -5.44690        0.05420        0.95170
C         -5.11380       -0.00510        2.30480
C         -3.78140       -0.02890        2.70220
C          1.04950       -0.00370        4.77360
C          2.04900       -0.00270       -1.31010
O          3.23640       -0.02880       -1.52390
O          1.12120        0.02650       -2.30180
C          1.64550        0.03130       -3.62700
H          3.01140        0.00090        1.52160
H         -2.32470        0.09530       -0.40330
H         -4.70390        0.13430       -1.07120
H         -6.49180        0.07450        0.65000
H         -5.90020       -0.03240        3.05850
H         -3.51350       -0.07500        3.76040
H          0.36430       -0.02150        5.63830
H          1.67840        0.89630        4.87500
H          1.71180       -0.88050        4.86320
H          0.74040       -0.02810       -4.24340
H          2.29710       -0.83480       -3.78770
H          2.19440        0.96130       -3.80890
