31

O         -0.02520       -0.00150        0.03260
C          1.37180        0.01070       -0.03180
C          1.93230        0.00300        1.22570
C          0.83590       -0.01450        2.14770
C          0.29270       -0.03130        3.47670
N         -1.03220       -0.04180        3.42280
N         -1.41130       -0.03230        2.09890
C         -0.29080       -0.01600        1.34010
C         -2.77100       -0.03980        1.71710
C         -3.11450       -0.03090        0.35730
C         -4.46230       -0.03840       -0.00590
C         -5.46360       -0.05470        0.96840
C         -5.10660       -0.06350        2.32050
C         -3.76600       -0.05620        2.70350
C          1.00780       -0.03760        4.78680
C          2.02850        0.02880       -1.34080
O          3.23130        0.04010       -1.47870
O          1.14910        0.03150       -2.35670
C          1.71670        0.04900       -3.66490
H          3.00350        0.00990        1.41090
H         -2.33880       -0.01810       -0.40850
H         -4.72800       -0.03140       -1.06560
H         -6.51580       -0.06050        0.67620
H         -5.88140       -0.07630        3.09080
H         -3.46740       -0.06290        3.75060
H          0.28060       -0.05320        5.60950
H          1.64500        0.85550        4.89430
H          1.66270       -0.91970        4.87600
H          0.87180        0.05090       -4.36390
H          2.34810       -0.83730       -3.82920
H          2.33660        0.94670       -3.81030
