31
rmsd6.gzmat
O          0.00000        0.00000        0.00000
C          1.42370        0.00000        0.00000
C          1.96510        0.00000        1.26490
C          0.86630        0.00000        2.16710
C          0.32570       -0.00430        3.48850
N         -1.02950       -0.01040        3.42880
N         -1.41790       -0.00740        2.09700
C         -0.29240       -0.00120        1.32570
C         -2.77770       -0.02570        1.71130
C         -3.08930        0.05490        0.34660
C         -4.42530        0.02880       -0.04110
C         -5.43660       -0.07490        0.91290
C         -5.11460       -0.15050        2.26760
C         -3.78590       -0.12650        2.67860
C          1.04600        0.00010        4.77320
C          2.04620       -0.00500       -1.31150
O          3.23220       -0.04940       -1.52910
O          1.11610        0.05030       -2.30010
C          1.63480        0.02920       -3.62760
H          3.01080       -0.00120        1.52200
H         -2.30680        0.13820       -0.40750
H         -4.67850        0.08990       -1.09950
H         -6.47820       -0.09630        0.60010
H         -5.90630       -0.22950        3.01220
H         -3.52690       -0.18450        3.73810
H          0.36060       -0.01470        5.63780
H          1.67700        0.89880        4.87270
H          1.70640       -0.87800        4.86470
H          0.73240        0.15330       -4.23850
H          2.12400       -0.93090       -3.82320
H          2.33820        0.85510       -3.78170
