31
rmsd12.gzmat
O          0.00000        0.00000        0.00000
C          1.42370        0.00000        0.00000
C          1.96530        0.00000        1.26490
C          0.86710        0.00190        2.16730
C          0.32890        0.00950        3.48950
N         -1.02590        0.01350        3.43110
N         -1.41670        0.00760        2.09970
C         -0.29260        0.00120        1.32620
C         -2.78050        0.01890        1.72780
C         -3.77520        0.12250        2.70980
C         -5.10930        0.14320        2.31880
C         -5.45100        0.05920        0.96910
C         -4.45390       -0.05050        0.00090
C         -3.11160       -0.07130        0.36880
C          1.04740        0.01280        4.77530
C          2.05210        0.00620       -1.30870
O          3.24100        0.00660       -1.51750
O          1.12720        0.01350       -2.30370
C          1.65420        0.03100       -3.62800
H          3.01140       -0.00120        1.52110
H         -3.49990        0.18560        3.76530
H         -5.89000        0.22670        3.07440
H         -6.49740        0.07860        0.67240
H         -4.72320       -0.12090       -1.05300
H         -2.33960       -0.15760       -0.39540
H          0.36020        0.05580        5.63770
H          1.72440        0.87920        4.85300
H          1.66020       -0.89640        4.89190
H          0.74850        0.03300       -4.24610
H          2.26000       -0.86330       -3.80920
H          2.24990        0.93600       -3.78880
