28
rmsd238.gzmat
N          0.00000        0.00000        0.00000
C          1.36690        0.00000        0.00000
O          1.90320        0.00000        1.22230
C          3.34050        0.00880        1.27200
N          2.15160       -0.00040       -1.11360
C          1.47140        0.00350       -2.29550
O          2.25260       -0.00690       -3.37700
C          1.56260       -0.00630       -4.63990
N          0.11000        0.01400       -2.41790
C         -0.55750        0.01100       -1.23730
O         -1.92140        0.02180       -1.39610
N         -2.63320       -0.01400       -0.21580
C         -2.67140       -1.23150        0.54830
O         -2.39220       -2.30230        0.10200
C         -3.17560       -0.85690        1.92730
C         -3.18160        0.68190        1.97720
C         -2.67540        1.15010        0.62700
O         -2.40690        2.25060        0.25260
H          3.51550        0.05350        2.35420
H          3.74380        0.88880        0.75770
H          3.74590       -0.90850        0.83080
H          2.40410       -0.04460       -5.34230
H          0.97510        0.91150       -4.75800
H          0.91600       -0.88670       -4.73340
H         -4.17680       -1.29000        2.10820
H         -2.50880       -1.29530        2.69780
H         -4.18810        1.09450        2.17770
H         -2.52400        1.07400        2.77950
