28
rmsd204.gzmat
N          0.00000        0.00000        0.00000
C          1.36610        0.00000        0.00000
O          1.90410        0.00000        1.22150
C          3.34160        0.01490        1.26690
N          2.15020        0.00470       -1.11360
C          1.47040        0.01980       -2.29540
O          2.25600        0.01750       -3.37360
C          1.57310        0.02590       -4.63970
N          0.10880        0.03530       -2.41800
C         -0.55820        0.02330       -1.23690
O         -1.92300        0.04190       -1.38850
N         -2.62790       -0.02230       -0.20480
C         -2.65330        1.11350        0.67690
O         -2.38250        2.22390        0.33580
C         -3.14830        0.60520        2.01680
C         -3.17930       -0.93030        1.90880
C         -2.67850       -1.26350        0.51800
O         -2.41210       -2.32200        0.03600
H          3.51950        0.09960        2.34590
H          3.74550        0.87570        0.72130
H          3.74330       -0.91830        0.85720
H          2.41810       -0.01110       -5.33840
H          0.98910        0.94570       -4.75620
H          0.92620       -0.85350       -4.73820
H         -2.46650        0.95010        2.82100
H         -4.14020        1.03330        2.25210
H         -2.52760       -1.41290        2.66510
H         -4.19210       -1.34540        2.06730
