rmsd205.gzmat
 OpenBabel08211713403D

 28 29  0  0  0  0  0  0  0  0999 V2000
    0.0000    0.0000    0.0000 N   0  0  0  0  0  0  0  0  0  0  0  0
    1.3663    0.0000    0.0000 C   0  0  0  0  0  0  0  0  0  0  0  0
    1.9024    0.0000    1.2224 O   0  0  0  0  0  0  0  0  0  0  0  0
    3.3396    0.0204    1.2727 C   0  0  0  0  0  0  0  0  0  0  0  0
    2.1500    0.0025   -1.1138 N   0  0  0  0  0  0  0  0  0  0  0  0
    1.4693    0.0080   -2.2952 C   0  0  0  0  0  0  0  0  0  0  0  0
    2.2510    0.0072   -3.3763 O   0  0  0  0  0  0  0  0  0  0  0  0
    1.5623    0.0467   -4.6389 C   0  0  0  0  0  0  0  0  0  0  0  0
    0.1074    0.0125   -2.4177 N   0  0  0  0  0  0  0  0  0  0  0  0
   -0.5592    0.0088   -1.2372 C   0  0  0  0  0  0  0  0  0  0  0  0
   -1.9242    0.0197   -1.3881 O   0  0  0  0  0  0  0  0  0  0  0  0
   -2.6235    0.0293   -0.1984 N   0  0  0  0  0  0  0  0  0  0  0  0
   -2.6784   -1.1710    0.5930 C   0  0  0  0  0  0  0  0  0  0  0  0
   -2.4743   -2.2617    0.1538 O   0  0  0  0  0  0  0  0  0  0  0  0
   -3.0983   -0.7523    1.9873 C   0  0  0  0  0  0  0  0  0  0  0  0
   -3.0451    0.7863    2.0069 C   0  0  0  0  0  0  0  0  0  0  0  0
   -2.5978    1.2107    0.6231 C   0  0  0  0  0  0  0  0  0  0  0  0
   -2.3180    2.2945    0.2097 O   0  0  0  0  0  0  0  0  0  0  0  0
    3.5130    0.0532    2.3559 H   0  0  0  0  0  0  0  0  0  0  0  0
    3.7346    0.9113    0.7706 H   0  0  0  0  0  0  0  0  0  0  0  0
    3.7536   -0.8874    0.8191 H   0  0  0  0  0  0  0  0  0  0  0  0
    2.4038    0.0015   -5.3412 H   0  0  0  0  0  0  0  0  0  0  0  0
    0.9967    0.9805   -4.7376 H   0  0  0  0  0  0  0  0  0  0  0  0
    0.8954   -0.8165   -4.7499 H   0  0  0  0  0  0  0  0  0  0  0  0
   -4.1030   -1.1453    2.2284 H   0  0  0  0  0  0  0  0  0  0  0  0
   -2.4080   -1.2004    2.7314 H   0  0  0  0  0  0  0  0  0  0  0  0
   -4.0206    1.2416    2.2590 H   0  0  0  0  0  0  0  0  0  0  0  0
   -2.3255    1.1651    2.7621 H   0  0  0  0  0  0  0  0  0  0  0  0
  1  2  2  0  0  0  0
  2  3  1  0  0  0  0
  3  4  1  0  0  0  0
  4 19  1  0  0  0  0
  5  2  2  0  0  0  0
  6  5  2  0  0  0  0
  7  6  1  0  0  0  0
  8  7  1  0  0  0  0
  9  6  2  0  0  0  0
  9 10  2  0  0  0  0
 10  1  2  0  0  0  0
 11 10  1  0  0  0  0
 11 12  1  0  0  0  0
 12 13  1  0  0  0  0
 12 17  1  0  0  0  0
 13 15  1  0  0  0  0
 14 13  2  0  0  0  0
 15 16  1  0  0  0  0
 15 25  1  0  0  0  0
 15 26  1  0  0  0  0
 16 27  1  0  0  0  0
 16 28  1  0  0  0  0
 17 16  1  0  0  0  0
 18 17  2  0  0  0  0
 20  4  1  0  0  0  0
 21  4  1  0  0  0  0
 22  8  1  0  0  0  0
 23  8  1  0  0  0  0
 24  8  1  0  0  0  0
M  END
$$$$
