28

N          0.09700       -0.02490        0.01580
C          1.43940       -0.01420       -0.01530
O          2.02460       -0.01900        1.17110
C          3.45140       -0.00810        1.21560
N          2.18350        0.00060       -1.11460
C          1.48910        0.00440       -2.25820
O          2.21600        0.01900       -3.36220
C          1.53510        0.02380       -4.61790
N          0.15890       -0.00520       -2.35330
C         -0.45440       -0.01950       -1.17840
O         -1.81820       -0.02940       -1.28050
N         -2.45630       -0.04430       -0.07620
C         -2.67750       -1.24250        0.61120
O         -2.39710       -2.33540        0.20250
C         -3.31720       -0.83710        1.93160
C         -3.33180        0.70220        1.94300
C         -2.69750        1.13900        0.63000
O         -2.43510        2.24280        0.23890
H          3.71400       -0.01440        2.28040
H          3.85130        0.89110        0.72500
H          3.86540       -0.89310        0.71090
H          2.32300        0.03600       -5.38050
H          0.89370        0.91200       -4.71150
H          0.90750       -0.87270       -4.72580
H         -4.31900       -1.28810        1.99270
H         -2.71610       -1.27220        2.74320
H         -4.34230        1.13280        2.00790
H         -2.74120        1.13690        2.76250
