rmsd249.gzmat
 OpenBabel08211713403D

 28 29  0  0  0  0  0  0  0  0999 V2000
    0.0000    0.0000    0.0000 N   0  0  0  0  0  0  0  0  0  0  0  0
    1.3666    0.0000    0.0000 C   0  0  0  0  0  0  0  0  0  0  0  0
    1.9031    0.0000    1.2222 O   0  0  0  0  0  0  0  0  0  0  0  0
    3.3405   -0.0002    1.2722 C   0  0  0  0  0  0  0  0  0  0  0  0
    2.1505    0.0006   -1.1137 N   0  0  0  0  0  0  0  0  0  0  0  0
    1.4703    0.0066   -2.2955 C   0  0  0  0  0  0  0  0  0  0  0  0
    2.2535   -0.0050   -3.3755 O   0  0  0  0  0  0  0  0  0  0  0  0
    1.5681    0.0097   -4.6402 C   0  0  0  0  0  0  0  0  0  0  0  0
    0.1088    0.0185   -2.4182 N   0  0  0  0  0  0  0  0  0  0  0  0
   -0.5580    0.0132   -1.2373 C   0  0  0  0  0  0  0  0  0  0  0  0
   -1.9224    0.0243   -1.3923 O   0  0  0  0  0  0  0  0  0  0  0  0
   -2.6289   -0.0121   -0.2083 N   0  0  0  0  0  0  0  0  0  0  0  0
   -2.6502    1.1456    0.6445 C   0  0  0  0  0  0  0  0  0  0  0  0
   -2.3824    2.2469    0.2724 O   0  0  0  0  0  0  0  0  0  0  0  0
   -3.1326    0.6715    2.0011 C   0  0  0  0  0  0  0  0  0  0  0  0
   -3.1513   -0.8666    1.9360 C   0  0  0  0  0  0  0  0  0  0  0  0
   -2.6776   -1.2355    0.5451 C   0  0  0  0  0  0  0  0  0  0  0  0
   -2.4326   -2.3078    0.0822 O   0  0  0  0  0  0  0  0  0  0  0  0
    3.5158    0.0329    2.3544 H   0  0  0  0  0  0  0  0  0  0  0  0
    3.7484    0.8824    0.7668 H   0  0  0  0  0  0  0  0  0  0  0  0
    3.7409   -0.9155    0.8224 H   0  0  0  0  0  0  0  0  0  0  0  0
    2.4099   -0.0749   -5.3382 H   0  0  0  0  0  0  0  0  0  0  0  0
    1.0254    0.9529   -4.7678 H   0  0  0  0  0  0  0  0  0  0  0  0
    0.8812   -0.8403   -4.7286 H   0  0  0  0  0  0  0  0  0  0  0  0
   -2.4476    1.0446    2.7896 H   0  0  0  0  0  0  0  0  0  0  0  0
   -4.1259    1.0982    2.2334 H   0  0  0  0  0  0  0  0  0  0  0  0
   -2.4781   -1.3214    2.6909 H   0  0  0  0  0  0  0  0  0  0  0  0
   -4.1554   -1.2869    2.1290 H   0  0  0  0  0  0  0  0  0  0  0  0
  1  2  2  0  0  0  0
  2  3  1  0  0  0  0
  3  4  1  0  0  0  0
  4 19  1  0  0  0  0
  5  2  2  0  0  0  0
  6  5  2  0  0  0  0
  7  6  1  0  0  0  0
  8  7  1  0  0  0  0
  9  6  2  0  0  0  0
  9 10  2  0  0  0  0
 10  1  2  0  0  0  0
 11 10  1  0  0  0  0
 11 12  1  0  0  0  0
 12 17  1  0  0  0  0
 12 13  1  0  0  0  0
 13 15  1  0  0  0  0
 14 13  2  0  0  0  0
 15 26  1  0  0  0  0
 15 25  1  0  0  0  0
 16 15  1  0  0  0  0
 16 28  1  0  0  0  0
 16 27  1  0  0  0  0
 17 16  1  0  0  0  0
 18 17  2  0  0  0  0
 20  4  1  0  0  0  0
 21  4  1  0  0  0  0
 22  8  1  0  0  0  0
 23  8  1  0  0  0  0
 24  8  1  0  0  0  0
M  END
$$$$
