rmsd247.gzmat
 OpenBabel08211713403D

 28 29  0  0  0  0  0  0  0  0999 V2000
    0.0000    0.0000    0.0000 N   0  0  0  0  0  0  0  0  0  0  0  0
    1.3667    0.0000    0.0000 C   0  0  0  0  0  0  0  0  0  0  0  0
    1.9043    0.0000    1.2218 O   0  0  0  0  0  0  0  0  0  0  0  0
    3.3420   -0.0025    1.2687 C   0  0  0  0  0  0  0  0  0  0  0  0
    2.1513    0.0025   -1.1135 N   0  0  0  0  0  0  0  0  0  0  0  0
    1.4717    0.0145   -2.2954 C   0  0  0  0  0  0  0  0  0  0  0  0
    2.2535    0.0081   -3.3767 O   0  0  0  0  0  0  0  0  0  0  0  0
    1.5631    0.0402   -4.6387 C   0  0  0  0  0  0  0  0  0  0  0  0
    0.1103    0.0274   -2.4181 N   0  0  0  0  0  0  0  0  0  0  0  0
   -0.5572    0.0157   -1.2375 C   0  0  0  0  0  0  0  0  0  0  0  0
   -1.9212    0.0209   -1.3965 O   0  0  0  0  0  0  0  0  0  0  0  0
   -2.6322   -0.0255   -0.2163 N   0  0  0  0  0  0  0  0  0  0  0  0
   -2.6906    1.1353    0.6288 C   0  0  0  0  0  0  0  0  0  0  0  0
   -2.4335    2.2396    0.2582 O   0  0  0  0  0  0  0  0  0  0  0  0
   -3.1989    0.6579    1.9750 C   0  0  0  0  0  0  0  0  0  0  0  0
   -3.1768   -0.8809    1.9204 C   0  0  0  0  0  0  0  0  0  0  0  0
   -2.6702   -1.2470    0.5399 C   0  0  0  0  0  0  0  0  0  0  0  0
   -2.3972   -2.3159    0.0847 O   0  0  0  0  0  0  0  0  0  0  0  0
    3.5206    0.0513    2.3497 H   0  0  0  0  0  0  0  0  0  0  0  0
    3.7536    0.8686    0.7458 H   0  0  0  0  0  0  0  0  0  0  0  0
    3.7359   -0.9282    0.8351 H   0  0  0  0  0  0  0  0  0  0  0  0
    2.4013   -0.0346   -5.3426 H   0  0  0  0  0  0  0  0  0  0  0  0
    1.0193    0.9853   -4.7506 H   0  0  0  0  0  0  0  0  0  0  0  0
    0.8753   -0.8088   -4.7342 H   0  0  0  0  0  0  0  0  0  0  0  0
   -2.5508    1.0547    2.7822 H   0  0  0  0  0  0  0  0  0  0  0  0
   -4.2109    1.0586    2.1717 H   0  0  0  0  0  0  0  0  0  0  0  0
   -2.5062   -1.3138    2.6903 H   0  0  0  0  0  0  0  0  0  0  0  0
   -4.1737   -1.3249    2.0990 H   0  0  0  0  0  0  0  0  0  0  0  0
  1  2  2  0  0  0  0
  2  3  1  0  0  0  0
  3  4  1  0  0  0  0
  4 19  1  0  0  0  0
  5  2  2  0  0  0  0
  6  5  2  0  0  0  0
  7  6  1  0  0  0  0
  8  7  1  0  0  0  0
  9  6  2  0  0  0  0
  9 10  2  0  0  0  0
 10  1  2  0  0  0  0
 11 10  1  0  0  0  0
 11 12  1  0  0  0  0
 12 17  1  0  0  0  0
 12 13  1  0  0  0  0
 13 15  1  0  0  0  0
 14 13  2  0  0  0  0
 15 26  1  0  0  0  0
 15 25  1  0  0  0  0
 16 15  1  0  0  0  0
 16 28  1  0  0  0  0
 16 27  1  0  0  0  0
 17 16  1  0  0  0  0
 18 17  2  0  0  0  0
 20  4  1  0  0  0  0
 21  4  1  0  0  0  0
 22  8  1  0  0  0  0
 23  8  1  0  0  0  0
 24  8  1  0  0  0  0
M  END
$$$$
