28
rmsd216.gzmat
N          0.00000        0.00000        0.00000
C          1.36600        0.00000        0.00000
O          1.90140        0.00000        1.22250
C          3.33820        0.02080        1.27380
N          2.14960        0.00350       -1.11370
C          1.46910        0.01350       -2.29530
O          2.25340        0.01650       -3.37440
C          1.57100        0.07860       -4.63910
N          0.10730        0.02040       -2.41800
C         -0.55890        0.01280       -1.23710
O         -1.92420        0.02500       -1.38440
N         -2.62020        0.02800       -0.19260
C         -2.58890        1.20290        0.63820
O         -2.29580        2.28730        0.23600
C         -3.05140        0.77140        2.01500
C         -3.10990       -0.76690        1.98420
C         -2.67710       -1.17730        0.59080
O         -2.46700       -2.26470        0.14660
H          3.51020        0.03700        2.35740
H          3.73180        0.91980        0.78540
H          3.75360       -0.87920        0.80640
H          2.41600        0.04950       -5.33820
H          1.00660        1.01420       -4.72330
H          0.90620       -0.78330       -4.76980
H         -2.34020        1.14410        2.78050
H         -4.02840        1.22790        2.25930
H         -2.43070       -1.22300        2.73350
H         -4.12040       -1.15590        2.20970
