28
rmsd200.gzmat
N          0.00000        0.00000        0.00000
C          1.36650        0.00000        0.00000
O          1.90410        0.00000        1.22180
C          3.34110        0.03760        1.26990
N          2.15020       -0.00230       -1.11380
C          1.47050       -0.00570       -2.29580
O          2.25560       -0.01810       -3.37440
C          1.57380       -0.03580       -4.64090
N          0.10910        0.00140       -2.41880
C         -0.55770        0.00310       -1.23750
O         -1.92200        0.00720       -1.39250
N         -2.62900       -0.01000       -0.20870
C         -2.68230        1.17390        0.60460
O         -2.42330        2.26700        0.20320
C         -3.18290        0.73540        1.96670
C         -3.14920       -0.80420        1.95920
C         -2.65100       -1.20810        0.58600
O         -2.37050       -2.28800        0.16280
H          3.51640        0.04330        2.35290
H          3.72020        0.94760        0.79130
H          3.76950       -0.85110        0.79250
H          2.42010       -0.08080       -5.33740
H          0.98480        0.87870       -4.77410
H          0.93070       -0.91920       -4.72730
H         -2.53350        1.16120        2.75800
H         -4.19680        1.13510        2.15460
H         -2.46760       -1.20820        2.73500
H         -4.14050       -1.25050        2.16130
