28
rmsd250.gzmat
N          0.00000        0.00000        0.00000
C          1.36630        0.00000        0.00000
O          1.90560        0.00000        1.22110
C          3.34360        0.01750        1.26310
N          2.15080        0.00190       -1.11340
C          1.47170        0.01240       -2.29540
O          2.25680        0.00500       -3.37420
C          1.57290        0.02140       -4.63970
N          0.11020        0.02690       -2.41830
C         -0.55770        0.01820       -1.23760
O         -1.92210        0.03380       -1.39300
N         -2.63130       -0.01290       -0.21110
C         -2.66250        1.13730        0.65090
O         -2.39420        2.24290        0.29150
C         -3.15760        0.65040        1.99880
C         -3.18090       -0.88700        1.91830
C         -2.68720       -1.24280        0.53060
O         -2.43130       -2.31000        0.06220
H          3.52530        0.04250        2.34440
H          3.73670        0.91100        0.76370
H          3.75290       -0.88810        0.80050
H          2.41700       -0.03770       -5.33870
H          1.01010        0.95420       -4.75890
H          0.90520       -0.84350       -4.73520
H         -2.47780        1.01340        2.79670
H         -4.15210        1.07700        2.22670
H         -2.52220       -1.35320        2.67950
H         -4.19040       -1.30470        2.09120
