rmsd248.gzmat
 OpenBabel08211713403D

 28 29  0  0  0  0  0  0  0  0999 V2000
    0.0000    0.0000    0.0000 N   0  0  0  0  0  0  0  0  0  0  0  0
    1.3666    0.0000    0.0000 C   0  0  0  0  0  0  0  0  0  0  0  0
    1.9060    0.0000    1.2212 O   0  0  0  0  0  0  0  0  0  0  0  0
    3.3439    0.0240    1.2640 C   0  0  0  0  0  0  0  0  0  0  0  0
    2.1510   -0.0008   -1.1136 N   0  0  0  0  0  0  0  0  0  0  0  0
    1.4713   -0.0012   -2.2955 C   0  0  0  0  0  0  0  0  0  0  0  0
    2.2559   -0.0115   -3.3745 O   0  0  0  0  0  0  0  0  0  0  0  0
    1.5718   -0.0111   -4.6401 C   0  0  0  0  0  0  0  0  0  0  0  0
    0.1099    0.0058   -2.4185 N   0  0  0  0  0  0  0  0  0  0  0  0
   -0.5574    0.0060   -1.2376 C   0  0  0  0  0  0  0  0  0  0  0  0
   -1.9215    0.0128   -1.3959 O   0  0  0  0  0  0  0  0  0  0  0  0
   -2.6328    0.0005   -0.2150 N   0  0  0  0  0  0  0  0  0  0  0  0
   -2.6791    1.1829    0.6010 C   0  0  0  0  0  0  0  0  0  0  0  0
   -2.4023    2.2739    0.2049 O   0  0  0  0  0  0  0  0  0  0  0  0
   -3.1994    0.7454    1.9561 C   0  0  0  0  0  0  0  0  0  0  0  0
   -3.1694   -0.7943    1.9483 C   0  0  0  0  0  0  0  0  0  0  0  0
   -2.6748   -1.2002    0.5748 C   0  0  0  0  0  0  0  0  0  0  0  0
   -2.4094   -2.2824    0.1481 O   0  0  0  0  0  0  0  0  0  0  0  0
    3.5259    0.0365    2.3457 H   0  0  0  0  0  0  0  0  0  0  0  0
    3.7304    0.9262    0.7757 H   0  0  0  0  0  0  0  0  0  0  0  0
    3.7599   -0.8730    0.7909 H   0  0  0  0  0  0  0  0  0  0  0  0
    2.4165   -0.0702   -5.3380 H   0  0  0  0  0  0  0  0  0  0  0  0
    1.0022    0.9167   -4.7668 H   0  0  0  0  0  0  0  0  0  0  0  0
    0.9097   -0.8807   -4.7293 H   0  0  0  0  0  0  0  0  0  0  0  0
   -2.5631    1.1704    2.7581 H   0  0  0  0  0  0  0  0  0  0  0  0
   -4.2154    1.1475    2.1286 H   0  0  0  0  0  0  0  0  0  0  0  0
   -2.4846   -1.1991    2.7220 H   0  0  0  0  0  0  0  0  0  0  0  0
   -4.1611   -1.2385    2.1532 H   0  0  0  0  0  0  0  0  0  0  0  0
  1  2  2  0  0  0  0
  2  3  1  0  0  0  0
  3  4  1  0  0  0  0
  4 19  1  0  0  0  0
  5  2  2  0  0  0  0
  6  5  2  0  0  0  0
  7  6  1  0  0  0  0
  8  7  1  0  0  0  0
  9  6  2  0  0  0  0
  9 10  2  0  0  0  0
 10  1  2  0  0  0  0
 11 10  1  0  0  0  0
 11 12  1  0  0  0  0
 12 17  1  0  0  0  0
 12 13  1  0  0  0  0
 13 15  1  0  0  0  0
 14 13  2  0  0  0  0
 15 26  1  0  0  0  0
 15 25  1  0  0  0  0
 16 15  1  0  0  0  0
 16 28  1  0  0  0  0
 16 27  1  0  0  0  0
 17 16  1  0  0  0  0
 18 17  2  0  0  0  0
 20  4  1  0  0  0  0
 21  4  1  0  0  0  0
 22  8  1  0  0  0  0
 23  8  1  0  0  0  0
 24  8  1  0  0  0  0
M  END
$$$$
