rmsd225.gzmat
 OpenBabel08211713403D

 28 29  0  0  0  0  0  0  0  0999 V2000
    0.0000    0.0000    0.0000 N   0  0  0  0  0  0  0  0  0  0  0  0
    1.3665    0.0000    0.0000 C   0  0  0  0  0  0  0  0  0  0  0  0
    1.9048    0.0000    1.2216 O   0  0  0  0  0  0  0  0  0  0  0  0
    3.3424   -0.0004    1.2675 C   0  0  0  0  0  0  0  0  0  0  0  0
    2.1502   -0.0004   -1.1138 N   0  0  0  0  0  0  0  0  0  0  0  0
    1.4705   -0.0043   -2.2959 C   0  0  0  0  0  0  0  0  0  0  0  0
    2.2563   -0.0061   -3.3740 O   0  0  0  0  0  0  0  0  0  0  0  0
    1.5761   -0.0289   -4.6411 C   0  0  0  0  0  0  0  0  0  0  0  0
    0.1090   -0.0031   -2.4191 N   0  0  0  0  0  0  0  0  0  0  0  0
   -0.5580    0.0039   -1.2378 C   0  0  0  0  0  0  0  0  0  0  0  0
   -1.9223    0.0216   -1.3936 O   0  0  0  0  0  0  0  0  0  0  0  0
   -2.6301    0.0640   -0.2105 N   0  0  0  0  0  0  0  0  0  0  0  0
   -2.5913    1.2541    0.5964 C   0  0  0  0  0  0  0  0  0  0  0  0
   -2.2546    2.3215    0.1837 O   0  0  0  0  0  0  0  0  0  0  0  0
   -3.1052    0.8625    1.9673 C   0  0  0  0  0  0  0  0  0  0  0  0
   -3.2140   -0.6732    1.9610 C   0  0  0  0  0  0  0  0  0  0  0  0
   -2.7441   -1.1234    0.5913 C   0  0  0  0  0  0  0  0  0  0  0  0
   -2.5472   -2.2253    0.1777 O   0  0  0  0  0  0  0  0  0  0  0  0
    3.5210   -0.0167    2.3498 H   0  0  0  0  0  0  0  0  0  0  0  0
    3.7452    0.9063    0.8018 H   0  0  0  0  0  0  0  0  0  0  0  0
    3.7453   -0.8926    0.7746 H   0  0  0  0  0  0  0  0  0  0  0  0
    2.4240   -0.0089   -5.3372 H   0  0  0  0  0  0  0  0  0  0  0  0
    0.9352    0.8528   -4.7566 H   0  0  0  0  0  0  0  0  0  0  0  0
    0.9862   -0.9467   -4.7456 H   0  0  0  0  0  0  0  0  0  0  0  0
   -2.4016    1.2248    2.7448 H   0  0  0  0  0  0  0  0  0  0  0  0
   -4.0717    1.3567    2.1773 H   0  0  0  0  0  0  0  0  0  0  0  0
   -2.5808   -1.1385    2.7437 H   0  0  0  0  0  0  0  0  0  0  0  0
   -4.2442   -1.0255    2.1542 H   0  0  0  0  0  0  0  0  0  0  0  0
  1  2  2  0  0  0  0
  2  3  1  0  0  0  0
  3  4  1  0  0  0  0
  4 19  1  0  0  0  0
  5  2  2  0  0  0  0
  6  5  2  0  0  0  0
  7  6  1  0  0  0  0
  8  7  1  0  0  0  0
  9  6  2  0  0  0  0
  9 10  2  0  0  0  0
 10  1  2  0  0  0  0
 11 10  1  0  0  0  0
 11 12  1  0  0  0  0
 12 17  1  0  0  0  0
 12 13  1  0  0  0  0
 13 15  1  0  0  0  0
 14 13  2  0  0  0  0
 15 26  1  0  0  0  0
 15 25  1  0  0  0  0
 16 15  1  0  0  0  0
 16 28  1  0  0  0  0
 16 27  1  0  0  0  0
 17 16  1  0  0  0  0
 18 17  2  0  0  0  0
 20  4  1  0  0  0  0
 21  4  1  0  0  0  0
 22  8  1  0  0  0  0
 23  8  1  0  0  0  0
 24  8  1  0  0  0  0
M  END
$$$$
