28
rmsd225.gzmat
N          0.00000        0.00000        0.00000
C          1.36650        0.00000        0.00000
O          1.90480        0.00000        1.22160
C          3.34240       -0.00040        1.26750
N          2.15020       -0.00040       -1.11380
C          1.47050       -0.00430       -2.29590
O          2.25630       -0.00610       -3.37400
C          1.57610       -0.02890       -4.64110
N          0.10900       -0.00310       -2.41910
C         -0.55800        0.00390       -1.23780
O         -1.92230        0.02160       -1.39360
N         -2.63010        0.06400       -0.21050
C         -2.59130        1.25410        0.59640
O         -2.25460        2.32150        0.18370
C         -3.10520        0.86250        1.96730
C         -3.21400       -0.67320        1.96100
C         -2.74410       -1.12340        0.59130
O         -2.54720       -2.22530        0.17770
H          3.52100       -0.01670        2.34980
H          3.74520        0.90630        0.80180
H          3.74530       -0.89260        0.77460
H          2.42400       -0.00890       -5.33720
H          0.93520        0.85280       -4.75660
H          0.98620       -0.94670       -4.74560
H         -2.40160        1.22480        2.74480
H         -4.07170        1.35670        2.17730
H         -2.58080       -1.13850        2.74370
H         -4.24420       -1.02550        2.15420
