rmsd60.gzmat
 OpenBabel08211713383D

 37 38  0  0  0  0  0  0  0  0999 V2000
    0.0000    0.0000    0.0000 Cl  0  0  0  0  0  0  0  0  0  0  0  0
    1.7120    0.0000    0.0000 C   0  0  0  0  0  0  0  0  0  0  0  0
    2.3665    0.0000    1.2187 C   0  0  0  0  0  0  0  0  0  0  0  0
    3.7699   -0.0164    1.1846 C   0  0  0  0  0  0  0  0  0  0  0  0
    4.3170   -0.0341    2.4326 O   0  0  0  0  0  0  0  0  0  0  0  0
    5.7203   -0.1976    2.5343 C   0  0  0  0  0  0  0  0  0  0  0  0
    6.4510    1.1113    2.2523 C   0  0  0  0  0  0  0  0  0  0  0  0
    7.4290    1.0782    1.5419 O   0  0  0  0  0  0  0  0  0  0  0  0
    5.9720    2.3601    2.8653 C   0  0  0  0  0  0  0  0  0  0  0  0
    6.5598    3.5591    2.4448 C   0  0  0  0  0  0  0  0  0  0  0  0
    6.1686    4.7668    3.0104 C   0  0  0  0  0  0  0  0  0  0  0  0
    5.1853    4.7877    4.0037 C   0  0  0  0  0  0  0  0  0  0  0  0
    4.5880    3.5925    4.4134 C   0  0  0  0  0  0  0  0  0  0  0  0
    4.9803    2.3833    3.8480 C   0  0  0  0  0  0  0  0  0  0  0  0
    4.7676    6.0877    4.6164 C   0  0  0  0  0  0  0  0  0  0  0  0
    3.6684    6.7366    3.7585 C   0  0  0  0  0  0  0  0  0  0  0  0
    3.2692    8.0961    4.3276 C   0  0  0  0  0  0  0  0  0  0  0  0
    4.4787   -0.0101   -0.0168 C   0  0  0  0  0  0  0  0  0  0  0  0
    3.7693   -0.0088   -1.2171 C   0  0  0  0  0  0  0  0  0  0  0  0
    2.3755   -0.0079   -1.2224 C   0  0  0  0  0  0  0  0  0  0  0  0
    1.8401    0.0099    2.1707 H   0  0  0  0  0  0  0  0  0  0  0  0
    6.0805   -1.0183    1.8864 H   0  0  0  0  0  0  0  0  0  0  0  0
    5.8477   -0.5045    3.5932 H   0  0  0  0  0  0  0  0  0  0  0  0
    7.3331    3.5363    1.6713 H   0  0  0  0  0  0  0  0  0  0  0  0
    6.6261    5.6971    2.6806 H   0  0  0  0  0  0  0  0  0  0  0  0
    3.8122    3.6071    5.1761 H   0  0  0  0  0  0  0  0  0  0  0  0
    4.5048    1.4593    4.1815 H   0  0  0  0  0  0  0  0  0  0  0  0
    5.6311    6.7774    4.7096 H   0  0  0  0  0  0  0  0  0  0  0  0
    4.4013    5.9437    5.6525 H   0  0  0  0  0  0  0  0  0  0  0  0
    2.7873    6.0679    3.7083 H   0  0  0  0  0  0  0  0  0  0  0  0
    4.0210    6.8477    2.7146 H   0  0  0  0  0  0  0  0  0  0  0  0
    2.8884    8.0101    5.3514 H   0  0  0  0  0  0  0  0  0  0  0  0
    2.4820    8.5613    3.7228 H   0  0  0  0  0  0  0  0  0  0  0  0
    4.1173    8.7897    4.3493 H   0  0  0  0  0  0  0  0  0  0  0  0
    5.5670    0.0050   -0.0327 H   0  0  0  0  0  0  0  0  0  0  0  0
    4.3136   -0.0089   -2.1633 H   0  0  0  0  0  0  0  0  0  0  0  0
    1.8261   -0.0114   -2.1614 H   0  0  0  0  0  0  0  0  0  0  0  0
  2  1  1  0  0  0  0
  2  3  2  0  0  0  0
  3 21  1  0  0  0  0
  4  3  1  0  0  0  0
  4  5  1  0  0  0  0
  5  6  1  0  0  0  0
  6 23  1  0  0  0  0
  7  6  1  0  0  0  0
  7  9  1  0  0  0  0
  8  7  2  0  0  0  0
  9 14  1  0  0  0  0
 10  9  2  0  0  0  0
 10 11  1  0  0  0  0
 11 12  2  0  0  0  0
 12 13  1  0  0  0  0
 12 15  1  0  0  0  0
 13 26  1  0  0  0  0
 14 27  1  0  0  0  0
 14 13  2  0  0  0  0
 15 28  1  0  0  0  0
 15 29  1  0  0  0  0
 16 17  1  0  0  0  0
 16 15  1  0  0  0  0
 17 34  1  0  0  0  0
 17 32  1  0  0  0  0
 18  4  2  0  0  0  0
 19 18  1  0  0  0  0
 20 19  2  0  0  0  0
 20  2  1  0  0  0  0
 22  6  1  0  0  0  0
 24 10  1  0  0  0  0
 25 11  1  0  0  0  0
 30 16  1  0  0  0  0
 31 16  1  0  0  0  0
 33 17  1  0  0  0  0
 35 18  1  0  0  0  0
 36 19  1  0  0  0  0
 37 20  1  0  0  0  0
M  END
$$$$
