
     RDKit          3D

 37 38  0  0  0  0  0  0  0  0999 V2000
    0.0002    0.1090   -0.1150 Cl  0  0  0  0  0  0  0  0  0  0  0  0
    1.7474    0.1787   -0.0337 C   0  0  0  0  0  0  0  0  0  0  0  0
    2.3653    0.1207    1.2107 C   0  0  0  0  0  0  0  0  0  0  0  0
    3.7654    0.1217    1.2804 C   0  0  0  0  0  0  0  0  0  0  0  0
    4.2968   -0.0022    2.5297 O   0  0  0  0  0  0  0  0  0  0  0  0
    5.5940   -0.5499    2.6623 C   0  0  0  0  0  0  0  0  0  0  0  0
    5.8105   -1.8975    1.9476 C   0  0  0  0  0  0  0  0  0  0  0  0
    6.9214   -2.1589    1.5322 O   0  0  0  0  0  0  0  0  0  0  0  0
    4.6385   -2.7901    1.7339 C   0  0  0  0  0  0  0  0  0  0  0  0
    3.4931   -2.7643    2.5469 C   0  0  0  0  0  0  0  0  0  0  0  0
    2.3722   -3.5117    2.2011 C   0  0  0  0  0  0  0  0  0  0  0  0
    2.3513   -4.2882    1.0312 C   0  0  0  0  0  0  0  0  0  0  0  0
    3.5217   -4.3590    0.2590 C   0  0  0  0  0  0  0  0  0  0  0  0
    4.6539   -3.6293    0.6089 C   0  0  0  0  0  0  0  0  0  0  0  0
    1.0676   -4.9291    0.5704 C   0  0  0  0  0  0  0  0  0  0  0  0
    0.1288   -3.9150   -0.1182 C   0  0  0  0  0  0  0  0  0  0  0  0
    0.7068   -3.2955   -1.3889 C   0  0  0  0  0  0  0  0  0  0  0  0
    4.5303    0.2074    0.1101 C   0  0  0  0  0  0  0  0  0  0  0  0
    3.8798    0.2771   -1.1261 C   0  0  0  0  0  0  0  0  0  0  0  0
    2.4886    0.2586   -1.2178 C   0  0  0  0  0  0  0  0  0  0  0  0
    1.7837    0.0332    2.1273 H   0  0  0  0  0  0  0  0  0  0  0  0
    5.7474   -0.6909    3.7442 H   0  0  0  0  0  0  0  0  0  0  0  0
    6.3808    0.1339    2.3025 H   0  0  0  0  0  0  0  0  0  0  0  0
    3.4640   -2.1318    3.4344 H   0  0  0  0  0  0  0  0  0  0  0  0
    1.4792   -3.4670    2.8302 H   0  0  0  0  0  0  0  0  0  0  0  0
    3.5296   -4.9731   -0.6450 H   0  0  0  0  0  0  0  0  0  0  0  0
    5.5560   -3.6583   -0.0052 H   0  0  0  0  0  0  0  0  0  0  0  0
    0.5436   -5.3726    1.4330 H   0  0  0  0  0  0  0  0  0  0  0  0
    1.2910   -5.7525   -0.1284 H   0  0  0  0  0  0  0  0  0  0  0  0
   -0.1159   -3.1098    0.5956 H   0  0  0  0  0  0  0  0  0  0  0  0
   -0.8224   -4.4247   -0.3493 H   0  0  0  0  0  0  0  0  0  0  0  0
    1.6311   -2.7355   -1.1793 H   0  0  0  0  0  0  0  0  0  0  0  0
   -0.0069   -2.5901   -1.8402 H   0  0  0  0  0  0  0  0  0  0  0  0
    0.9450   -4.0684   -2.1393 H   0  0  0  0  0  0  0  0  0  0  0  0
    5.6192    0.2031    0.1488 H   0  0  0  0  0  0  0  0  0  0  0  0
    4.4766    0.3387   -2.0390 H   0  0  0  0  0  0  0  0  0  0  0  0
    1.9804    0.2974   -2.1811 H   0  0  0  0  0  0  0  0  0  0  0  0
  1  2  1  0
  2  3  2  0
  2 20  1  0
  3  4  1  0
  3 21  1  0
  4  5  1  0
  4 18  2  0
  5  6  1  0
  6  7  1  0
  6 22  1  0
  6 23  1  0
  7  8  2  0
  7  9  1  0
  9 10  2  0
  9 14  1  0
 10 11  1  0
 10 24  1  0
 11 12  2  0
 11 25  1  0
 12 13  1  0
 12 15  1  0
 13 14  2  0
 13 26  1  0
 14 27  1  0
 15 16  1  0
 15 28  1  0
 15 29  1  0
 16 17  1  0
 16 30  1  0
 16 31  1  0
 17 32  1  0
 17 33  1  0
 17 34  1  0
 18 19  1  0
 18 35  1  0
 19 20  2  0
 19 36  1  0
 20 37  1  0
M  END

