rmsd154.gzmat
 OpenBabel08211713383D

 37 38  0  0  0  0  0  0  0  0999 V2000
    0.0000    0.0000    0.0000 Cl  0  0  0  0  0  0  0  0  0  0  0  0
    1.7123    0.0000    0.0000 C   0  0  0  0  0  0  0  0  0  0  0  0
    2.3652    0.0000    1.2192 C   0  0  0  0  0  0  0  0  0  0  0  0
    3.7688   -0.0046    1.1878 C   0  0  0  0  0  0  0  0  0  0  0  0
    4.3189   -0.0139    2.4344 O   0  0  0  0  0  0  0  0  0  0  0  0
    5.7074   -0.2664    2.5451 C   0  0  0  0  0  0  0  0  0  0  0  0
    6.0905   -1.6804    2.1303 C   0  0  0  0  0  0  0  0  0  0  0  0
    7.2589   -1.9545    2.0056 O   0  0  0  0  0  0  0  0  0  0  0  0
    5.0073   -2.6445    1.8650 C   0  0  0  0  0  0  0  0  0  0  0  0
    3.9116   -2.7565    2.7217 C   0  0  0  0  0  0  0  0  0  0  0  0
    2.8792   -3.6358    2.4123 C   0  0  0  0  0  0  0  0  0  0  0  0
    2.9339   -4.4003    1.2435 C   0  0  0  0  0  0  0  0  0  0  0  0
    4.0481   -4.3066    0.4038 C   0  0  0  0  0  0  0  0  0  0  0  0
    5.0874   -3.4384    0.7183 C   0  0  0  0  0  0  0  0  0  0  0  0
    1.7984   -5.3087    0.8847 C   0  0  0  0  0  0  0  0  0  0  0  0
    1.0030   -4.7430   -0.3055 C   0  0  0  0  0  0  0  0  0  0  0  0
    0.3700   -3.3948    0.0316 C   0  0  0  0  0  0  0  0  0  0  0  0
    4.4784    0.0059   -0.0138 C   0  0  0  0  0  0  0  0  0  0  0  0
    3.7703    0.0027   -1.2147 C   0  0  0  0  0  0  0  0  0  0  0  0
    2.3766   -0.0053   -1.2219 C   0  0  0  0  0  0  0  0  0  0  0  0
    1.8380   -0.0051    2.1711 H   0  0  0  0  0  0  0  0  0  0  0  0
    5.8762   -0.1184    3.6337 H   0  0  0  0  0  0  0  0  0  0  0  0
    6.2945    0.4920    1.9954 H   0  0  0  0  0  0  0  0  0  0  0  0
    3.8571   -2.1491    3.6262 H   0  0  0  0  0  0  0  0  0  0  0  0
    2.0205   -3.7168    3.0758 H   0  0  0  0  0  0  0  0  0  0  0  0
    4.0991   -4.9089   -0.5006 H   0  0  0  0  0  0  0  0  0  0  0  0
    5.9631   -3.3700    0.0706 H   0  0  0  0  0  0  0  0  0  0  0  0
    1.1176   -5.4604    1.7462 H   0  0  0  0  0  0  0  0  0  0  0  0
    2.1803   -6.3190    0.6323 H   0  0  0  0  0  0  0  0  0  0  0  0
    0.2190   -5.4654   -0.6022 H   0  0  0  0  0  0  0  0  0  0  0  0
    1.6678   -4.6357   -1.1842 H   0  0  0  0  0  0  0  0  0  0  0  0
   -0.3342   -3.4715    0.8666 H   0  0  0  0  0  0  0  0  0  0  0  0
   -0.1761   -2.9843   -0.8247 H   0  0  0  0  0  0  0  0  0  0  0  0
    1.1356   -2.6618    0.3178 H   0  0  0  0  0  0  0  0  0  0  0  0
    5.5641    0.0104   -0.0277 H   0  0  0  0  0  0  0  0  0  0  0  0
    4.3152    0.0044   -2.1602 H   0  0  0  0  0  0  0  0  0  0  0  0
    1.8289   -0.0148   -2.1618 H   0  0  0  0  0  0  0  0  0  0  0  0
  2  1  1  0  0  0  0
  2  3  2  0  0  0  0
  3 21  1  0  0  0  0
  4  3  1  0  0  0  0
  4  5  1  0  0  0  0
  5  6  1  0  0  0  0
  6 22  1  0  0  0  0
  7  6  1  0  0  0  0
  8  7  2  0  0  0  0
  9  7  1  0  0  0  0
  9 10  2  0  0  0  0
 10 24  1  0  0  0  0
 11 10  1  0  0  0  0
 11 25  1  0  0  0  0
 12 11  2  0  0  0  0
 13 14  2  0  0  0  0
 13 12  1  0  0  0  0
 14  9  1  0  0  0  0
 15 12  1  0  0  0  0
 15 28  1  0  0  0  0
 16 17  1  0  0  0  0
 16 15  1  0  0  0  0
 17 34  1  0  0  0  0
 17 32  1  0  0  0  0
 18  4  2  0  0  0  0
 19 18  1  0  0  0  0
 20 19  2  0  0  0  0
 20  2  1  0  0  0  0
 23  6  1  0  0  0  0
 26 13  1  0  0  0  0
 27 14  1  0  0  0  0
 29 15  1  0  0  0  0
 30 16  1  0  0  0  0
 31 16  1  0  0  0  0
 33 17  1  0  0  0  0
 35 18  1  0  0  0  0
 36 19  1  0  0  0  0
 37 20  1  0  0  0  0
M  END
$$$$
