
     RDKit          3D

 37 38  0  0  0  0  0  0  0  0999 V2000
   -0.0230    0.5798    0.3739 Cl  0  0  0  0  0  0  0  0  0  0  0  0
    1.7150    0.4180    0.2727 C   0  0  0  0  0  0  0  0  0  0  0  0
    2.4322    0.0953    1.4204 C   0  0  0  0  0  0  0  0  0  0  0  0
    3.8275   -0.0320    1.3442 C   0  0  0  0  0  0  0  0  0  0  0  0
    4.4493   -0.3486    2.5136 O   0  0  0  0  0  0  0  0  0  0  0  0
    5.8597   -0.3923    2.5496 C   0  0  0  0  0  0  0  0  0  0  0  0
    6.5809    0.9409    2.2871 C   0  0  0  0  0  0  0  0  0  0  0  0
    7.6004    0.9152    1.6229 O   0  0  0  0  0  0  0  0  0  0  0  0
    6.0509    2.2039    2.8700 C   0  0  0  0  0  0  0  0  0  0  0  0
    6.6705    3.4075    2.4883 C   0  0  0  0  0  0  0  0  0  0  0  0
    6.2371    4.6216    3.0072 C   0  0  0  0  0  0  0  0  0  0  0  0
    5.1782    4.6759    3.9303 C   0  0  0  0  0  0  0  0  0  0  0  0
    4.5693    3.4718    4.3144 C   0  0  0  0  0  0  0  0  0  0  0  0
    4.9917    2.2501    3.7933 C   0  0  0  0  0  0  0  0  0  0  0  0
    4.6701    5.9978    4.4451 C   0  0  0  0  0  0  0  0  0  0  0  0
    3.5721    6.5974    3.5491 C   0  0  0  0  0  0  0  0  0  0  0  0
    3.0512    7.9377    4.0626 C   0  0  0  0  0  0  0  0  0  0  0  0
    4.4897    0.1625    0.1239 C   0  0  0  0  0  0  0  0  0  0  0  0
    3.7391    0.4862   -1.0117 C   0  0  0  0  0  0  0  0  0  0  0  0
    2.3529    0.6184   -0.9570 C   0  0  0  0  0  0  0  0  0  0  0  0
    1.9315   -0.0591    2.3757 H   0  0  0  0  0  0  0  0  0  0  0  0
    6.2687   -1.1258    1.8359 H   0  0  0  0  0  0  0  0  0  0  0  0
    6.1164   -0.7270    3.5673 H   0  0  0  0  0  0  0  0  0  0  0  0
    7.4983    3.3576    1.7789 H   0  0  0  0  0  0  0  0  0  0  0  0
    6.7265    5.5496    2.6987 H   0  0  0  0  0  0  0  0  0  0  0  0
    3.7468    3.4937    5.0343 H   0  0  0  0  0  0  0  0  0  0  0  0
    4.4888    1.3334    4.0989 H   0  0  0  0  0  0  0  0  0  0  0  0
    5.5061    6.7139    4.5180 H   0  0  0  0  0  0  0  0  0  0  0  0
    4.2722    5.8711    5.4661 H   0  0  0  0  0  0  0  0  0  0  0  0
    2.7430    5.8734    3.4694 H   0  0  0  0  0  0  0  0  0  0  0  0
    3.9703    6.7120    2.5261 H   0  0  0  0  0  0  0  0  0  0  0  0
    2.6207    7.8386    5.0729 H   0  0  0  0  0  0  0  0  0  0  0  0
    2.2677    8.3436    3.4038 H   0  0  0  0  0  0  0  0  0  0  0  0
    3.8599    8.6850    4.1208 H   0  0  0  0  0  0  0  0  0  0  0  0
    5.5719    0.0742    0.0436 H   0  0  0  0  0  0  0  0  0  0  0  0
    4.2557    0.6402   -1.9619 H   0  0  0  0  0  0  0  0  0  0  0  0
    1.7688    0.8725   -1.8415 H   0  0  0  0  0  0  0  0  0  0  0  0
  1  2  1  0
  2  3  2  0
  2 20  1  0
  3  4  1  0
  3 21  1  0
  4  5  1  0
  4 18  2  0
  5  6  1  0
  6  7  1  0
  6 22  1  0
  6 23  1  0
  7  8  2  0
  7  9  1  0
  9 10  2  0
  9 14  1  0
 10 11  1  0
 10 24  1  0
 11 12  2  0
 11 25  1  0
 12 13  1  0
 12 15  1  0
 13 14  2  0
 13 26  1  0
 14 27  1  0
 15 16  1  0
 15 28  1  0
 15 29  1  0
 16 17  1  0
 16 30  1  0
 16 31  1  0
 17 32  1  0
 17 33  1  0
 17 34  1  0
 18 19  1  0
 18 35  1  0
 19 20  2  0
 19 36  1  0
 20 37  1  0
M  END

