rmsd197.gzmat
 OpenBabel08211713383D

 37 38  0  0  0  0  0  0  0  0999 V2000
    0.0000    0.0000    0.0000 Cl  0  0  0  0  0  0  0  0  0  0  0  0
    1.7113    0.0000    0.0000 C   0  0  0  0  0  0  0  0  0  0  0  0
    2.3633    0.0000    1.2190 C   0  0  0  0  0  0  0  0  0  0  0  0
    3.7660    0.0538    1.1887 C   0  0  0  0  0  0  0  0  0  0  0  0
    4.3175    0.0817    2.4359 O   0  0  0  0  0  0  0  0  0  0  0  0
    5.6462    0.5542    2.5589 C   0  0  0  0  0  0  0  0  0  0  0  0
    5.7967    2.0233    2.1851 C   0  0  0  0  0  0  0  0  0  0  0  0
    6.9034    2.4989    2.1237 O   0  0  0  0  0  0  0  0  0  0  0  0
    4.5752    2.7847    1.8638 C   0  0  0  0  0  0  0  0  0  0  0  0
    3.4494    2.7321    2.6875 C   0  0  0  0  0  0  0  0  0  0  0  0
    2.2835    3.3866    2.3056 C   0  0  0  0  0  0  0  0  0  0  0  0
    2.2369    4.0914    1.0987 C   0  0  0  0  0  0  0  0  0  0  0  0
    3.3821    4.1827    0.3030 C   0  0  0  0  0  0  0  0  0  0  0  0
    4.5527    3.5380    0.6891 C   0  0  0  0  0  0  0  0  0  0  0  0
    0.9559    4.7246    0.6525 C   0  0  0  0  0  0  0  0  0  0  0  0
    0.0351    3.6710    0.0092 C   0  0  0  0  0  0  0  0  0  0  0  0
    0.5899    3.1723   -1.3240 C   0  0  0  0  0  0  0  0  0  0  0  0
    4.4769    0.0655   -0.0117 C   0  0  0  0  0  0  0  0  0  0  0  0
    3.7697    0.0474   -1.2132 C   0  0  0  0  0  0  0  0  0  0  0  0
    2.3767    0.0230   -1.2213 C   0  0  0  0  0  0  0  0  0  0  0  0
    1.8365   -0.0174    2.1711 H   0  0  0  0  0  0  0  0  0  0  0  0
    6.3487   -0.0818    1.9900 H   0  0  0  0  0  0  0  0  0  0  0  0
    5.8374    0.4034    3.6435 H   0  0  0  0  0  0  0  0  0  0  0  0
    3.4780    2.1662    3.6194 H   0  0  0  0  0  0  0  0  0  0  0  0
    1.3999    3.3358    2.9383 H   0  0  0  0  0  0  0  0  0  0  0  0
    3.3558    4.7507   -0.6247 H   0  0  0  0  0  0  0  0  0  0  0  0
    5.4504    3.6109    0.0727 H   0  0  0  0  0  0  0  0  0  0  0  0
    1.1424    5.5476   -0.0658 H   0  0  0  0  0  0  0  0  0  0  0  0
    0.4367    5.1988    1.5102 H   0  0  0  0  0  0  0  0  0  0  0  0
   -0.9721    4.1045   -0.1414 H   0  0  0  0  0  0  0  0  0  0  0  0
   -0.1024    2.8205    0.7049 H   0  0  0  0  0  0  0  0  0  0  0  0
    0.7374    3.9938   -2.0328 H   0  0  0  0  0  0  0  0  0  0  0  0
   -0.0888    2.4497   -1.7913 H   0  0  0  0  0  0  0  0  0  0  0  0
    1.5593    2.6739   -1.1902 H   0  0  0  0  0  0  0  0  0  0  0  0
    5.5622    0.0938   -0.0231 H   0  0  0  0  0  0  0  0  0  0  0  0
    4.3149    0.0587   -2.1582 H   0  0  0  0  0  0  0  0  0  0  0  0
    1.8294    0.0224   -2.1614 H   0  0  0  0  0  0  0  0  0  0  0  0
  1  2  1  0  0  0  0
  2  3  2  0  0  0  0
  3 21  1  0  0  0  0
  4  3  1  0  0  0  0
  4  5  1  0  0  0  0
  5  6  1  0  0  0  0
  6 23  1  0  0  0  0
  7  6  1  0  0  0  0
  8  7  2  0  0  0  0
  9  7  1  0  0  0  0
  9 10  2  0  0  0  0
 10 24  1  0  0  0  0
 11 10  1  0  0  0  0
 11 25  1  0  0  0  0
 12 11  2  0  0  0  0
 13 14  2  0  0  0  0
 13 12  1  0  0  0  0
 14  9  1  0  0  0  0
 15 12  1  0  0  0  0
 15 29  1  0  0  0  0
 16 15  1  0  0  0  0
 16 31  1  0  0  0  0
 17 34  1  0  0  0  0
 17 16  1  0  0  0  0
 18  4  2  0  0  0  0
 19 18  1  0  0  0  0
 20 19  2  0  0  0  0
 20  2  1  0  0  0  0
 22  6  1  0  0  0  0
 26 13  1  0  0  0  0
 27 14  1  0  0  0  0
 28 15  1  0  0  0  0
 30 16  1  0  0  0  0
 32 17  1  0  0  0  0
 33 17  1  0  0  0  0
 35 18  1  0  0  0  0
 36 19  1  0  0  0  0
 37 20  1  0  0  0  0
M  END
$$$$
