37

Cl        -0.00430        0.13450       -0.07260
C          1.74310        0.20460       -0.02180
C          2.38400        0.18050        1.21290
C          3.78530        0.20490        1.25760
O          4.33740        0.14000        2.50140
C          5.68520       -0.26510        2.62800
C          6.03560       -1.61170        1.96870
O          7.15960       -1.75950        1.53050
C          4.98660       -2.66080        1.85100
C          3.83560       -2.69560        2.65440
C          2.84500       -3.64570        2.41860
C          2.96270       -4.57180        1.37220
C          4.14060       -4.56370        0.60500
C          5.14190       -3.62980        0.84460
C          1.81560       -5.47870        1.00670
C          1.02250       -4.95150       -0.20810
C          0.43640       -3.55490       -0.00940
C          4.52880        0.26750        0.07160
C          3.85520        0.29530       -1.15390
C          2.46310        0.26170       -1.22020
H          1.81910        0.11790        2.14220
H          5.86970       -0.34400        3.71130
H          6.38860        0.48190        2.22420
H          3.69610       -1.96210        3.44810
H          1.94480       -3.65070        3.03800
H          4.25870       -5.28970       -0.20420
H          6.05130       -3.60780        0.24130
H          1.13570       -5.57960        1.86890
H          2.19470       -6.48820        0.77640
H          0.21650       -5.67080       -0.43390
H          1.68690       -4.94850       -1.08990
H         -0.23530       -3.51950        0.86470
H         -0.14590       -3.23570       -0.88710
H          1.22360       -2.80340        0.15260
H          5.61780        0.28220        0.08820
H          4.43540        0.33960       -2.07850
H          1.93730        0.27420       -2.17480
