37

Cl        -0.02300        0.57980        0.37390
C          1.71500        0.41800        0.27270
C          2.43220        0.09530        1.42040
C          3.82750       -0.03200        1.34420
O          4.44930       -0.34860        2.51360
C          5.85970       -0.39230        2.54960
C          6.58090        0.94090        2.28710
O          7.60040        0.91520        1.62290
C          6.05090        2.20390        2.87000
C          6.67050        3.40750        2.48830
C          6.23710        4.62160        3.00720
C          5.17820        4.67590        3.93030
C          4.56930        3.47180        4.31440
C          4.99170        2.25010        3.79330
C          4.67010        5.99780        4.44510
C          3.57210        6.59740        3.54910
C          3.05120        7.93770        4.06260
C          4.48970        0.16250        0.12390
C          3.73910        0.48620       -1.01170
C          2.35290        0.61840       -0.95700
H          1.93150       -0.05910        2.37570
H          6.26870       -1.12580        1.83590
H          6.11640       -0.72700        3.56730
H          7.49830        3.35760        1.77890
H          6.72650        5.54960        2.69870
H          3.74680        3.49370        5.03430
H          4.48880        1.33340        4.09890
H          5.50610        6.71390        4.51800
H          4.27220        5.87110        5.46610
H          2.74300        5.87340        3.46940
H          3.97030        6.71200        2.52610
H          2.62070        7.83860        5.07290
H          2.26770        8.34360        3.40380
H          3.85990        8.68500        4.12080
H          5.57190        0.07420        0.04360
H          4.25570        0.64020       -1.96190
H          1.76880        0.87250       -1.84150
