rmsd231.gzmat
 OpenBabel08211713383D

 37 38  0  0  0  0  0  0  0  0999 V2000
    0.0000    0.0000    0.0000 Cl  0  0  0  0  0  0  0  0  0  0  0  0
    1.7119    0.0000    0.0000 C   0  0  0  0  0  0  0  0  0  0  0  0
    2.3650    0.0000    1.2186 C   0  0  0  0  0  0  0  0  0  0  0  0
    3.7679   -0.0535    1.1878 C   0  0  0  0  0  0  0  0  0  0  0  0
    4.3192   -0.0755    2.4348 O   0  0  0  0  0  0  0  0  0  0  0  0
    5.6545   -0.5265    2.5625 C   0  0  0  0  0  0  0  0  0  0  0  0
    5.8172   -2.0057    2.2376 C   0  0  0  0  0  0  0  0  0  0  0  0
    6.9186   -2.4946    2.2662 O   0  0  0  0  0  0  0  0  0  0  0  0
    4.6050   -2.7584    1.8606 C   0  0  0  0  0  0  0  0  0  0  0  0
    3.4873   -2.7825    2.6959 C   0  0  0  0  0  0  0  0  0  0  0  0
    2.3255   -3.4209    2.2744 C   0  0  0  0  0  0  0  0  0  0  0  0
    2.2756   -4.0270    1.0157 C   0  0  0  0  0  0  0  0  0  0  0  0
    3.4126   -4.0393    0.2034 C   0  0  0  0  0  0  0  0  0  0  0  0
    4.5808   -3.4153    0.6294 C   0  0  0  0  0  0  0  0  0  0  0  0
    0.9954   -4.6268    0.5247 C   0  0  0  0  0  0  0  0  0  0  0  0
    0.1093   -3.5120   -0.0598 C   0  0  0  0  0  0  0  0  0  0  0  0
   -1.1806   -4.0848   -0.6416 C   0  0  0  0  0  0  0  0  0  0  0  0
    4.4773   -0.0683   -0.0136 C   0  0  0  0  0  0  0  0  0  0  0  0
    3.7689   -0.0520   -1.2146 C   0  0  0  0  0  0  0  0  0  0  0  0
    2.3757   -0.0245   -1.2218 C   0  0  0  0  0  0  0  0  0  0  0  0
    1.8383    0.0179    2.1707 H   0  0  0  0  0  0  0  0  0  0  0  0
    5.8507   -0.3387    3.6408 H   0  0  0  0  0  0  0  0  0  0  0  0
    6.3482    0.0976    1.9709 H   0  0  0  0  0  0  0  0  0  0  0  0
    3.5189   -2.2887    3.6672 H   0  0  0  0  0  0  0  0  0  0  0  0
    1.4469   -3.4331    2.9168 H   0  0  0  0  0  0  0  0  0  0  0  0
    3.3828   -4.5301   -0.7674 H   0  0  0  0  0  0  0  0  0  0  0  0
    5.4719   -3.4276    0.0006 H   0  0  0  0  0  0  0  0  0  0  0  0
    0.4579   -5.1498    1.3407 H   0  0  0  0  0  0  0  0  0  0  0  0
    1.1826   -5.4016   -0.2447 H   0  0  0  0  0  0  0  0  0  0  0  0
    0.6679   -2.9607   -0.8412 H   0  0  0  0  0  0  0  0  0  0  0  0
   -0.1247   -2.7698    0.7279 H   0  0  0  0  0  0  0  0  0  0  0  0
   -0.9772   -4.8330   -1.4155 H   0  0  0  0  0  0  0  0  0  0  0  0
   -1.7883   -3.2954   -1.1005 H   0  0  0  0  0  0  0  0  0  0  0  0
   -1.7935   -4.5636    0.1300 H   0  0  0  0  0  0  0  0  0  0  0  0
    5.5624   -0.0996   -0.0264 H   0  0  0  0  0  0  0  0  0  0  0  0
    4.3130   -0.0676   -2.1601 H   0  0  0  0  0  0  0  0  0  0  0  0
    1.8275   -0.0242   -2.1614 H   0  0  0  0  0  0  0  0  0  0  0  0
  2  1  1  0  0  0  0
  2  3  2  0  0  0  0
  3 21  1  0  0  0  0
  4  3  1  0  0  0  0
  4  5  1  0  0  0  0
  5  6  1  0  0  0  0
  6 22  1  0  0  0  0
  7  8  2  0  0  0  0
  7  6  1  0  0  0  0
  9  7  1  0  0  0  0
  9 10  2  0  0  0  0
 10 24  1  0  0  0  0
 11 10  1  0  0  0  0
 11 25  1  0  0  0  0
 12 11  2  0  0  0  0
 13 14  2  0  0  0  0
 13 12  1  0  0  0  0
 14  9  1  0  0  0  0
 15 12  1  0  0  0  0
 15 28  1  0  0  0  0
 16 15  1  0  0  0  0
 16 31  1  0  0  0  0
 17 16  1  0  0  0  0
 17 34  1  0  0  0  0
 18  4  2  0  0  0  0
 19 18  1  0  0  0  0
 20 19  2  0  0  0  0
 20  2  1  0  0  0  0
 23  6  1  0  0  0  0
 26 13  1  0  0  0  0
 27 14  1  0  0  0  0
 29 15  1  0  0  0  0
 30 16  1  0  0  0  0
 32 17  1  0  0  0  0
 33 17  1  0  0  0  0
 35 18  1  0  0  0  0
 36 19  1  0  0  0  0
 37 20  1  0  0  0  0
M  END
$$$$
