rmsd41.gzmat
 OpenBabel08211713393D

 35 37  0  0  0  0  0  0  0  0999 V2000
    0.0000    0.0000    0.0000 Cl  0  0  0  0  0  0  0  0  0  0  0  0
    1.7020    0.0000    0.0000 C   0  0  0  0  0  0  0  0  0  0  0  0
    2.4134    0.0000    1.1996 C   0  0  0  0  0  0  0  0  0  0  0  0
    1.5371    0.0882    2.7397 S   0  0  0  0  0  0  0  0  0  0  0  0
    2.3339   -1.1971    3.6755 C   0  0  0  0  0  0  0  0  0  0  0  0
    2.8859   -0.8668    4.9130 C   0  0  0  0  0  0  0  0  0  0  0  0
    3.5427   -1.8560    5.6417 C   0  0  0  0  0  0  0  0  0  0  0  0
    3.6455   -3.1581    5.1466 C   0  0  0  0  0  0  0  0  0  0  0  0
    3.0727   -3.4767    3.9180 C   0  0  0  0  0  0  0  0  0  0  0  0
    2.4113   -2.4965    3.1796 C   0  0  0  0  0  0  0  0  0  0  0  0
    4.1885   -1.5462    6.9611 C   0  0  0  0  0  0  0  0  0  0  0  0
    3.8251   -2.3720    7.9438 F   0  0  0  0  0  0  0  0  0  0  0  0
    5.5195   -1.6314    6.9291 F   0  0  0  0  0  0  0  0  0  0  0  0
    3.9498   -0.3317    7.4534 F   0  0  0  0  0  0  0  0  0  0  0  0
    3.8047   -0.0200    1.1085 C   0  0  0  0  0  0  0  0  0  0  0  0
    4.7738   -0.0333    2.5099 Cl  0  0  0  0  0  0  0  0  0  0  0  0
    4.4771   -0.0404   -0.1057 C   0  0  0  0  0  0  0  0  0  0  0  0
    3.7238   -0.0289   -1.2868 C   0  0  0  0  0  0  0  0  0  0  0  0
    4.3901   -0.0395   -2.5558 N   0  0  0  0  0  0  0  0  0  0  0  0
    5.5380    0.6667   -2.6093 N   0  0  0  0  0  0  0  0  0  0  0  0
    6.2057    0.7134   -3.7210 C   0  0  0  0  0  0  0  0  0  0  0  0
    5.8054    0.0274   -4.9668 C   0  0  0  0  0  0  0  0  0  0  0  0
    6.3791    0.0412   -6.0235 O   0  0  0  0  0  0  0  0  0  0  0  0
    4.6059   -0.7135   -4.8384 N   0  0  0  0  0  0  0  0  0  0  0  0
    4.2521   -1.2337   -5.6485 H   0  0  0  0  0  0  0  0  0  0  0  0
    3.8618   -0.7857   -3.6551 C   0  0  0  0  0  0  0  0  0  0  0  0
    2.8465   -1.4291   -3.5637 O   0  0  0  0  0  0  0  0  0  0  0  0
    2.3246   -0.0017   -1.2417 C   0  0  0  0  0  0  0  0  0  0  0  0
    2.8161    0.1584    5.2917 H   0  0  0  0  0  0  0  0  0  0  0  0
    4.1741   -3.9297    5.7116 H   0  0  0  0  0  0  0  0  0  0  0  0
    3.1453   -4.4924    3.5292 H   0  0  0  0  0  0  0  0  0  0  0  0
    1.9663   -2.7617    2.2170 H   0  0  0  0  0  0  0  0  0  0  0  0
    5.5711   -0.0529   -0.1481 H   0  0  0  0  0  0  0  0  0  0  0  0
    7.1324    1.3043   -3.7441 H   0  0  0  0  0  0  0  0  0  0  0  0
    1.7322    0.0070   -2.1632 H   0  0  0  0  0  0  0  0  0  0  0  0
  2  1  1  0  0  0  0
  2  3  2  0  0  0  0
  3  4  1  0  0  0  0
  4  5  1  0  0  0  0
  5  6  1  0  0  0  0
  6 29  1  0  0  0  0
  6  7  2  0  0  0  0
  7 11  1  0  0  0  0
  8  7  1  0  0  0  0
  8 30  1  0  0  0  0
  9  8  2  0  0  0  0
 10  5  2  0  0  0  0
 10  9  1  0  0  0  0
 11 14  1  0  0  0  0
 11 12  1  0  0  0  0
 13 11  1  0  0  0  0
 15  3  1  0  0  0  0
 15 16  1  0  0  0  0
 17 15  2  0  0  0  0
 18 28  2  0  0  0  0
 18 17  1  0  0  0  0
 19 18  1  0  0  0  0
 20 19  1  0  0  0  0
 21 20  2  0  0  0  0
 22 24  1  0  0  0  0
 22 21  1  0  0  0  0
 23 22  2  0  0  0  0
 24 26  1  0  0  0  0
 25 24  1  0  0  0  0
 26 27  2  0  0  0  0
 26 19  1  0  0  0  0
 28  2  1  0  0  0  0
 31  9  1  0  0  0  0
 32 10  1  0  0  0  0
 33 17  1  0  0  0  0
 34 21  1  0  0  0  0
 35 28  1  0  0  0  0
M  END
$$$$
