rmsd137.gzmat
 OpenBabel08211713393D

 35 37  0  0  0  0  0  0  0  0999 V2000
    0.0000    0.0000    0.0000 Cl  0  0  0  0  0  0  0  0  0  0  0  0
    1.7036    0.0000    0.0000 C   0  0  0  0  0  0  0  0  0  0  0  0
    2.4158    0.0000    1.1989 C   0  0  0  0  0  0  0  0  0  0  0  0
    1.6373    0.0600    2.7901 S   0  0  0  0  0  0  0  0  0  0  0  0
    0.4036   -1.2119    2.6576 C   0  0  0  0  0  0  0  0  0  0  0  0
   -0.8650   -0.9378    3.1679 C   0  0  0  0  0  0  0  0  0  0  0  0
   -1.8498   -1.9197    3.0863 C   0  0  0  0  0  0  0  0  0  0  0  0
   -1.5812   -3.1547    2.4931 C   0  0  0  0  0  0  0  0  0  0  0  0
   -0.3100   -3.4134    1.9860 C   0  0  0  0  0  0  0  0  0  0  0  0
    0.6883   -2.4452    2.0742 C   0  0  0  0  0  0  0  0  0  0  0  0
   -3.2325   -1.6807    3.6213 C   0  0  0  0  0  0  0  0  0  0  0  0
   -4.1906   -1.8283    2.7049 F   0  0  0  0  0  0  0  0  0  0  0  0
   -3.5742   -2.5212    4.5996 F   0  0  0  0  0  0  0  0  0  0  0  0
   -3.4568   -0.4728    4.1355 F   0  0  0  0  0  0  0  0  0  0  0  0
    3.8071    0.0022    1.1080 C   0  0  0  0  0  0  0  0  0  0  0  0
    4.7678   -0.0035    2.5121 Cl  0  0  0  0  0  0  0  0  0  0  0  0
    4.4794    0.0065   -0.1078 C   0  0  0  0  0  0  0  0  0  0  0  0
    3.7254   -0.0146   -1.2870 C   0  0  0  0  0  0  0  0  0  0  0  0
    4.3957   -0.0355   -2.5538 N   0  0  0  0  0  0  0  0  0  0  0  0
    3.7809    0.6427   -3.5444 N   0  0  0  0  0  0  0  0  0  0  0  0
    4.3045    0.6505   -4.7317 C   0  0  0  0  0  0  0  0  0  0  0  0
    5.5453   -0.0599   -5.1035 C   0  0  0  0  0  0  0  0  0  0  0  0
    6.0735   -0.0879   -6.1834 O   0  0  0  0  0  0  0  0  0  0  0  0
    6.1273   -0.7722   -4.0270 N   0  0  0  0  0  0  0  0  0  0  0  0
    6.9870   -1.3068   -4.1904 H   0  0  0  0  0  0  0  0  0  0  0  0
    5.5888   -0.8022   -2.7356 C   0  0  0  0  0  0  0  0  0  0  0  0
    6.0923   -1.4262   -1.8353 O   0  0  0  0  0  0  0  0  0  0  0  0
    2.3245   -0.0139   -1.2410 C   0  0  0  0  0  0  0  0  0  0  0  0
   -1.0828    0.0384    3.6130 H   0  0  0  0  0  0  0  0  0  0  0  0
   -2.3576   -3.9201    2.4218 H   0  0  0  0  0  0  0  0  0  0  0  0
   -0.0945   -4.3745    1.5190 H   0  0  0  0  0  0  0  0  0  0  0  0
    1.6821   -2.6669    1.6777 H   0  0  0  0  0  0  0  0  0  0  0  0
    5.5749    0.0137   -0.1382 H   0  0  0  0  0  0  0  0  0  0  0  0
    3.7954    1.2235   -5.5202 H   0  0  0  0  0  0  0  0  0  0  0  0
    1.7397   -0.0137   -2.1666 H   0  0  0  0  0  0  0  0  0  0  0  0
  2  1  1  0  0  0  0
  2  3  2  0  0  0  0
  3  4  1  0  0  0  0
  5  4  1  0  0  0  0
  5  6  2  0  0  0  0
  6 29  1  0  0  0  0
  7  6  1  0  0  0  0
  7 11  1  0  0  0  0
  8  7  2  0  0  0  0
  9 10  2  0  0  0  0
  9  8  1  0  0  0  0
 10  5  1  0  0  0  0
 11 14  1  0  0  0  0
 11 13  1  0  0  0  0
 12 11  1  0  0  0  0
 15  3  1  0  0  0  0
 15 16  1  0  0  0  0
 17 15  2  0  0  0  0
 18 28  2  0  0  0  0
 18 17  1  0  0  0  0
 19 18  1  0  0  0  0
 20 19  1  0  0  0  0
 21 20  2  0  0  0  0
 22 21  1  0  0  0  0
 22 24  1  0  0  0  0
 23 22  2  0  0  0  0
 24 26  1  0  0  0  0
 25 24  1  0  0  0  0
 26 19  1  0  0  0  0
 26 27  2  0  0  0  0
 28  2  1  0  0  0  0
 30  8  1  0  0  0  0
 31  9  1  0  0  0  0
 32 10  1  0  0  0  0
 33 17  1  0  0  0  0
 34 21  1  0  0  0  0
 35 28  1  0  0  0  0
M  END
$$$$
