35
rmsd137.gzmat
Cl         0.00000        0.00000        0.00000
C          1.70360        0.00000        0.00000
C          2.41580        0.00000        1.19890
S          1.63730        0.06000        2.79010
C          0.40360       -1.21190        2.65760
C         -0.86500       -0.93780        3.16790
C         -1.84980       -1.91970        3.08630
C         -1.58120       -3.15470        2.49310
C         -0.31000       -3.41340        1.98600
C          0.68830       -2.44520        2.07420
C         -3.23250       -1.68070        3.62130
F         -4.19060       -1.82830        2.70490
F         -3.57420       -2.52120        4.59960
F         -3.45680       -0.47280        4.13550
C          3.80710        0.00220        1.10800
Cl         4.76780       -0.00350        2.51210
C          4.47940        0.00650       -0.10780
C          3.72540       -0.01460       -1.28700
N          4.39570       -0.03550       -2.55380
N          3.78090        0.64270       -3.54440
C          4.30450        0.65050       -4.73170
C          5.54530       -0.05990       -5.10350
O          6.07350       -0.08790       -6.18340
N          6.12730       -0.77220       -4.02700
H          6.98700       -1.30680       -4.19040
C          5.58880       -0.80220       -2.73560
O          6.09230       -1.42620       -1.83530
C          2.32450       -0.01390       -1.24100
H         -1.08280        0.03840        3.61300
H         -2.35760       -3.92010        2.42180
H         -0.09450       -4.37450        1.51900
H          1.68210       -2.66690        1.67770
H          5.57490        0.01370       -0.13820
H          3.79540        1.22350       -5.52020
H          1.73970       -0.01370       -2.16660
