rmsd147.gzmat
 OpenBabel08211713393D

 35 37  0  0  0  0  0  0  0  0999 V2000
    0.0000    0.0000    0.0000 Cl  0  0  0  0  0  0  0  0  0  0  0  0
    1.7034    0.0000    0.0000 C   0  0  0  0  0  0  0  0  0  0  0  0
    2.4120    0.0000    1.2010 C   0  0  0  0  0  0  0  0  0  0  0  0
    1.6285    0.0893    2.7883 S   0  0  0  0  0  0  0  0  0  0  0  0
    0.4154   -1.2050    2.6950 C   0  0  0  0  0  0  0  0  0  0  0  0
   -0.8497   -0.9422    3.2196 C   0  0  0  0  0  0  0  0  0  0  0  0
   -1.8146   -1.9465    3.1853 C   0  0  0  0  0  0  0  0  0  0  0  0
   -1.5297   -3.1926    2.6243 C   0  0  0  0  0  0  0  0  0  0  0  0
   -0.2619   -3.4401    2.1033 C   0  0  0  0  0  0  0  0  0  0  0  0
    0.7159   -2.4480    2.1416 C   0  0  0  0  0  0  0  0  0  0  0  0
   -3.1937   -1.7172    3.7338 C   0  0  0  0  0  0  0  0  0  0  0  0
   -4.1513   -1.7899    2.8080 F   0  0  0  0  0  0  0  0  0  0  0  0
   -3.5545   -2.6095    4.6579 F   0  0  0  0  0  0  0  0  0  0  0  0
   -3.3961   -0.5400    4.3227 F   0  0  0  0  0  0  0  0  0  0  0  0
    3.8035   -0.0143    1.1160 C   0  0  0  0  0  0  0  0  0  0  0  0
    4.7585   -0.0375    2.5236 Cl  0  0  0  0  0  0  0  0  0  0  0  0
    4.4798   -0.0148   -0.0974 C   0  0  0  0  0  0  0  0  0  0  0  0
    3.7297   -0.0266   -1.2792 C   0  0  0  0  0  0  0  0  0  0  0  0
    4.4077   -0.0501   -2.5416 N   0  0  0  0  0  0  0  0  0  0  0  0
    3.8179    0.6540   -3.5290 N   0  0  0  0  0  0  0  0  0  0  0  0
    4.3584    0.6711   -4.7086 C   0  0  0  0  0  0  0  0  0  0  0  0
    5.5941   -0.0522   -5.0732 C   0  0  0  0  0  0  0  0  0  0  0  0
    6.1358   -0.0725   -6.1465 O   0  0  0  0  0  0  0  0  0  0  0  0
    6.1537   -0.7849   -3.9989 N   0  0  0  0  0  0  0  0  0  0  0  0
    7.0102   -1.3264   -4.1567 H   0  0  0  0  0  0  0  0  0  0  0  0
    5.5953   -0.8272   -2.7165 C   0  0  0  0  0  0  0  0  0  0  0  0
    6.0769   -1.4712   -1.8187 O   0  0  0  0  0  0  0  0  0  0  0  0
    2.3283   -0.0169   -1.2391 C   0  0  0  0  0  0  0  0  0  0  0  0
   -1.0788    0.0415    3.6419 H   0  0  0  0  0  0  0  0  0  0  0  0
   -2.2902   -3.9759    2.5880 H   0  0  0  0  0  0  0  0  0  0  0  0
   -0.0333   -4.4119    1.6660 H   0  0  0  0  0  0  0  0  0  0  0  0
    1.7072   -2.6600    1.7336 H   0  0  0  0  0  0  0  0  0  0  0  0
    5.5755   -0.0187   -0.1249 H   0  0  0  0  0  0  0  0  0  0  0  0
    3.8704    1.2640   -5.4950 H   0  0  0  0  0  0  0  0  0  0  0  0
    1.7473   -0.0128   -2.1671 H   0  0  0  0  0  0  0  0  0  0  0  0
  2  1  1  0  0  0  0
  2  3  2  0  0  0  0
  3  4  1  0  0  0  0
  5  4  1  0  0  0  0
  5  6  2  0  0  0  0
  6 29  1  0  0  0  0
  7  6  1  0  0  0  0
  7 11  1  0  0  0  0
  8  7  2  0  0  0  0
  9 10  2  0  0  0  0
  9  8  1  0  0  0  0
 10  5  1  0  0  0  0
 11 14  1  0  0  0  0
 11 13  1  0  0  0  0
 12 11  1  0  0  0  0
 15  3  1  0  0  0  0
 15 16  1  0  0  0  0
 17 15  2  0  0  0  0
 18 28  2  0  0  0  0
 18 17  1  0  0  0  0
 19 18  1  0  0  0  0
 20 19  1  0  0  0  0
 21 20  2  0  0  0  0
 22 21  1  0  0  0  0
 22 24  1  0  0  0  0
 23 22  2  0  0  0  0
 24 26  1  0  0  0  0
 25 24  1  0  0  0  0
 26 19  1  0  0  0  0
 26 27  2  0  0  0  0
 28  2  1  0  0  0  0
 30  8  1  0  0  0  0
 31  9  1  0  0  0  0
 32 10  1  0  0  0  0
 33 17  1  0  0  0  0
 34 21  1  0  0  0  0
 35 28  1  0  0  0  0
M  END
$$$$
