rmsd47.gzmat
 OpenBabel08211713393D

 35 37  0  0  0  0  0  0  0  0999 V2000
    0.0000    0.0000    0.0000 Cl  0  0  0  0  0  0  0  0  0  0  0  0
    1.7014    0.0000    0.0000 C   0  0  0  0  0  0  0  0  0  0  0  0
    2.4128    0.0000    1.1991 C   0  0  0  0  0  0  0  0  0  0  0  0
    1.5445    0.1061    2.7401 S   0  0  0  0  0  0  0  0  0  0  0  0
    2.2681   -1.2086    3.6902 C   0  0  0  0  0  0  0  0  0  0  0  0
    2.4958   -0.9708    5.0456 C   0  0  0  0  0  0  0  0  0  0  0  0
    3.0261   -1.9936    5.8293 C   0  0  0  0  0  0  0  0  0  0  0  0
    3.3468   -3.2312    5.2683 C   0  0  0  0  0  0  0  0  0  0  0  0
    3.1237   -3.4504    3.9110 C   0  0  0  0  0  0  0  0  0  0  0  0
    2.5754   -2.4426    3.1200 C   0  0  0  0  0  0  0  0  0  0  0  0
    3.2781   -1.7978    7.2969 C   0  0  0  0  0  0  0  0  0  0  0  0
    2.6340   -2.6762    8.0676 F   0  0  0  0  0  0  0  0  0  0  0  0
    4.5607   -1.9319    7.6382 F   0  0  0  0  0  0  0  0  0  0  0  0
    2.9294   -0.6125    7.7942 F   0  0  0  0  0  0  0  0  0  0  0  0
    3.8044   -0.0256    1.1105 C   0  0  0  0  0  0  0  0  0  0  0  0
    4.7605   -0.0503    2.5202 Cl  0  0  0  0  0  0  0  0  0  0  0  0
    4.4769   -0.0496   -0.1031 C   0  0  0  0  0  0  0  0  0  0  0  0
    3.7235   -0.0384   -1.2854 C   0  0  0  0  0  0  0  0  0  0  0  0
    4.3908   -0.0579   -2.5538 N   0  0  0  0  0  0  0  0  0  0  0  0
    5.5541    0.6243   -2.6010 N   0  0  0  0  0  0  0  0  0  0  0  0
    6.2338    0.6501   -3.7060 C   0  0  0  0  0  0  0  0  0  0  0  0
    5.8341   -0.0394   -4.9498 C   0  0  0  0  0  0  0  0  0  0  0  0
    6.4229   -0.0506   -5.9983 O   0  0  0  0  0  0  0  0  0  0  0  0
    4.6151   -0.7494   -4.8304 N   0  0  0  0  0  0  0  0  0  0  0  0
    4.2585   -1.2653   -5.6423 H   0  0  0  0  0  0  0  0  0  0  0  0
    3.8574   -0.7981   -3.6545 C   0  0  0  0  0  0  0  0  0  0  0  0
    2.8272   -1.4183   -3.5705 O   0  0  0  0  0  0  0  0  0  0  0  0
    2.3248   -0.0048   -1.2417 C   0  0  0  0  0  0  0  0  0  0  0  0
    2.2682    0.0076    5.4807 H   0  0  0  0  0  0  0  0  0  0  0  0
    3.7706   -4.0297    5.8818 H   0  0  0  0  0  0  0  0  0  0  0  0
    3.3764   -4.4130    3.4663 H   0  0  0  0  0  0  0  0  0  0  0  0
    2.3963   -2.6354    2.0596 H   0  0  0  0  0  0  0  0  0  0  0  0
    5.5709   -0.0659   -0.1439 H   0  0  0  0  0  0  0  0  0  0  0  0
    7.1714    1.2247   -3.7254 H   0  0  0  0  0  0  0  0  0  0  0  0
    1.7310    0.0062   -2.1632 H   0  0  0  0  0  0  0  0  0  0  0  0
  2  1  1  0  0  0  0
  2  3  2  0  0  0  0
  3  4  1  0  0  0  0
  4  5  1  0  0  0  0
  5  6  1  0  0  0  0
  6 29  1  0  0  0  0
  6  7  2  0  0  0  0
  7 11  1  0  0  0  0
  8  7  1  0  0  0  0
  8 30  1  0  0  0  0
  9  8  2  0  0  0  0
 10  5  2  0  0  0  0
 10  9  1  0  0  0  0
 11 13  1  0  0  0  0
 11 14  1  0  0  0  0
 11 12  1  0  0  0  0
 15  3  1  0  0  0  0
 15 16  1  0  0  0  0
 17 15  2  0  0  0  0
 18 28  2  0  0  0  0
 18 17  1  0  0  0  0
 19 18  1  0  0  0  0
 20 19  1  0  0  0  0
 21 20  2  0  0  0  0
 22 24  1  0  0  0  0
 22 21  1  0  0  0  0
 23 22  2  0  0  0  0
 24 26  1  0  0  0  0
 25 24  1  0  0  0  0
 26 27  2  0  0  0  0
 26 19  1  0  0  0  0
 28  2  1  0  0  0  0
 31  9  1  0  0  0  0
 32 10  1  0  0  0  0
 33 17  1  0  0  0  0
 34 21  1  0  0  0  0
 35 28  1  0  0  0  0
M  END
$$$$
