35

Cl        -0.01040        0.71100       -0.09990
C          1.68990        0.35090       -0.05220
C          2.34280        0.14250        1.18180
S          1.48770        0.28500        2.73500
C          0.35950       -1.09560        2.61720
C         -0.94890       -0.92230        3.07980
C         -1.84170       -1.99730        3.04920
C         -1.44580       -3.23550        2.53440
C         -0.14010       -3.39760        2.06550
C          0.76690       -2.33920        2.11560
C         -3.23340       -1.82300        3.60270
F         -4.11970       -2.62510        2.98760
F         -3.28110       -2.11960        4.91560
F         -3.67040       -0.55860        3.47080
C          3.72310       -0.13450        1.13110
Cl         4.61850       -0.42040        2.59640
C          4.42510       -0.20640       -0.07350
C          3.73750       -0.01360       -1.27420
N          4.41250       -0.06300       -2.53770
N          3.88460        0.72010       -3.50020
C          4.37940        0.72790       -4.68680
C          5.53230       -0.09250       -5.10060
O          6.03340       -0.10390       -6.20130
N          5.99500       -0.88290       -4.04770
H          6.77990       -1.50320       -4.23810
C          5.49050       -0.95260       -2.75960
O          5.93580       -1.69910       -1.92190
C          2.36650        0.26350       -1.26580
H         -1.27650        0.05330        3.44110
H         -2.15700       -4.06150        2.49510
H          0.17740       -4.36240        1.66390
H          1.79170       -2.47430        1.76560
H          5.48600       -0.43390       -0.05940
H          3.91960        1.38460       -5.42930
H          1.83460        0.43310       -2.19880
