rmsd27.gzmat
 OpenBabel08211713393D

 35 37  0  0  0  0  0  0  0  0999 V2000
    0.0000    0.0000    0.0000 Cl  0  0  0  0  0  0  0  0  0  0  0  0
    1.7020    0.0000    0.0000 C   0  0  0  0  0  0  0  0  0  0  0  0
    2.4119    0.0000    1.1994 C   0  0  0  0  0  0  0  0  0  0  0  0
    1.5467    0.0769    2.7476 S   0  0  0  0  0  0  0  0  0  0  0  0
    2.2379   -1.3354    3.5823 C   0  0  0  0  0  0  0  0  0  0  0  0
    2.9213   -1.1326    4.7805 C   0  0  0  0  0  0  0  0  0  0  0  0
    3.4861   -2.2303    5.4270 C   0  0  0  0  0  0  0  0  0  0  0  0
    3.3674   -3.5140    4.8894 C   0  0  0  0  0  0  0  0  0  0  0  0
    2.6667   -3.7027    3.7010 C   0  0  0  0  0  0  0  0  0  0  0  0
    2.0995   -2.6119    3.0428 C   0  0  0  0  0  0  0  0  0  0  0  0
    4.2667   -2.0613    6.6981 C   0  0  0  0  0  0  0  0  0  0  0  0
    3.8691   -2.8670    7.6845 F   0  0  0  0  0  0  0  0  0  0  0  0
    5.5670   -2.3236    6.5559 F   0  0  0  0  0  0  0  0  0  0  0  0
    4.2349   -0.8452    7.2406 F   0  0  0  0  0  0  0  0  0  0  0  0
    3.8031   -0.0228    1.1113 C   0  0  0  0  0  0  0  0  0  0  0  0
    4.7659   -0.0361    2.5167 Cl  0  0  0  0  0  0  0  0  0  0  0  0
    4.4768   -0.0508   -0.1018 C   0  0  0  0  0  0  0  0  0  0  0  0
    3.7245   -0.0442   -1.2843 C   0  0  0  0  0  0  0  0  0  0  0  0
    4.3917   -0.0744   -2.5528 N   0  0  0  0  0  0  0  0  0  0  0  0
    5.5717    0.5778   -2.5997 N   0  0  0  0  0  0  0  0  0  0  0  0
    6.2633    0.5672   -3.6977 C   0  0  0  0  0  0  0  0  0  0  0  0
    5.8620   -0.1382   -4.9322 C   0  0  0  0  0  0  0  0  0  0  0  0
    6.4596   -0.1808   -5.9748 O   0  0  0  0  0  0  0  0  0  0  0  0
    4.6293   -0.8236   -4.8105 N   0  0  0  0  0  0  0  0  0  0  0  0
    4.2715   -1.3519   -5.6134 H   0  0  0  0  0  0  0  0  0  0  0  0
    3.8597   -0.8339   -3.6414 C   0  0  0  0  0  0  0  0  0  0  0  0
    2.8186   -1.4353   -3.5551 O   0  0  0  0  0  0  0  0  0  0  0  0
    2.3258   -0.0074   -1.2414 C   0  0  0  0  0  0  0  0  0  0  0  0
    3.0240   -0.1233    5.1935 H   0  0  0  0  0  0  0  0  0  0  0  0
    3.8237   -4.3724    5.3888 H   0  0  0  0  0  0  0  0  0  0  0  0
    2.5653   -4.7035    3.2809 H   0  0  0  0  0  0  0  0  0  0  0  0
    1.5563   -2.7744    2.1081 H   0  0  0  0  0  0  0  0  0  0  0  0
    5.5711   -0.0683   -0.1409 H   0  0  0  0  0  0  0  0  0  0  0  0
    7.2136    1.1200   -3.7173 H   0  0  0  0  0  0  0  0  0  0  0  0
    1.7328    0.0031   -2.1629 H   0  0  0  0  0  0  0  0  0  0  0  0
  2  1  1  0  0  0  0
  2  3  2  0  0  0  0
  3  4  1  0  0  0  0
  4  5  1  0  0  0  0
  5  6  1  0  0  0  0
  6 29  1  0  0  0  0
  6  7  2  0  0  0  0
  7 11  1  0  0  0  0
  8 30  1  0  0  0  0
  8  7  1  0  0  0  0
  9  8  2  0  0  0  0
 10  5  2  0  0  0  0
 10  9  1  0  0  0  0
 11 14  1  0  0  0  0
 11 12  1  0  0  0  0
 13 11  1  0  0  0  0
 15  3  1  0  0  0  0
 15 16  1  0  0  0  0
 17 15  2  0  0  0  0
 18 28  2  0  0  0  0
 18 17  1  0  0  0  0
 19 18  1  0  0  0  0
 20 19  1  0  0  0  0
 21 20  2  0  0  0  0
 22 24  1  0  0  0  0
 22 21  1  0  0  0  0
 23 22  2  0  0  0  0
 24 26  1  0  0  0  0
 25 24  1  0  0  0  0
 26 27  2  0  0  0  0
 26 19  1  0  0  0  0
 28  2  1  0  0  0  0
 31  9  1  0  0  0  0
 32 10  1  0  0  0  0
 33 17  1  0  0  0  0
 34 21  1  0  0  0  0
 35 28  1  0  0  0  0
M  END
$$$$
