35
rmsd153.gzmat
Cl         0.00000        0.00000        0.00000
C          1.70380        0.00000        0.00000
C          2.41350        0.00000        1.20040
S          1.64010        0.07890        2.79300
C          0.38000       -1.16860        2.68690
C         -0.88190       -0.85400        3.19030
C         -1.88570       -1.81950        3.14360
C         -1.64290       -3.07670        2.58750
C         -0.37690       -3.37660        2.08990
C          0.64010       -2.42550        2.14370
C         -3.26230       -1.52530        3.66650
F         -4.18330       -1.42760        2.70650
F         -3.73700       -2.46200        4.48950
F         -3.38670       -0.39430        4.35950
C          3.80540       -0.00060        1.11210
Cl         4.76610       -0.01190        2.51660
C          4.48000        0.00770       -0.10220
C          3.72820       -0.00860       -1.28300
N          4.40410       -0.02260       -2.54720
N          3.81980        0.69900       -3.52490
C          4.35820        0.72430       -4.70550
C          5.58440       -0.00880       -5.08200
O          6.12260       -0.02430       -6.15710
N          6.13870       -0.75960       -4.01740
H          6.98860       -1.30880       -4.18470
C          5.58550       -0.80670       -2.73270
O          6.06630       -1.45890       -1.84020
C          2.32730       -0.01040       -1.24020
H         -1.08000        0.14010        3.60440
H         -2.43550       -3.82700        2.53710
H         -0.17820       -4.35750        1.65840
H          1.62940       -2.67900        1.75480
H          5.57570        0.01530       -0.13060
H          3.87540        1.33170       -5.48440
H          1.74530       -0.00830       -2.16740
