
     RDKit          3D

 35 37  0  0  0  0  0  0  0  0999 V2000
   -0.0488   -0.3628    0.1257 Cl  0  0  0  0  0  0  0  0  0  0  0  0
    1.6731   -0.1126    0.0691 C   0  0  0  0  0  0  0  0  0  0  0  0
    2.3962    0.1371    1.2520 C   0  0  0  0  0  0  0  0  0  0  0  0
    1.5733    0.2806    2.8223 S   0  0  0  0  0  0  0  0  0  0  0  0
    2.2650   -1.1222    3.6861 C   0  0  0  0  0  0  0  0  0  0  0  0
    2.5988   -0.9690    5.0356 C   0  0  0  0  0  0  0  0  0  0  0  0
    3.0938   -2.0608    5.7542 C   0  0  0  0  0  0  0  0  0  0  0  0
    3.2840   -3.2966    5.1280 C   0  0  0  0  0  0  0  0  0  0  0  0
    2.9573   -3.4386    3.7776 C   0  0  0  0  0  0  0  0  0  0  0  0
    2.4379   -2.3628    3.0575 C   0  0  0  0  0  0  0  0  0  0  0  0
    3.3972   -1.9077    7.2232 C   0  0  0  0  0  0  0  0  0  0  0  0
    2.3218   -2.1975    7.9803 F   0  0  0  0  0  0  0  0  0  0  0  0
    4.3862   -2.7288    7.6171 F   0  0  0  0  0  0  0  0  0  0  0  0
    3.7657   -0.6519    7.5305 F   0  0  0  0  0  0  0  0  0  0  0  0
    3.7899    0.3177    1.1195 C   0  0  0  0  0  0  0  0  0  0  0  0
    4.7731    0.6431    2.5161 Cl  0  0  0  0  0  0  0  0  0  0  0  0
    4.4285    0.2296   -0.1144 C   0  0  0  0  0  0  0  0  0  0  0  0
    3.6752   -0.0200   -1.2662 C   0  0  0  0  0  0  0  0  0  0  0  0
    4.3574   -0.0708   -2.5258 N   0  0  0  0  0  0  0  0  0  0  0  0
    5.4685    0.6889   -2.6065 N   0  0  0  0  0  0  0  0  0  0  0  0
    6.1870    0.6926   -3.6727 C   0  0  0  0  0  0  0  0  0  0  0  0
    5.8799   -0.1080   -4.8719 C   0  0  0  0  0  0  0  0  0  0  0  0
    6.5227   -0.1225   -5.8963 O   0  0  0  0  0  0  0  0  0  0  0  0
    4.7288   -0.8751   -4.6872 N   0  0  0  0  0  0  0  0  0  0  0  0
    4.4423   -1.4809   -5.4541 H   0  0  0  0  0  0  0  0  0  0  0  0
    3.9298   -0.9397   -3.5578 C   0  0  0  0  0  0  0  0  0  0  0  0
    2.9691   -1.6662   -3.4765 O   0  0  0  0  0  0  0  0  0  0  0  0
    2.2906   -0.1847   -1.1810 C   0  0  0  0  0  0  0  0  0  0  0  0
    2.4946    0.0037    5.5178 H   0  0  0  0  0  0  0  0  0  0  0  0
    3.6913   -4.1362    5.6926 H   0  0  0  0  0  0  0  0  0  0  0  0
    3.1010   -4.4012    3.2818 H   0  0  0  0  0  0  0  0  0  0  0  0
    2.1663   -2.4821    2.0074 H   0  0  0  0  0  0  0  0  0  0  0  0
    5.5036    0.3775   -0.1824 H   0  0  0  0  0  0  0  0  0  0  0  0
    7.0742    1.3302   -3.6904 H   0  0  0  0  0  0  0  0  0  0  0  0
    1.6901   -0.3906   -2.0610 H   0  0  0  0  0  0  0  0  0  0  0  0
  1  2  1  0
  2  3  2  0
  2 28  1  0
  3  4  1  0
  3 15  1  0
  4  5  1  0
  5  6  2  0
  5 10  1  0
  6  7  1  0
  6 29  1  0
  7  8  2  0
  7 11  1  0
  8  9  1  0
  8 30  1  0
  9 10  2  0
  9 31  1  0
 10 32  1  0
 11 12  1  0
 11 13  1  0
 11 14  1  0
 15 16  1  0
 15 17  2  0
 17 18  1  0
 17 33  1  0
 18 19  1  0
 18 28  2  0
 19 20  1  0
 19 26  1  0
 20 21  2  0
 21 22  1  0
 21 34  1  0
 22 23  2  0
 22 24  1  0
 24 25  1  0
 24 26  1  0
 26 27  2  0
 28 35  1  0
M  END

