rmsd124.gzmat
 OpenBabel08211713393D

 35 37  0  0  0  0  0  0  0  0999 V2000
    0.0000    0.0000    0.0000 Cl  0  0  0  0  0  0  0  0  0  0  0  0
    1.7046    0.0000    0.0000 C   0  0  0  0  0  0  0  0  0  0  0  0
    2.4284    0.0000    1.1918 C   0  0  0  0  0  0  0  0  0  0  0  0
    1.6815    0.0409    2.8002 S   0  0  0  0  0  0  0  0  0  0  0  0
    0.4038   -1.1870    2.6433 C   0  0  0  0  0  0  0  0  0  0  0  0
   -0.9220   -0.7829    2.8035 C   0  0  0  0  0  0  0  0  0  0  0  0
   -1.9366   -1.7217    2.6349 C   0  0  0  0  0  0  0  0  0  0  0  0
   -1.6356   -3.0512    2.3285 C   0  0  0  0  0  0  0  0  0  0  0  0
   -0.3068   -3.4450    2.1986 C   0  0  0  0  0  0  0  0  0  0  0  0
    0.7185   -2.5124    2.3553 C   0  0  0  0  0  0  0  0  0  0  0  0
   -3.3817   -1.3317    2.7441 C   0  0  0  0  0  0  0  0  0  0  0  0
   -4.0616   -1.5078    1.6098 F   0  0  0  0  0  0  0  0  0  0  0  0
   -4.0586   -2.0359    3.6526 F   0  0  0  0  0  0  0  0  0  0  0  0
   -3.6173   -0.0628    3.0729 F   0  0  0  0  0  0  0  0  0  0  0  0
    3.8190    0.0172    1.0829 C   0  0  0  0  0  0  0  0  0  0  0  0
    4.8003    0.0155    2.4743 Cl  0  0  0  0  0  0  0  0  0  0  0  0
    4.4781    0.0353   -0.1396 C   0  0  0  0  0  0  0  0  0  0  0  0
    3.7128    0.0055   -1.3116 C   0  0  0  0  0  0  0  0  0  0  0  0
    4.3663   -0.0069   -2.5871 N   0  0  0  0  0  0  0  0  0  0  0  0
    3.6930    0.6051   -3.5834 N   0  0  0  0  0  0  0  0  0  0  0  0
    4.1750    0.5858   -4.7877 C   0  0  0  0  0  0  0  0  0  0  0  0
    5.4286   -0.0927   -5.1753 C   0  0  0  0  0  0  0  0  0  0  0  0
    5.9175   -0.1505   -6.2724 O   0  0  0  0  0  0  0  0  0  0  0  0
    6.0792   -0.7290   -4.0913 N   0  0  0  0  0  0  0  0  0  0  0  0
    6.9576   -1.2312   -4.2624 H   0  0  0  0  0  0  0  0  0  0  0  0
    5.5857   -0.7281   -2.7812 C   0  0  0  0  0  0  0  0  0  0  0  0
    6.1525   -1.2895   -1.8774 O   0  0  0  0  0  0  0  0  0  0  0  0
    2.3130   -0.0085   -1.2473 C   0  0  0  0  0  0  0  0  0  0  0  0
   -1.1541    0.2621    3.0365 H   0  0  0  0  0  0  0  0  0  0  0  0
   -2.4335   -3.7846    2.1874 H   0  0  0  0  0  0  0  0  0  0  0  0
   -0.0670   -4.4827    1.9677 H   0  0  0  0  0  0  0  0  0  0  0  0
    1.7570   -2.8352    2.2447 H   0  0  0  0  0  0  0  0  0  0  0  0
    5.5733    0.0605   -0.1799 H   0  0  0  0  0  0  0  0  0  0  0  0
    3.6171    1.1082   -5.5780 H   0  0  0  0  0  0  0  0  0  0  0  0
    1.7156   -0.0134   -2.1655 H   0  0  0  0  0  0  0  0  0  0  0  0
  2  1  1  0  0  0  0
  2  3  2  0  0  0  0
  3  4  1  0  0  0  0
  5  4  1  0  0  0  0
  5  6  1  0  0  0  0
  6 29  1  0  0  0  0
  7 11  1  0  0  0  0
  7  6  2  0  0  0  0
  8  7  1  0  0  0  0
  9  8  2  0  0  0  0
  9 10  1  0  0  0  0
 10  5  2  0  0  0  0
 11 14  1  0  0  0  0
 11 13  1  0  0  0  0
 12 11  1  0  0  0  0
 15  3  1  0  0  0  0
 15 16  1  0  0  0  0
 17 15  2  0  0  0  0
 18 28  2  0  0  0  0
 18 17  1  0  0  0  0
 19 18  1  0  0  0  0
 20 19  1  0  0  0  0
 21 20  2  0  0  0  0
 22 21  1  0  0  0  0
 22 24  1  0  0  0  0
 23 22  2  0  0  0  0
 24 26  1  0  0  0  0
 25 24  1  0  0  0  0
 26 19  1  0  0  0  0
 26 27  2  0  0  0  0
 28  2  1  0  0  0  0
 30  8  1  0  0  0  0
 31  9  1  0  0  0  0
 32 10  1  0  0  0  0
 33 17  1  0  0  0  0
 34 21  1  0  0  0  0
 35 28  1  0  0  0  0
M  END
$$$$
