35
rmsd41.gzmat
Cl         0.00000        0.00000        0.00000
C          1.70200        0.00000        0.00000
C          2.41340        0.00000        1.19960
S          1.53710        0.08820        2.73970
C          2.33390       -1.19710        3.67550
C          2.88590       -0.86680        4.91300
C          3.54270       -1.85600        5.64170
C          3.64550       -3.15810        5.14660
C          3.07270       -3.47670        3.91800
C          2.41130       -2.49650        3.17960
C          4.18850       -1.54620        6.96110
F          3.82510       -2.37200        7.94380
F          5.51950       -1.63140        6.92910
F          3.94980       -0.33170        7.45340
C          3.80470       -0.02000        1.10850
Cl         4.77380       -0.03330        2.50990
C          4.47710       -0.04040       -0.10570
C          3.72380       -0.02890       -1.28680
N          4.39010       -0.03950       -2.55580
N          5.53800        0.66670       -2.60930
C          6.20570        0.71340       -3.72100
C          5.80540        0.02740       -4.96680
O          6.37910        0.04120       -6.02350
N          4.60590       -0.71350       -4.83840
H          4.25210       -1.23370       -5.64850
C          3.86180       -0.78570       -3.65510
O          2.84650       -1.42910       -3.56370
C          2.32460       -0.00170       -1.24170
H          2.81610        0.15840        5.29170
H          4.17410       -3.92970        5.71160
H          3.14530       -4.49240        3.52920
H          1.96630       -2.76170        2.21700
H          5.57110       -0.05290       -0.14810
H          7.13240        1.30430       -3.74410
H          1.73220        0.00700       -2.16320
