
     RDKit          3D

 35 37  0  0  0  0  0  0  0  0999 V2000
   -0.0556    0.6920   -0.2451 Cl  0  0  0  0  0  0  0  0  0  0  0  0
    1.6558    0.4052   -0.1352 C   0  0  0  0  0  0  0  0  0  0  0  0
    2.2797    0.2721    1.1240 C   0  0  0  0  0  0  0  0  0  0  0  0
    1.3741    0.4386    2.6457 S   0  0  0  0  0  0  0  0  0  0  0  0
    0.3049   -0.9900    2.5485 C   0  0  0  0  0  0  0  0  0  0  0  0
   -1.0207   -0.8541    2.9729 C   0  0  0  0  0  0  0  0  0  0  0  0
   -1.8682   -1.9653    2.9616 C   0  0  0  0  0  0  0  0  0  0  0  0
   -1.4069   -3.2068    2.5129 C   0  0  0  0  0  0  0  0  0  0  0  0
   -0.0842   -3.3320    2.0823 C   0  0  0  0  0  0  0  0  0  0  0  0
    0.7757   -2.2341    2.1072 C   0  0  0  0  0  0  0  0  0  0  0  0
   -3.3119   -1.8015    3.3643 C   0  0  0  0  0  0  0  0  0  0  0  0
   -4.0833   -1.4753    2.3092 F   0  0  0  0  0  0  0  0  0  0  0  0
   -3.8168   -2.9344    3.8827 F   0  0  0  0  0  0  0  0  0  0  0  0
   -3.4694   -0.8300    4.2797 F   0  0  0  0  0  0  0  0  0  0  0  0
    3.6710    0.0511    1.1231 C   0  0  0  0  0  0  0  0  0  0  0  0
    4.5334   -0.1400    2.6231 Cl  0  0  0  0  0  0  0  0  0  0  0  0
    4.4108   -0.0381   -0.0576 C   0  0  0  0  0  0  0  0  0  0  0  0
    3.7518    0.0791   -1.2838 C   0  0  0  0  0  0  0  0  0  0  0  0
    4.4652    0.0087   -2.5251 N   0  0  0  0  0  0  0  0  0  0  0  0
    3.9337    0.7298   -3.5329 N   0  0  0  0  0  0  0  0  0  0  0  0
    4.4624    0.7120   -4.7047 C   0  0  0  0  0  0  0  0  0  0  0  0
    5.6601   -0.0741   -5.0528 C   0  0  0  0  0  0  0  0  0  0  0  0
    6.1932   -0.1075   -6.1378 O   0  0  0  0  0  0  0  0  0  0  0  0
    6.1243   -0.8015   -3.9561 N   0  0  0  0  0  0  0  0  0  0  0  0
    6.9396   -1.3948   -4.0992 H   0  0  0  0  0  0  0  0  0  0  0  0
    5.5856   -0.8418   -2.6807 C   0  0  0  0  0  0  0  0  0  0  0  0
    6.0370   -1.5349   -1.8014 O   0  0  0  0  0  0  0  0  0  0  0  0
    2.3711    0.2989   -1.3248 C   0  0  0  0  0  0  0  0  0  0  0  0
   -1.3929    0.1172    3.3013 H   0  0  0  0  0  0  0  0  0  0  0  0
   -2.0774   -4.0671    2.5067 H   0  0  0  0  0  0  0  0  0  0  0  0
    0.2858   -4.2999    1.7369 H   0  0  0  0  0  0  0  0  0  0  0  0
    1.8145   -2.3401    1.7900 H   0  0  0  0  0  0  0  0  0  0  0  0
    5.4792   -0.2204   -0.0046 H   0  0  0  0  0  0  0  0  0  0  0  0
    3.9977    1.3185   -5.4858 H   0  0  0  0  0  0  0  0  0  0  0  0
    1.8605    0.4098   -2.2784 H   0  0  0  0  0  0  0  0  0  0  0  0
  1  2  1  0
  2  3  2  0
  2 28  1  0
  3  4  1  0
  3 15  1  0
  4  5  1  0
  5  6  2  0
  5 10  1  0
  6  7  1  0
  6 29  1  0
  7  8  2  0
  7 11  1  0
  8  9  1  0
  8 30  1  0
  9 10  2  0
  9 31  1  0
 10 32  1  0
 11 12  1  0
 11 13  1  0
 11 14  1  0
 15 16  1  0
 15 17  2  0
 17 18  1  0
 17 33  1  0
 18 19  1  0
 18 28  2  0
 19 20  1  0
 19 26  1  0
 20 21  2  0
 21 22  1  0
 21 34  1  0
 22 23  2  0
 22 24  1  0
 24 25  1  0
 24 26  1  0
 26 27  2  0
 28 35  1  0
M  END

