rmsd134.gzmat
 OpenBabel08211713393D

 35 37  0  0  0  0  0  0  0  0999 V2000
    0.0000    0.0000    0.0000 Cl  0  0  0  0  0  0  0  0  0  0  0  0
    1.7044    0.0000    0.0000 C   0  0  0  0  0  0  0  0  0  0  0  0
    2.4230    0.0000    1.1950 C   0  0  0  0  0  0  0  0  0  0  0  0
    1.6663    0.0914    2.7957 S   0  0  0  0  0  0  0  0  0  0  0  0
    0.3663   -1.1155    2.6770 C   0  0  0  0  0  0  0  0  0  0  0  0
   -0.9402   -0.7045    2.9415 C   0  0  0  0  0  0  0  0  0  0  0  0
   -1.9709   -1.6378    2.8519 C   0  0  0  0  0  0  0  0  0  0  0  0
   -1.7061   -2.9627    2.4975 C   0  0  0  0  0  0  0  0  0  0  0  0
   -0.3950   -3.3611    2.2497 C   0  0  0  0  0  0  0  0  0  0  0  0
    0.6463   -2.4377    2.3405 C   0  0  0  0  0  0  0  0  0  0  0  0
   -3.3971   -1.2408    3.1015 C   0  0  0  0  0  0  0  0  0  0  0  0
   -4.1442   -1.2394    1.9962 F   0  0  0  0  0  0  0  0  0  0  0  0
   -4.0430   -2.0532    3.9399 F   0  0  0  0  0  0  0  0  0  0  0  0
   -3.5781   -0.0289    3.6235 F   0  0  0  0  0  0  0  0  0  0  0  0
    3.8142   -0.0072    1.0921 C   0  0  0  0  0  0  0  0  0  0  0  0
    4.7866   -0.0472    2.4890 Cl  0  0  0  0  0  0  0  0  0  0  0  0
    4.4795    0.0155   -0.1276 C   0  0  0  0  0  0  0  0  0  0  0  0
    3.7191    0.0069   -1.3027 C   0  0  0  0  0  0  0  0  0  0  0  0
    4.3724    0.0203   -2.5784 N   0  0  0  0  0  0  0  0  0  0  0  0
    3.7008    0.6628   -3.5568 N   0  0  0  0  0  0  0  0  0  0  0  0
    4.1785    0.6709   -4.7628 C   0  0  0  0  0  0  0  0  0  0  0  0
    5.4250   -0.0077   -5.1725 C   0  0  0  0  0  0  0  0  0  0  0  0
    5.9036   -0.0489   -6.2748 O   0  0  0  0  0  0  0  0  0  0  0  0
    6.0814   -0.6651   -4.1045 N   0  0  0  0  0  0  0  0  0  0  0  0
    6.9566   -1.1665   -4.2908 H   0  0  0  0  0  0  0  0  0  0  0  0
    5.5964   -0.6885   -2.7911 C   0  0  0  0  0  0  0  0  0  0  0  0
    6.1726   -1.2606   -1.9001 O   0  0  0  0  0  0  0  0  0  0  0  0
    2.3183   -0.0080   -1.2443 C   0  0  0  0  0  0  0  0  0  0  0  0
   -1.1495    0.3395    3.1988 H   0  0  0  0  0  0  0  0  0  0  0  0
   -2.5170   -3.6899    2.4094 H   0  0  0  0  0  0  0  0  0  0  0  0
   -0.1801   -4.3958    1.9830 H   0  0  0  0  0  0  0  0  0  0  0  0
    1.6697   -2.7660    2.1429 H   0  0  0  0  0  0  0  0  0  0  0  0
    5.5754    0.0309   -0.1624 H   0  0  0  0  0  0  0  0  0  0  0  0
    3.6242    1.2203   -5.5371 H   0  0  0  0  0  0  0  0  0  0  0  0
    1.7253   -0.0110   -2.1652 H   0  0  0  0  0  0  0  0  0  0  0  0
  2  1  1  0  0  0  0
  2  3  2  0  0  0  0
  3  4  1  0  0  0  0
  5  4  1  0  0  0  0
  5  6  2  0  0  0  0
  6 29  1  0  0  0  0
  7  6  1  0  0  0  0
  7 11  1  0  0  0  0
  8  7  2  0  0  0  0
  9 10  2  0  0  0  0
  9  8  1  0  0  0  0
 10  5  1  0  0  0  0
 11 14  1  0  0  0  0
 11 13  1  0  0  0  0
 12 11  1  0  0  0  0
 15  3  1  0  0  0  0
 15 16  1  0  0  0  0
 17 15  2  0  0  0  0
 18 28  2  0  0  0  0
 18 17  1  0  0  0  0
 19 18  1  0  0  0  0
 20 19  1  0  0  0  0
 21 20  2  0  0  0  0
 22 21  1  0  0  0  0
 22 24  1  0  0  0  0
 23 22  2  0  0  0  0
 24 26  1  0  0  0  0
 25 24  1  0  0  0  0
 26 19  1  0  0  0  0
 26 27  2  0  0  0  0
 28  2  1  0  0  0  0
 30  8  1  0  0  0  0
 31  9  1  0  0  0  0
 32 10  1  0  0  0  0
 33 17  1  0  0  0  0
 34 21  1  0  0  0  0
 35 28  1  0  0  0  0
M  END
$$$$
