35
rmsd136.gzmat
Cl         0.00000        0.00000        0.00000
C          1.70370        0.00000        0.00000
C          2.41230        0.00000        1.20100
S          1.62860        0.04140        2.79010
C          0.43140       -1.26530        2.66070
C         -0.82560       -1.04260        3.22210
C         -1.78300       -2.05230        3.15120
C         -1.50120       -3.26260        2.51490
C         -0.23990       -3.47240        1.96250
C          0.73290       -2.47770        2.04210
C         -3.14900       -1.87100        3.74770
F         -4.13620       -1.97720        2.85670
F         -3.44360       -2.77670        4.68220
F         -3.37220       -0.70190        4.34540
C          3.80380        0.01040        1.11550
Cl         4.76100        0.01520        2.52180
C          4.47970        0.01040       -0.09820
C          3.72950       -0.02640       -1.27940
N          4.41050       -0.07870       -2.53970
N          3.82040        0.59370       -3.54830
C          4.34710        0.55410       -4.73380
C          5.56110       -0.21080       -5.08580
O          6.08540       -0.28940       -6.16520
N          6.12030       -0.91030       -3.98990
H          6.96190       -1.47730       -4.13780
C          5.58090       -0.88610       -2.69890
O          6.06600       -1.49750       -1.78030
C          2.32870       -0.01920       -1.23930
H         -1.05400       -0.08630        3.70330
H         -2.25960       -4.04590        2.44530
H         -0.01290       -4.41680        1.46760
H          1.72100       -2.66340        1.61410
H          5.57530        0.02360       -0.12630
H          3.86240        1.12680       -5.53690
H          1.74710       -0.02110       -2.16690
