42
rmsd106.gzmat
C          0.00000        0.00000        0.00000
C          1.41000        0.00000        0.00000
C          2.06230        0.00000        1.25670
C          1.36580        0.11560        2.45030
C         -0.02990        0.17000        2.42030
C         -0.70270        0.09360        1.20930
O          3.40870       -0.24350        1.23670
C          4.24970        0.72850        1.75280
O          3.85850        1.57690        2.50190
C          5.61240        0.47070        1.25630
C          6.05490       -0.82910        1.00760
C          7.33680       -1.02790        0.50130
C          8.16240        0.06690        0.24360
C          7.71250        1.36310        0.48990
C          6.43250        1.57100        0.99940
N          2.13580       -0.06030       -1.19790
C          3.31350        0.66670       -1.40460
O          3.73510        1.44940       -0.58440
C          4.01510        0.36360       -2.67880
C          3.40970        0.57510       -3.91490
C          4.12370        0.29890       -5.07960
C          5.42830       -0.18660       -5.00140
C          6.03050       -0.38930       -3.75980
C          5.32520       -0.10910       -2.59260
C         -0.73450       -0.09880       -1.26160
O         -0.30080       -0.37970       -2.35770
O         -2.05980        0.15200       -1.11180
H          1.91040        0.16030        3.39560
H         -0.58600        0.26480        3.35120
H         -1.79690        0.11010        1.19320
H          5.39960       -1.67960        1.20320
H          7.69400       -2.03680        0.30730
H          9.16370       -0.09250       -0.15320
H          8.35850        2.21440        0.28250
H          6.06320        2.58260        1.18560
H          1.67610       -0.52230       -1.99050
H          2.39070        0.95850       -3.97570
H          3.66020        0.46120       -6.05100
H          5.98060       -0.40670       -5.91360
H          7.05060       -0.76250       -3.70170
H          5.79320       -0.25110       -1.61480
H         -2.56330        0.08350       -1.96310
