42

C          0.03920        0.14710        0.10890
C          1.45210        0.11190        0.22200
C          2.01870        0.22530        1.50800
C          1.22440        0.45800        2.62510
C         -0.16410        0.54750        2.49670
C         -0.75210        0.37150        1.24920
O          3.37560        0.09750        1.68060
C          3.96090       -1.10820        1.38580
O          3.33140       -2.12730        1.27260
C          5.43180       -0.97710        1.22940
C          6.18180       -2.15350        1.07550
C          7.56060       -2.08120        0.88740
C          8.19420       -0.83400        0.84590
C          7.44760        0.33960        0.99280
C          6.06710        0.27400        1.18650
N          2.26120       -0.07140       -0.90130
C          3.34230        0.72400       -1.24240
O          3.75930        1.62370       -0.53740
C          3.99300        0.35930       -2.54450
C          3.29770       -0.22720       -3.61330
C          3.96600       -0.52410       -4.80300
C          5.32980       -0.24620       -4.93050
C          6.02390        0.34490       -3.86960
C          5.35620        0.65700       -2.68620
C         -0.60700       -0.07940       -1.20720
O         -0.05150       -0.49610       -2.20890
O         -1.92160        0.19930       -1.21140
H          1.71530        0.54220        3.59600
H         -0.78390        0.72730        3.37690
H         -1.83510        0.40330        1.13660
H          5.66110       -3.11220        1.10120
H          8.14450       -2.99670        0.76860
H          9.27500       -0.77700        0.69420
H          7.94320        1.31230        0.95160
H          5.46700        1.17890        1.26940
H          1.82050       -0.60940       -1.64300
H          2.22590       -0.42780       -3.54030
H          3.41700       -0.97070       -5.63520
H          5.85160       -0.48640       -5.86010
H          7.08970        0.56450       -3.96720
H          5.87570        1.12550       -1.84900
H         -2.24500       -0.01280       -2.10330
