
     RDKit          3D

 42 44  0  0  0  0  0  0  0  0999 V2000
   -0.1057    0.0165    0.1775 C   0  0  0  0  0  0  0  0  0  0  0  0
    1.3068    0.0667    0.2431 C   0  0  0  0  0  0  0  0  0  0  0  0
    1.9091    0.2196    1.5098 C   0  0  0  0  0  0  0  0  0  0  0  0
    1.1469    0.4007    2.6552 C   0  0  0  0  0  0  0  0  0  0  0  0
   -0.2498    0.4040    2.5732 C   0  0  0  0  0  0  0  0  0  0  0  0
   -0.8683    0.1928    1.3466 C   0  0  0  0  0  0  0  0  0  0  0  0
    3.2818    0.1813    1.6066 O   0  0  0  0  0  0  0  0  0  0  0  0
    3.9117   -1.0005    1.2967 C   0  0  0  0  0  0  0  0  0  0  0  0
    3.3403   -2.0598    1.2985 O   0  0  0  0  0  0  0  0  0  0  0  0
    5.3372   -0.7911    0.9406 C   0  0  0  0  0  0  0  0  0  0  0  0
    6.1209   -1.9290    0.6915 C   0  0  0  0  0  0  0  0  0  0  0  0
    7.4441   -1.7874    0.2807 C   0  0  0  0  0  0  0  0  0  0  0  0
    7.9885   -0.5089    0.1122 C   0  0  0  0  0  0  0  0  0  0  0  0
    7.2096    0.6253    0.3589 C   0  0  0  0  0  0  0  0  0  0  0  0
    5.8848    0.4906    0.7752 C   0  0  0  0  0  0  0  0  0  0  0  0
    2.1141   -0.0822   -0.8848 N   0  0  0  0  0  0  0  0  0  0  0  0
    3.1411    0.7993   -1.2099 C   0  0  0  0  0  0  0  0  0  0  0  0
    3.3150    1.8538   -0.6283 O   0  0  0  0  0  0  0  0  0  0  0  0
    4.0461    0.3249   -2.3017 C   0  0  0  0  0  0  0  0  0  0  0  0
    4.8329    1.2769   -2.9662 C   0  0  0  0  0  0  0  0  0  0  0  0
    5.7361    0.8768   -3.9489 C   0  0  0  0  0  0  0  0  0  0  0  0
    5.8722   -0.4803   -4.2637 C   0  0  0  0  0  0  0  0  0  0  0  0
    5.1039   -1.4348   -3.5919 C   0  0  0  0  0  0  0  0  0  0  0  0
    4.1914   -1.0354   -2.6136 C   0  0  0  0  0  0  0  0  0  0  0  0
   -0.7743   -0.2566   -1.1170 C   0  0  0  0  0  0  0  0  0  0  0  0
   -0.2169   -0.6302   -2.1333 O   0  0  0  0  0  0  0  0  0  0  0  0
   -2.1059   -0.0735   -1.0816 O   0  0  0  0  0  0  0  0  0  0  0  0
    1.6645    0.5153    3.6090 H   0  0  0  0  0  0  0  0  0  0  0  0
   -0.8491    0.5447    3.4745 H   0  0  0  0  0  0  0  0  0  0  0  0
   -1.9546    0.1576    1.2715 H   0  0  0  0  0  0  0  0  0  0  0  0
    5.6664   -2.9133    0.8157 H   0  0  0  0  0  0  0  0  0  0  0  0
    8.0533   -2.6727    0.0844 H   0  0  0  0  0  0  0  0  0  0  0  0
    9.0241   -0.3975   -0.2187 H   0  0  0  0  0  0  0  0  0  0  0  0
    7.6329    1.6219    0.2158 H   0  0  0  0  0  0  0  0  0  0  0  0
    5.2569    1.3660    0.9337 H   0  0  0  0  0  0  0  0  0  0  0  0
    1.6829   -0.6001   -1.6501 H   0  0  0  0  0  0  0  0  0  0  0  0
    4.7230    2.3262   -2.6874 H   0  0  0  0  0  0  0  0  0  0  0  0
    6.3421    1.6221   -4.4694 H   0  0  0  0  0  0  0  0  0  0  0  0
    6.5859   -0.7945   -5.0292 H   0  0  0  0  0  0  0  0  0  0  0  0
    5.2232   -2.4959   -3.8218 H   0  0  0  0  0  0  0  0  0  0  0  0
    3.6209   -1.7840   -2.0610 H   0  0  0  0  0  0  0  0  0  0  0  0
   -2.4382   -0.3060   -1.9651 H   0  0  0  0  0  0  0  0  0  0  0  0
  1  2  2  0
  1  6  1  0
  1 25  1  0
  2  3  1  0
  2 16  1  0
  3  4  2  0
  3  7  1  0
  4  5  1  0
  4 28  1  0
  5  6  2  0
  5 29  1  0
  6 30  1  0
  7  8  1  0
  8  9  2  0
  8 10  1  0
 10 11  2  0
 10 15  1  0
 11 12  1  0
 11 31  1  0
 12 13  2  0
 12 32  1  0
 13 14  1  0
 13 33  1  0
 14 15  2  0
 14 34  1  0
 15 35  1  0
 16 17  1  0
 16 36  1  0
 17 18  2  0
 17 19  1  0
 19 20  2  0
 19 24  1  0
 20 21  1  0
 20 37  1  0
 21 22  2  0
 21 38  1  0
 22 23  1  0
 22 39  1  0
 23 24  2  0
 23 40  1  0
 24 41  1  0
 25 26  2  0
 25 27  1  0
 27 42  1  0
M  END

