rmsd131.gzmat
 OpenBabel08211713413D

 42 44  0  0  0  0  0  0  0  0999 V2000
    0.0000    0.0000    0.0000 C   0  0  0  0  0  0  0  0  0  0  0  0
    1.4088    0.0000    0.0000 C   0  0  0  0  0  0  0  0  0  0  0  0
    2.0648    0.0000    1.2542 C   0  0  0  0  0  0  0  0  0  0  0  0
    1.3666    0.0676    2.4501 C   0  0  0  0  0  0  0  0  0  0  0  0
   -0.0302    0.1062    2.4217 C   0  0  0  0  0  0  0  0  0  0  0  0
   -0.7041    0.0584    1.2104 C   0  0  0  0  0  0  0  0  0  0  0  0
    3.4361   -0.0219    1.1985 O   0  0  0  0  0  0  0  0  0  0  0  0
    4.1191   -0.9188    1.9823 C   0  0  0  0  0  0  0  0  0  0  0  0
    3.5795   -1.6110    2.8026 O   0  0  0  0  0  0  0  0  0  0  0  0
    5.5446   -0.8696    1.6193 C   0  0  0  0  0  0  0  0  0  0  0  0
    6.3441   -1.9616    1.9669 C   0  0  0  0  0  0  0  0  0  0  0  0
    7.6914   -1.9620    1.6181 C   0  0  0  0  0  0  0  0  0  0  0  0
    8.2333   -0.8758    0.9304 C   0  0  0  0  0  0  0  0  0  0  0  0
    7.4336    0.2155    0.5944 C   0  0  0  0  0  0  0  0  0  0  0  0
    6.0840    0.2236    0.9399 C   0  0  0  0  0  0  0  0  0  0  0  0
    2.1344   -0.0652   -1.1996 N   0  0  0  0  0  0  0  0  0  0  0  0
    3.2462    0.7484   -1.4572 C   0  0  0  0  0  0  0  0  0  0  0  0
    3.6291    1.5848   -0.6753 O   0  0  0  0  0  0  0  0  0  0  0  0
    3.9215    0.4616   -2.7515 C   0  0  0  0  0  0  0  0  0  0  0  0
    3.2475    0.5903   -3.9639 C   0  0  0  0  0  0  0  0  0  0  0  0
    3.9313    0.3502   -5.1546 C   0  0  0  0  0  0  0  0  0  0  0  0
    5.2760   -0.0170   -5.1264 C   0  0  0  0  0  0  0  0  0  0  0  0
    5.9440   -0.1456   -3.9085 C   0  0  0  0  0  0  0  0  0  0  0  0
    5.2674    0.0970   -2.7156 C   0  0  0  0  0  0  0  0  0  0  0  0
   -0.7339   -0.0789   -1.2641 C   0  0  0  0  0  0  0  0  0  0  0  0
   -0.3009   -0.3465   -2.3634 O   0  0  0  0  0  0  0  0  0  0  0  0
   -2.0577    0.1767   -1.1096 O   0  0  0  0  0  0  0  0  0  0  0  0
    1.9033    0.0688    3.4012 H   0  0  0  0  0  0  0  0  0  0  0  0
   -0.5855    0.1612    3.3563 H   0  0  0  0  0  0  0  0  0  0  0  0
   -1.7983    0.0656    1.1942 H   0  0  0  0  0  0  0  0  0  0  0  0
    5.9094   -2.8054    2.5082 H   0  0  0  0  0  0  0  0  0  0  0  0
    8.3212   -2.8086    1.8833 H   0  0  0  0  0  0  0  0  0  0  0  0
    9.2883   -0.8798    0.6585 H   0  0  0  0  0  0  0  0  0  0  0  0
    7.8633    1.0646    0.0653 H   0  0  0  0  0  0  0  0  0  0  0  0
    5.4514    1.0822    0.6786 H   0  0  0  0  0  0  0  0  0  0  0  0
    1.6809   -0.5580   -1.9773 H   0  0  0  0  0  0  0  0  0  0  0  0
    2.1965    0.8815   -3.9871 H   0  0  0  0  0  0  0  0  0  0  0  0
    3.4132    0.4491   -6.1070 H   0  0  0  0  0  0  0  0  0  0  0  0
    5.8075   -0.2029   -6.0585 H   0  0  0  0  0  0  0  0  0  0  0  0
    6.9935   -0.4322   -3.8897 H   0  0  0  0  0  0  0  0  0  0  0  0
    5.7842    0.0060   -1.7581 H   0  0  0  0  0  0  0  0  0  0  0  0
   -2.5643    0.1171   -1.9597 H   0  0  0  0  0  0  0  0  0  0  0  0
  1  2  2  0  0  0  0
  1  6  1  0  0  0  0
  2  3  1  0  0  0  0
  3  4  2  0  0  0  0
  4 28  1  0  0  0  0
  5  4  1  0  0  0  0
  5 29  1  0  0  0  0
  6  5  2  0  0  0  0
  7  3  1  0  0  0  0
  7  8  1  0  0  0  0
  8  9  2  0  0  0  0
 10 11  1  0  0  0  0
 10  8  1  0  0  0  0
 11 31  1  0  0  0  0
 12 32  1  0  0  0  0
 12 11  2  0  0  0  0
 13 12  1  0  0  0  0
 14 13  2  0  0  0  0
 14 15  1  0  0  0  0
 15 10  2  0  0  0  0
 16  2  1  0  0  0  0
 17 16  1  0  0  0  0
 17 18  2  0  0  0  0
 19 24  1  0  0  0  0
 19 17  1  0  0  0  0
 20 19  2  0  0  0  0
 21 22  2  0  0  0  0
 21 20  1  0  0  0  0
 22 23  1  0  0  0  0
 23 40  1  0  0  0  0
 23 24  2  0  0  0  0
 24 41  1  0  0  0  0
 25 27  1  0  0  0  0
 25  1  1  0  0  0  0
 26 25  2  0  0  0  0
 30  6  1  0  0  0  0
 33 13  1  0  0  0  0
 34 14  1  0  0  0  0
 35 15  1  0  0  0  0
 36 16  1  0  0  0  0
 37 20  1  0  0  0  0
 38 21  1  0  0  0  0
 39 22  1  0  0  0  0
 42 27  1  0  0  0  0
M  END
$$$$
