rmsd202.gzmat
 OpenBabel08211713413D

 42 44  0  0  0  0  0  0  0  0999 V2000
    0.0000    0.0000    0.0000 C   0  0  0  0  0  0  0  0  0  0  0  0
    1.4110    0.0000    0.0000 C   0  0  0  0  0  0  0  0  0  0  0  0
    2.0651    0.0000    1.2549 C   0  0  0  0  0  0  0  0  0  0  0  0
    1.3647   -0.1018    2.4489 C   0  0  0  0  0  0  0  0  0  0  0  0
   -0.0305   -0.1523    2.4202 C   0  0  0  0  0  0  0  0  0  0  0  0
   -0.7034   -0.0844    1.2086 C   0  0  0  0  0  0  0  0  0  0  0  0
    3.4166    0.2251    1.2384 O   0  0  0  0  0  0  0  0  0  0  0  0
    4.2310   -0.7195    1.8374 C   0  0  0  0  0  0  0  0  0  0  0  0
    3.7894   -1.5475    2.5859 O   0  0  0  0  0  0  0  0  0  0  0  0
    5.6363   -0.4702    1.4799 C   0  0  0  0  0  0  0  0  0  0  0  0
    5.9889    0.3847    0.4345 C   0  0  0  0  0  0  0  0  0  0  0  0
    7.3338    0.5588    0.1142 C   0  0  0  0  0  0  0  0  0  0  0  0
    8.3161   -0.1178    0.8362 C   0  0  0  0  0  0  0  0  0  0  0  0
    7.9601   -0.9715    1.8805 C   0  0  0  0  0  0  0  0  0  0  0  0
    6.6184   -1.1518    2.2043 C   0  0  0  0  0  0  0  0  0  0  0  0
    2.1282    0.0601   -1.2030 N   0  0  0  0  0  0  0  0  0  0  0  0
    3.2991   -0.6762   -1.4251 C   0  0  0  0  0  0  0  0  0  0  0  0
    3.7498   -1.4342   -0.5983 O   0  0  0  0  0  0  0  0  0  0  0  0
    3.9343   -0.4383   -2.7472 C   0  0  0  0  0  0  0  0  0  0  0  0
    4.1923    0.8558   -3.1978 C   0  0  0  0  0  0  0  0  0  0  0  0
    4.8263    1.0391   -4.4244 C   0  0  0  0  0  0  0  0  0  0  0  0
    5.1934   -0.0662   -5.1921 C   0  0  0  0  0  0  0  0  0  0  0  0
    4.9388   -1.3577   -4.7322 C   0  0  0  0  0  0  0  0  0  0  0  0
    4.3124   -1.5479   -3.5023 C   0  0  0  0  0  0  0  0  0  0  0  0
   -0.7394    0.0879   -1.2603 C   0  0  0  0  0  0  0  0  0  0  0  0
   -0.3146    0.3877   -2.3552 O   0  0  0  0  0  0  0  0  0  0  0  0
   -2.0573   -0.1982   -1.1111 O   0  0  0  0  0  0  0  0  0  0  0  0
    1.9061   -0.1412    3.3968 H   0  0  0  0  0  0  0  0  0  0  0  0
   -0.5869   -0.2396    3.3519 H   0  0  0  0  0  0  0  0  0  0  0  0
   -1.7974   -0.1008    1.1918 H   0  0  0  0  0  0  0  0  0  0  0  0
    5.2176    0.9062   -0.1348 H   0  0  0  0  0  0  0  0  0  0  0  0
    7.6146    1.2182   -0.7044 H   0  0  0  0  0  0  0  0  0  0  0  0
    9.3665    0.0175    0.5822 H   0  0  0  0  0  0  0  0  0  0  0  0
    8.7301   -1.5001    2.4390 H   0  0  0  0  0  0  0  0  0  0  0  0
    6.3278   -1.8270    3.0131 H   0  0  0  0  0  0  0  0  0  0  0  0
    1.6342    0.4684   -2.0077 H   0  0  0  0  0  0  0  0  0  0  0  0
    3.9050    1.7183   -2.5959 H   0  0  0  0  0  0  0  0  0  0  0  0
    5.0336    2.0445   -4.7855 H   0  0  0  0  0  0  0  0  0  0  0  0
    5.6827    0.0808   -6.1539 H   0  0  0  0  0  0  0  0  0  0  0  0
    5.2318   -2.2180   -5.3313 H   0  0  0  0  0  0  0  0  0  0  0  0
    4.1222   -2.5553   -3.1253 H   0  0  0  0  0  0  0  0  0  0  0  0
   -2.5627   -0.1387   -1.9627 H   0  0  0  0  0  0  0  0  0  0  0  0
  1  2  2  0  0  0  0
  1  6  1  0  0  0  0
  2  3  1  0  0  0  0
  3  4  2  0  0  0  0
  4 28  1  0  0  0  0
  5  4  1  0  0  0  0
  5 29  1  0  0  0  0
  6  5  2  0  0  0  0
  7  3  1  0  0  0  0
  7  8  1  0  0  0  0
  8  9  2  0  0  0  0
 10  8  1  0  0  0  0
 10 15  2  0  0  0  0
 11 10  1  0  0  0  0
 12 11  2  0  0  0  0
 12 13  1  0  0  0  0
 13 14  2  0  0  0  0
 14 15  1  0  0  0  0
 14 34  1  0  0  0  0
 15 35  1  0  0  0  0
 16  2  1  0  0  0  0
 17 16  1  0  0  0  0
 17 18  2  0  0  0  0
 19 17  1  0  0  0  0
 20 19  1  0  0  0  0
 20 37  1  0  0  0  0
 21 20  2  0  0  0  0
 22 23  2  0  0  0  0
 22 21  1  0  0  0  0
 23 24  1  0  0  0  0
 24 41  1  0  0  0  0
 24 19  2  0  0  0  0
 25 27  1  0  0  0  0
 25  1  1  0  0  0  0
 26 25  2  0  0  0  0
 30  6  1  0  0  0  0
 31 11  1  0  0  0  0
 32 12  1  0  0  0  0
 33 13  1  0  0  0  0
 36 16  1  0  0  0  0
 38 21  1  0  0  0  0
 39 22  1  0  0  0  0
 40 23  1  0  0  0  0
 42 27  1  0  0  0  0
M  END
$$$$
