42

C         -0.05420        0.06160        0.03830
C          1.36470        0.02970        0.04740
C          2.02300        0.01040        1.29590
C          1.30800       -0.07710        2.48740
C         -0.08970       -0.10160        2.46260
C         -0.76340       -0.01220        1.25030
O          3.38290        0.18640        1.26960
C          4.22900       -0.71330        1.86790
O          3.86100       -1.52680        2.67250
C          5.63010       -0.51610        1.41320
C          5.96840        0.39510        0.40120
C          7.29400        0.51040       -0.01560
C          8.28660       -0.27710        0.57710
C          7.95220       -1.18380        1.58860
C          6.62710       -1.30500        2.00470
N          2.10070        0.06730       -1.13570
C          3.18430       -0.75860       -1.40300
O          3.53790       -1.65390       -0.65730
C          3.90750       -0.46050       -2.68110
C          3.69630        0.70590       -3.43290
C          4.42790        0.93080       -4.60070
C          5.37850       -0.00300       -5.02240
C          5.60110       -1.16200       -4.27040
C          4.87190       -1.38780       -3.10460
C         -0.78460        0.20260       -1.24150
O         -0.27670        0.45230       -2.32260
O         -2.11410        0.04800       -1.12420
H          1.85600       -0.10910        3.42770
H         -0.64800       -0.16770        3.39810
H         -1.85220        0.00520        1.22010
H          5.18810        0.99910       -0.06020
H          7.55340        1.21300       -0.81070
H          9.32450       -0.18590        0.24730
H          8.72730       -1.80040        2.04960
H          6.33830       -2.01260        2.78360
H          1.56560        0.40520       -1.93720
H          2.97630        1.45540       -3.09920
H          4.25980        1.84210       -5.17920
H          5.95100        0.17520       -5.93590
H          6.34850       -1.88970       -4.59510
H          5.03250       -2.27690       -2.49300
H         -2.48560        0.18200       -2.01230
