42
rmsd202.gzmat
C          0.00000        0.00000        0.00000
C          1.41100        0.00000        0.00000
C          2.06510        0.00000        1.25490
C          1.36470       -0.10180        2.44890
C         -0.03050       -0.15230        2.42020
C         -0.70340       -0.08440        1.20860
O          3.41660        0.22510        1.23840
C          4.23100       -0.71950        1.83740
O          3.78940       -1.54750        2.58590
C          5.63630       -0.47020        1.47990
C          5.98890        0.38470        0.43450
C          7.33380        0.55880        0.11420
C          8.31610       -0.11780        0.83620
C          7.96010       -0.97150        1.88050
C          6.61840       -1.15180        2.20430
N          2.12820        0.06010       -1.20300
C          3.29910       -0.67620       -1.42510
O          3.74980       -1.43420       -0.59830
C          3.93430       -0.43830       -2.74720
C          4.19230        0.85580       -3.19780
C          4.82630        1.03910       -4.42440
C          5.19340       -0.06620       -5.19210
C          4.93880       -1.35770       -4.73220
C          4.31240       -1.54790       -3.50230
C         -0.73940        0.08790       -1.26030
O         -0.31460        0.38770       -2.35520
O         -2.05730       -0.19820       -1.11110
H          1.90610       -0.14120        3.39680
H         -0.58690       -0.23960        3.35190
H         -1.79740       -0.10080        1.19180
H          5.21760        0.90620       -0.13480
H          7.61460        1.21820       -0.70440
H          9.36650        0.01750        0.58220
H          8.73010       -1.50010        2.43900
H          6.32780       -1.82700        3.01310
H          1.63420        0.46840       -2.00770
H          3.90500        1.71830       -2.59590
H          5.03360        2.04450       -4.78550
H          5.68270        0.08080       -6.15390
H          5.23180       -2.21800       -5.33130
H          4.12220       -2.55530       -3.12530
H         -2.56270       -0.13870       -1.96270
