
     RDKit          3D

 42 44  0  0  0  0  0  0  0  0999 V2000
   -0.0882    0.0093    0.1886 C   0  0  0  0  0  0  0  0  0  0  0  0
    1.3228   -0.0746    0.2507 C   0  0  0  0  0  0  0  0  0  0  0  0
    1.9235   -0.2602    1.5138 C   0  0  0  0  0  0  0  0  0  0  0  0
    1.1592   -0.4403    2.6580 C   0  0  0  0  0  0  0  0  0  0  0  0
   -0.2373   -0.4100    2.5787 C   0  0  0  0  0  0  0  0  0  0  0  0
   -0.8528   -0.1664    1.3565 C   0  0  0  0  0  0  0  0  0  0  0  0
    3.2969   -0.2549    1.6079 O   0  0  0  0  0  0  0  0  0  0  0  0
    3.9526    0.9174    1.3154 C   0  0  0  0  0  0  0  0  0  0  0  0
    3.4054    1.9891    1.3369 O   0  0  0  0  0  0  0  0  0  0  0  0
    5.3718    0.6818    0.9505 C   0  0  0  0  0  0  0  0  0  0  0  0
    6.1802    1.8058    0.7179 C   0  0  0  0  0  0  0  0  0  0  0  0
    7.4982    1.6413    0.2989 C   0  0  0  0  0  0  0  0  0  0  0  0
    8.0125    0.3539    0.1055 C   0  0  0  0  0  0  0  0  0  0  0  0
    7.2089   -0.7664    0.3358 C   0  0  0  0  0  0  0  0  0  0  0  0
    5.8893   -0.6089    0.7604 C   0  0  0  0  0  0  0  0  0  0  0  0
    2.1318    0.0720   -0.8763 N   0  0  0  0  0  0  0  0  0  0  0  0
    3.1363   -0.8296   -1.2164 C   0  0  0  0  0  0  0  0  0  0  0  0
    3.2849   -1.8967   -0.6510 O   0  0  0  0  0  0  0  0  0  0  0  0
    4.0514   -0.3613   -2.3024 C   0  0  0  0  0  0  0  0  0  0  0  0
    4.2320    0.9996   -2.5919 C   0  0  0  0  0  0  0  0  0  0  0  0
    5.1536    1.3912   -3.5647 C   0  0  0  0  0  0  0  0  0  0  0  0
    5.8958    0.4282   -4.2535 C   0  0  0  0  0  0  0  0  0  0  0  0
    5.7244   -0.9299   -3.9612 C   0  0  0  0  0  0  0  0  0  0  0  0
    4.8122   -1.3225   -2.9839 C   0  0  0  0  0  0  0  0  0  0  0  0
   -0.7524    0.3168   -1.1005 C   0  0  0  0  0  0  0  0  0  0  0  0
   -0.1880    0.6923   -2.1123 O   0  0  0  0  0  0  0  0  0  0  0  0
   -2.0878    0.1643   -1.0652 O   0  0  0  0  0  0  0  0  0  0  0  0
    1.6755   -0.5809    3.6089 H   0  0  0  0  0  0  0  0  0  0  0  0
   -0.8383   -0.5500    3.4790 H   0  0  0  0  0  0  0  0  0  0  0  0
   -1.9381   -0.1049    1.2841 H   0  0  0  0  0  0  0  0  0  0  0  0
    5.7489    2.7978    0.8612 H   0  0  0  0  0  0  0  0  0  0  0  0
    8.1267    2.5158    0.1154 H   0  0  0  0  0  0  0  0  0  0  0  0
    9.0439    0.2247   -0.2321 H   0  0  0  0  0  0  0  0  0  0  0  0
    7.6087   -1.7697    0.1732 H   0  0  0  0  0  0  0  0  0  0  0  0
    5.2422   -1.4725    0.9063 H   0  0  0  0  0  0  0  0  0  0  0  0
    1.7121    0.6114   -1.6331 H   0  0  0  0  0  0  0  0  0  0  0  0
    3.6820    1.7536   -2.0259 H   0  0  0  0  0  0  0  0  0  0  0  0
    5.3007    2.4526   -3.7771 H   0  0  0  0  0  0  0  0  0  0  0  0
    6.6168    0.7363   -5.0147 H   0  0  0  0  0  0  0  0  0  0  0  0
    6.3100   -1.6821   -4.4950 H   0  0  0  0  0  0  0  0  0  0  0  0
    4.6752   -2.3730   -2.7223 H   0  0  0  0  0  0  0  0  0  0  0  0
   -2.4160    0.4175   -1.9444 H   0  0  0  0  0  0  0  0  0  0  0  0
  1  2  2  0
  1  6  1  0
  1 25  1  0
  2  3  1  0
  2 16  1  0
  3  4  2  0
  3  7  1  0
  4  5  1  0
  4 28  1  0
  5  6  2  0
  5 29  1  0
  6 30  1  0
  7  8  1  0
  8  9  2  0
  8 10  1  0
 10 11  2  0
 10 15  1  0
 11 12  1  0
 11 31  1  0
 12 13  2  0
 12 32  1  0
 13 14  1  0
 13 33  1  0
 14 15  2  0
 14 34  1  0
 15 35  1  0
 16 17  1  0
 16 36  1  0
 17 18  2  0
 17 19  1  0
 19 20  2  0
 19 24  1  0
 20 21  1  0
 20 37  1  0
 21 22  2  0
 21 38  1  0
 22 23  1  0
 22 39  1  0
 23 24  2  0
 23 40  1  0
 24 41  1  0
 25 26  2  0
 25 27  1  0
 27 42  1  0
M  END

