42
rmsd131.gzmat
C          0.00000        0.00000        0.00000
C          1.40880        0.00000        0.00000
C          2.06480        0.00000        1.25420
C          1.36660        0.06760        2.45010
C         -0.03020        0.10620        2.42170
C         -0.70410        0.05840        1.21040
O          3.43610       -0.02190        1.19850
C          4.11910       -0.91880        1.98230
O          3.57950       -1.61100        2.80260
C          5.54460       -0.86960        1.61930
C          6.34410       -1.96160        1.96690
C          7.69140       -1.96200        1.61810
C          8.23330       -0.87580        0.93040
C          7.43360        0.21550        0.59440
C          6.08400        0.22360        0.93990
N          2.13440       -0.06520       -1.19960
C          3.24620        0.74840       -1.45720
O          3.62910        1.58480       -0.67530
C          3.92150        0.46160       -2.75150
C          3.24750        0.59030       -3.96390
C          3.93130        0.35020       -5.15460
C          5.27600       -0.01700       -5.12640
C          5.94400       -0.14560       -3.90850
C          5.26740        0.09700       -2.71560
C         -0.73390       -0.07890       -1.26410
O         -0.30090       -0.34650       -2.36340
O         -2.05770        0.17670       -1.10960
H          1.90330        0.06880        3.40120
H         -0.58550        0.16120        3.35630
H         -1.79830        0.06560        1.19420
H          5.90940       -2.80540        2.50820
H          8.32120       -2.80860        1.88330
H          9.28830       -0.87980        0.65850
H          7.86330        1.06460        0.06530
H          5.45140        1.08220        0.67860
H          1.68090       -0.55800       -1.97730
H          2.19650        0.88150       -3.98710
H          3.41320        0.44910       -6.10700
H          5.80750       -0.20290       -6.05850
H          6.99350       -0.43220       -3.88970
H          5.78420        0.00600       -1.75810
H         -2.56430        0.11710       -1.95970
