42

C         -0.08820        0.00930        0.18860
C          1.32280       -0.07460        0.25070
C          1.92350       -0.26020        1.51380
C          1.15920       -0.44030        2.65800
C         -0.23730       -0.41000        2.57870
C         -0.85280       -0.16640        1.35650
O          3.29690       -0.25490        1.60790
C          3.95260        0.91740        1.31540
O          3.40540        1.98910        1.33690
C          5.37180        0.68180        0.95050
C          6.18020        1.80580        0.71790
C          7.49820        1.64130        0.29890
C          8.01250        0.35390        0.10550
C          7.20890       -0.76640        0.33580
C          5.88930       -0.60890        0.76040
N          2.13180        0.07200       -0.87630
C          3.13630       -0.82960       -1.21640
O          3.28490       -1.89670       -0.65100
C          4.05140       -0.36130       -2.30240
C          4.23200        0.99960       -2.59190
C          5.15360        1.39120       -3.56470
C          5.89580        0.42820       -4.25350
C          5.72440       -0.92990       -3.96120
C          4.81220       -1.32250       -2.98390
C         -0.75240        0.31680       -1.10050
O         -0.18800        0.69230       -2.11230
O         -2.08780        0.16430       -1.06520
H          1.67550       -0.58090        3.60890
H         -0.83830       -0.55000        3.47900
H         -1.93810       -0.10490        1.28410
H          5.74890        2.79780        0.86120
H          8.12670        2.51580        0.11540
H          9.04390        0.22470       -0.23210
H          7.60870       -1.76970        0.17320
H          5.24220       -1.47250        0.90630
H          1.71210        0.61140       -1.63310
H          3.68200        1.75360       -2.02590
H          5.30070        2.45260       -3.77710
H          6.61680        0.73630       -5.01470
H          6.31000       -1.68210       -4.49500
H          4.67520       -2.37300       -2.72230
H         -2.41600        0.41750       -1.94440
