42

C          0.03050        0.07880       -0.03390
C          1.44760        0.02670        0.01330
C          2.08030        0.11200        1.27020
C          1.34580        0.34740        2.43070
C         -0.04610        0.45370        2.36530
C         -0.69910        0.30010        1.14710
O          3.42450       -0.15510        1.29880
C          4.31490        0.75060        1.81800
O          3.98580        1.66290        2.52770
C          5.70770        0.42450        1.41470
C          6.00220       -0.60920        0.51280
C          7.32330       -0.84540        0.13350
C          8.35420       -0.05570        0.65390
C          8.06300        0.97350        1.55550
C          6.74280        1.21440        1.93450
N          2.20240       -0.14590       -1.14900
C          3.29620        0.62590       -1.49920
O          3.76890        1.48540       -0.77800
C          3.89250        0.30000       -2.83700
C          3.16140       -0.26540       -3.89350
C          3.78620       -0.52750       -5.11460
C          5.14210       -0.23420       -5.28700
C          5.87130        0.33790       -4.23930
C          5.24710        0.61440       -3.02360
C         -0.67880       -0.12170       -1.31940
O         -0.17140       -0.51680       -2.35640
O         -1.99180        0.15420       -1.25610
H          1.87390        0.42710        3.37970
H         -0.61970        0.63470        3.27610
H         -1.78600        0.34680        1.09020
H          5.19050       -1.21150        0.10600
H          7.54980       -1.64520       -0.57530
H          9.38850       -0.24180        0.35380
H          8.86790        1.59150        1.95980
H          6.48790        2.01820        2.62700
H          1.69590       -0.61180       -1.89850
H          2.09440       -0.47650       -3.78770
H          3.20930       -0.95770       -5.93650
H          5.62930       -0.44600       -6.24190
H          6.92990        0.57300       -4.37310
H          5.79150        1.07090       -2.19540
H         -2.35630       -0.03550       -2.13710
