42
rmsd190.gzmat
C          0.00000        0.00000        0.00000
C          1.40910        0.00000        0.00000
C          2.06420        0.00000        1.25630
C          1.36790       -0.11570        2.44950
C         -0.02790       -0.17990        2.41860
C         -0.70200       -0.10480        1.20830
O          3.41060        0.24360        1.22570
C          4.25750       -0.70550        1.77310
O          3.86570       -1.51470        2.56670
C          5.62540       -0.48930        1.27370
C          6.58260       -1.46320        1.56890
C          7.87860       -1.32350        1.07840
C          8.21140       -0.21930        0.29470
C          7.25370        0.75170        0.00390
C          5.95670        0.62040        0.49410
N          2.14080        0.06630       -1.19410
C          3.31450       -0.67680       -1.38340
O          3.68250       -1.49340       -0.56910
C          4.08370       -0.36440       -2.61300
C          4.25000        0.95100       -3.04590
C          5.05740        1.21180       -4.15030
C          5.68870        0.16170       -4.81670
C          5.51760       -1.15160       -4.38110
C          4.71650       -1.41850       -3.27320
C         -0.73200        0.11660       -1.26150
O         -0.29800        0.43950       -2.34610
O         -2.05180       -0.16590       -1.12570
H          1.91130       -0.15420        3.39580
H         -0.58330       -0.28120        3.34940
H         -1.79590       -0.13090        1.19160
H          6.30710       -2.32980        2.17530
H          8.62950       -2.07780        1.30470
H          9.22410       -0.11460       -0.09190
H          7.51720        1.60950       -0.61080
H          5.20470        1.37730        0.26360
H          1.66910        0.48910       -2.00130
H          3.76140        1.77170       -2.51940
H          5.19710        2.23530       -4.49210
H          6.31890        0.36870       -5.68020
H          6.01450       -1.96760       -4.90250
H          4.58880       -2.44160       -2.91140
H         -2.55240       -0.08780       -1.97840
