rmsd29.gzmat
 OpenBabel08211713413D

 42 44  0  0  0  0  0  0  0  0999 V2000
    0.0000    0.0000    0.0000 C   0  0  0  0  0  0  0  0  0  0  0  0
    1.4123    0.0000    0.0000 C   0  0  0  0  0  0  0  0  0  0  0  0
    2.0626    0.0000    1.2567 C   0  0  0  0  0  0  0  0  0  0  0  0
    1.3625    0.1176    2.4491 C   0  0  0  0  0  0  0  0  0  0  0  0
   -0.0326    0.1766    2.4186 C   0  0  0  0  0  0  0  0  0  0  0  0
   -0.7042    0.0987    1.2070 C   0  0  0  0  0  0  0  0  0  0  0  0
    3.4092   -0.2462    1.2474 O   0  0  0  0  0  0  0  0  0  0  0  0
    4.2407    0.7138    1.7973 C   0  0  0  0  0  0  0  0  0  0  0  0
    3.8161    1.5774    2.5142 O   0  0  0  0  0  0  0  0  0  0  0  0
    5.6362    0.4356    1.4228 C   0  0  0  0  0  0  0  0  0  0  0  0
    5.9853   -0.6866    0.6693 C   0  0  0  0  0  0  0  0  0  0  0  0
    7.3183   -0.8895    0.3206 C   0  0  0  0  0  0  0  0  0  0  0  0
    8.2920    0.0254    0.7206 C   0  0  0  0  0  0  0  0  0  0  0  0
    7.9391    1.1460    1.4713 C   0  0  0  0  0  0  0  0  0  0  0  0
    6.6084    1.3559    1.8235 C   0  0  0  0  0  0  0  0  0  0  0  0
    2.1241   -0.0576   -1.2046 N   0  0  0  0  0  0  0  0  0  0  0  0
    3.3116    0.6500   -1.4393 C   0  0  0  0  0  0  0  0  0  0  0  0
    3.8130    1.3702   -0.6089 O   0  0  0  0  0  0  0  0  0  0  0  0
    3.8685    0.4511   -2.8027 C   0  0  0  0  0  0  0  0  0  0  0  0
    4.0094   -0.8253   -3.3463 C   0  0  0  0  0  0  0  0  0  0  0  0
    4.5200   -0.9673   -4.6343 C   0  0  0  0  0  0  0  0  0  0  0  0
    4.8892    0.1609   -5.3667 C   0  0  0  0  0  0  0  0  0  0  0  0
    4.7685    1.4326   -4.8081 C   0  0  0  0  0  0  0  0  0  0  0  0
    4.2612    1.5813   -3.5191 C   0  0  0  0  0  0  0  0  0  0  0  0
   -0.7387   -0.1079   -1.2585 C   0  0  0  0  0  0  0  0  0  0  0  0
   -0.3076   -0.3941   -2.3551 O   0  0  0  0  0  0  0  0  0  0  0  0
   -2.0648    0.1358   -1.1091 O   0  0  0  0  0  0  0  0  0  0  0  0
    1.9050    0.1607    3.3958 H   0  0  0  0  0  0  0  0  0  0  0  0
   -0.5891    0.2756    3.3486 H   0  0  0  0  0  0  0  0  0  0  0  0
   -1.7982    0.1174    1.1890 H   0  0  0  0  0  0  0  0  0  0  0  0
    5.2206   -1.3980    0.3517 H   0  0  0  0  0  0  0  0  0  0  0  0
    7.5979   -1.7606   -0.2675 H   0  0  0  0  0  0  0  0  0  0  0  0
    9.3329   -0.1358    0.4445 H   0  0  0  0  0  0  0  0  0  0  0  0
    8.7017    1.8582    1.7800 H   0  0  0  0  0  0  0  0  0  0  0  0
    6.3178    2.2348    2.4048 H   0  0  0  0  0  0  0  0  0  0  0  0
    1.6140   -0.4431   -2.0121 H   0  0  0  0  0  0  0  0  0  0  0  0
    3.7247   -1.7062   -2.7702 H   0  0  0  0  0  0  0  0  0  0  0  0
    4.6249   -1.9586   -5.0709 H   0  0  0  0  0  0  0  0  0  0  0  0
    5.2743    0.0476   -6.3788 H   0  0  0  0  0  0  0  0  0  0  0  0
    5.0692    2.3094   -5.3781 H   0  0  0  0  0  0  0  0  0  0  0  0
    4.1733    2.5717   -3.0680 H   0  0  0  0  0  0  0  0  0  0  0  0
   -2.5657    0.0628   -1.9626 H   0  0  0  0  0  0  0  0  0  0  0  0
  1  2  2  0  0  0  0
  1  6  1  0  0  0  0
  2  3  1  0  0  0  0
  3  4  2  0  0  0  0
  4 28  1  0  0  0  0
  5  4  1  0  0  0  0
  5 29  1  0  0  0  0
  6  5  2  0  0  0  0
  7  3  1  0  0  0  0
  7  8  1  0  0  0  0
  8  9  2  0  0  0  0
 10  8  1  0  0  0  0
 10 15  2  0  0  0  0
 11 10  1  0  0  0  0
 12 11  2  0  0  0  0
 12 13  1  0  0  0  0
 13 14  2  0  0  0  0
 14 34  1  0  0  0  0
 14 15  1  0  0  0  0
 15 35  1  0  0  0  0
 16  2  1  0  0  0  0
 17 16  1  0  0  0  0
 17 18  2  0  0  0  0
 19 17  1  0  0  0  0
 20 19  1  0  0  0  0
 20 37  1  0  0  0  0
 21 20  2  0  0  0  0
 22 23  2  0  0  0  0
 22 21  1  0  0  0  0
 23 24  1  0  0  0  0
 24 41  1  0  0  0  0
 24 19  2  0  0  0  0
 25 27  1  0  0  0  0
 25  1  1  0  0  0  0
 26 25  2  0  0  0  0
 30  6  1  0  0  0  0
 31 11  1  0  0  0  0
 32 12  1  0  0  0  0
 33 13  1  0  0  0  0
 36 16  1  0  0  0  0
 38 21  1  0  0  0  0
 39 22  1  0  0  0  0
 40 23  1  0  0  0  0
 42 27  1  0  0  0  0
M  END
$$$$
