42
rmsd80.gzmat
C          0.00000        0.00000        0.00000
C          1.40770        0.00000        0.00000
C          2.06580        0.00000        1.25300
C          1.36720       -0.06360        2.44940
C         -0.02950       -0.09700        2.42110
C         -0.70430       -0.05170        1.20960
O          3.43690        0.01600        1.19030
C          4.13110        0.87610        2.00620
O          3.59590        1.54290        2.85070
C          5.55690        0.83500        1.64790
C          6.39000        1.81780        2.19090
C          7.73970        1.83570        1.85280
C          8.25040        0.88260        0.97080
C          7.41860       -0.10180        0.43970
C          6.06920       -0.13510        0.78440
N          2.13790        0.06030       -1.19900
C          3.22240       -0.79230       -1.45050
O          3.55550       -1.65360       -0.67140
C          3.91960       -0.53610       -2.73740
C          4.33900        0.74810       -3.08170
C          5.02460        0.94510       -4.27830
C          5.28150       -0.13550       -5.12160
C          4.86640       -1.41880       -4.76720
C          4.18810       -1.62380       -3.56800
C         -0.73230        0.06820       -1.26660
O         -0.31270        0.39940       -2.35310
O         -2.03450       -0.28740       -1.12780
H          1.90410       -0.06710        3.40060
H         -0.58610       -0.14870        3.35570
H         -1.79800       -0.05720        1.19300
H          5.97810        2.56430        2.87430
H          8.39560        2.59330        2.27630
H          9.30490        0.90670        0.69860
H          7.82000       -0.84750       -0.24490
H          5.41870       -0.92070        0.38000
H          1.68330        0.53840       -1.98530
H          4.13960        1.59040       -2.41820
H          5.35980        1.94310       -4.55500
H          5.80920        0.02310       -6.06060
H          5.07320       -2.26030       -5.42530
H          3.87340       -2.62660       -3.27320
H         -2.53950       -0.24370       -1.98040
