rmsd80.gzmat
 OpenBabel08211713413D

 42 44  0  0  0  0  0  0  0  0999 V2000
    0.0000    0.0000    0.0000 C   0  0  0  0  0  0  0  0  0  0  0  0
    1.4077    0.0000    0.0000 C   0  0  0  0  0  0  0  0  0  0  0  0
    2.0658    0.0000    1.2530 C   0  0  0  0  0  0  0  0  0  0  0  0
    1.3672   -0.0636    2.4494 C   0  0  0  0  0  0  0  0  0  0  0  0
   -0.0295   -0.0970    2.4211 C   0  0  0  0  0  0  0  0  0  0  0  0
   -0.7043   -0.0517    1.2096 C   0  0  0  0  0  0  0  0  0  0  0  0
    3.4369    0.0160    1.1903 O   0  0  0  0  0  0  0  0  0  0  0  0
    4.1311    0.8761    2.0062 C   0  0  0  0  0  0  0  0  0  0  0  0
    3.5959    1.5429    2.8507 O   0  0  0  0  0  0  0  0  0  0  0  0
    5.5569    0.8350    1.6479 C   0  0  0  0  0  0  0  0  0  0  0  0
    6.3900    1.8178    2.1909 C   0  0  0  0  0  0  0  0  0  0  0  0
    7.7397    1.8357    1.8528 C   0  0  0  0  0  0  0  0  0  0  0  0
    8.2504    0.8826    0.9708 C   0  0  0  0  0  0  0  0  0  0  0  0
    7.4186   -0.1018    0.4397 C   0  0  0  0  0  0  0  0  0  0  0  0
    6.0692   -0.1351    0.7844 C   0  0  0  0  0  0  0  0  0  0  0  0
    2.1379    0.0603   -1.1990 N   0  0  0  0  0  0  0  0  0  0  0  0
    3.2224   -0.7923   -1.4505 C   0  0  0  0  0  0  0  0  0  0  0  0
    3.5555   -1.6536   -0.6714 O   0  0  0  0  0  0  0  0  0  0  0  0
    3.9196   -0.5361   -2.7374 C   0  0  0  0  0  0  0  0  0  0  0  0
    4.3390    0.7481   -3.0817 C   0  0  0  0  0  0  0  0  0  0  0  0
    5.0246    0.9451   -4.2783 C   0  0  0  0  0  0  0  0  0  0  0  0
    5.2815   -0.1355   -5.1216 C   0  0  0  0  0  0  0  0  0  0  0  0
    4.8664   -1.4188   -4.7672 C   0  0  0  0  0  0  0  0  0  0  0  0
    4.1881   -1.6238   -3.5680 C   0  0  0  0  0  0  0  0  0  0  0  0
   -0.7323    0.0682   -1.2666 C   0  0  0  0  0  0  0  0  0  0  0  0
   -0.3127    0.3994   -2.3531 O   0  0  0  0  0  0  0  0  0  0  0  0
   -2.0345   -0.2874   -1.1278 O   0  0  0  0  0  0  0  0  0  0  0  0
    1.9041   -0.0671    3.4006 H   0  0  0  0  0  0  0  0  0  0  0  0
   -0.5861   -0.1487    3.3557 H   0  0  0  0  0  0  0  0  0  0  0  0
   -1.7980   -0.0572    1.1930 H   0  0  0  0  0  0  0  0  0  0  0  0
    5.9781    2.5643    2.8743 H   0  0  0  0  0  0  0  0  0  0  0  0
    8.3956    2.5933    2.2763 H   0  0  0  0  0  0  0  0  0  0  0  0
    9.3049    0.9067    0.6986 H   0  0  0  0  0  0  0  0  0  0  0  0
    7.8200   -0.8475   -0.2449 H   0  0  0  0  0  0  0  0  0  0  0  0
    5.4187   -0.9207    0.3800 H   0  0  0  0  0  0  0  0  0  0  0  0
    1.6833    0.5384   -1.9853 H   0  0  0  0  0  0  0  0  0  0  0  0
    4.1396    1.5904   -2.4182 H   0  0  0  0  0  0  0  0  0  0  0  0
    5.3598    1.9431   -4.5550 H   0  0  0  0  0  0  0  0  0  0  0  0
    5.8092    0.0231   -6.0606 H   0  0  0  0  0  0  0  0  0  0  0  0
    5.0732   -2.2603   -5.4253 H   0  0  0  0  0  0  0  0  0  0  0  0
    3.8734   -2.6266   -3.2732 H   0  0  0  0  0  0  0  0  0  0  0  0
   -2.5395   -0.2437   -1.9804 H   0  0  0  0  0  0  0  0  0  0  0  0
  1  2  2  0  0  0  0
  1  6  1  0  0  0  0
  2  3  1  0  0  0  0
  3  4  2  0  0  0  0
  4 28  1  0  0  0  0
  5  4  1  0  0  0  0
  5 29  1  0  0  0  0
  6  5  2  0  0  0  0
  7  3  1  0  0  0  0
  7  8  1  0  0  0  0
  8  9  2  0  0  0  0
 10  8  1  0  0  0  0
 10 11  2  0  0  0  0
 11 31  1  0  0  0  0
 12 11  1  0  0  0  0
 12 32  1  0  0  0  0
 13 12  2  0  0  0  0
 14 15  2  0  0  0  0
 14 13  1  0  0  0  0
 15 10  1  0  0  0  0
 16  2  1  0  0  0  0
 17 16  1  0  0  0  0
 17 18  2  0  0  0  0
 19 17  1  0  0  0  0
 20 19  1  0  0  0  0
 20 37  1  0  0  0  0
 21 20  2  0  0  0  0
 22 23  2  0  0  0  0
 22 21  1  0  0  0  0
 23 24  1  0  0  0  0
 24 41  1  0  0  0  0
 24 19  2  0  0  0  0
 25 27  1  0  0  0  0
 25  1  1  0  0  0  0
 26 25  2  0  0  0  0
 30  6  1  0  0  0  0
 33 13  1  0  0  0  0
 34 14  1  0  0  0  0
 35 15  1  0  0  0  0
 36 16  1  0  0  0  0
 38 21  1  0  0  0  0
 39 22  1  0  0  0  0
 40 23  1  0  0  0  0
 42 27  1  0  0  0  0
M  END
$$$$
