rmsd106.gzmat
 OpenBabel08211713413D

 42 44  0  0  0  0  0  0  0  0999 V2000
    0.0000    0.0000    0.0000 C   0  0  0  0  0  0  0  0  0  0  0  0
    1.4100    0.0000    0.0000 C   0  0  0  0  0  0  0  0  0  0  0  0
    2.0623    0.0000    1.2567 C   0  0  0  0  0  0  0  0  0  0  0  0
    1.3658    0.1156    2.4503 C   0  0  0  0  0  0  0  0  0  0  0  0
   -0.0299    0.1700    2.4203 C   0  0  0  0  0  0  0  0  0  0  0  0
   -0.7027    0.0936    1.2093 C   0  0  0  0  0  0  0  0  0  0  0  0
    3.4087   -0.2435    1.2367 O   0  0  0  0  0  0  0  0  0  0  0  0
    4.2497    0.7285    1.7528 C   0  0  0  0  0  0  0  0  0  0  0  0
    3.8585    1.5769    2.5019 O   0  0  0  0  0  0  0  0  0  0  0  0
    5.6124    0.4707    1.2563 C   0  0  0  0  0  0  0  0  0  0  0  0
    6.0549   -0.8291    1.0076 C   0  0  0  0  0  0  0  0  0  0  0  0
    7.3368   -1.0279    0.5013 C   0  0  0  0  0  0  0  0  0  0  0  0
    8.1624    0.0669    0.2436 C   0  0  0  0  0  0  0  0  0  0  0  0
    7.7125    1.3631    0.4899 C   0  0  0  0  0  0  0  0  0  0  0  0
    6.4325    1.5710    0.9994 C   0  0  0  0  0  0  0  0  0  0  0  0
    2.1358   -0.0603   -1.1979 N   0  0  0  0  0  0  0  0  0  0  0  0
    3.3135    0.6667   -1.4046 C   0  0  0  0  0  0  0  0  0  0  0  0
    3.7351    1.4494   -0.5844 O   0  0  0  0  0  0  0  0  0  0  0  0
    4.0151    0.3636   -2.6788 C   0  0  0  0  0  0  0  0  0  0  0  0
    3.4097    0.5751   -3.9149 C   0  0  0  0  0  0  0  0  0  0  0  0
    4.1237    0.2989   -5.0796 C   0  0  0  0  0  0  0  0  0  0  0  0
    5.4283   -0.1866   -5.0014 C   0  0  0  0  0  0  0  0  0  0  0  0
    6.0305   -0.3893   -3.7598 C   0  0  0  0  0  0  0  0  0  0  0  0
    5.3252   -0.1091   -2.5926 C   0  0  0  0  0  0  0  0  0  0  0  0
   -0.7345   -0.0988   -1.2616 C   0  0  0  0  0  0  0  0  0  0  0  0
   -0.3008   -0.3797   -2.3577 O   0  0  0  0  0  0  0  0  0  0  0  0
   -2.0598    0.1520   -1.1118 O   0  0  0  0  0  0  0  0  0  0  0  0
    1.9104    0.1603    3.3956 H   0  0  0  0  0  0  0  0  0  0  0  0
   -0.5860    0.2648    3.3512 H   0  0  0  0  0  0  0  0  0  0  0  0
   -1.7969    0.1101    1.1932 H   0  0  0  0  0  0  0  0  0  0  0  0
    5.3996   -1.6796    1.2032 H   0  0  0  0  0  0  0  0  0  0  0  0
    7.6940   -2.0368    0.3073 H   0  0  0  0  0  0  0  0  0  0  0  0
    9.1637   -0.0925   -0.1532 H   0  0  0  0  0  0  0  0  0  0  0  0
    8.3585    2.2144    0.2825 H   0  0  0  0  0  0  0  0  0  0  0  0
    6.0632    2.5826    1.1856 H   0  0  0  0  0  0  0  0  0  0  0  0
    1.6761   -0.5223   -1.9905 H   0  0  0  0  0  0  0  0  0  0  0  0
    2.3907    0.9585   -3.9757 H   0  0  0  0  0  0  0  0  0  0  0  0
    3.6602    0.4612   -6.0510 H   0  0  0  0  0  0  0  0  0  0  0  0
    5.9806   -0.4067   -5.9136 H   0  0  0  0  0  0  0  0  0  0  0  0
    7.0506   -0.7625   -3.7017 H   0  0  0  0  0  0  0  0  0  0  0  0
    5.7932   -0.2511   -1.6148 H   0  0  0  0  0  0  0  0  0  0  0  0
   -2.5633    0.0835   -1.9631 H   0  0  0  0  0  0  0  0  0  0  0  0
  1  2  2  0  0  0  0
  1  6  1  0  0  0  0
  2  3  1  0  0  0  0
  3  4  2  0  0  0  0
  4 28  1  0  0  0  0
  5  4  1  0  0  0  0
  5 29  1  0  0  0  0
  6  5  2  0  0  0  0
  7  3  1  0  0  0  0
  7  8  1  0  0  0  0
  8  9  2  0  0  0  0
 10  8  1  0  0  0  0
 11 31  1  0  0  0  0
 11 10  1  0  0  0  0
 12 11  2  0  0  0  0
 13 14  2  0  0  0  0
 13 12  1  0  0  0  0
 14 15  1  0  0  0  0
 15 35  1  0  0  0  0
 15 10  2  0  0  0  0
 16  2  1  0  0  0  0
 17 16  1  0  0  0  0
 17 18  2  0  0  0  0
 19 24  1  0  0  0  0
 19 17  1  0  0  0  0
 20 19  2  0  0  0  0
 21 22  2  0  0  0  0
 21 20  1  0  0  0  0
 22 23  1  0  0  0  0
 23 40  1  0  0  0  0
 23 24  2  0  0  0  0
 24 41  1  0  0  0  0
 25 27  1  0  0  0  0
 25  1  1  0  0  0  0
 26 25  2  0  0  0  0
 30  6  1  0  0  0  0
 32 12  1  0  0  0  0
 33 13  1  0  0  0  0
 34 14  1  0  0  0  0
 36 16  1  0  0  0  0
 37 20  1  0  0  0  0
 38 21  1  0  0  0  0
 39 22  1  0  0  0  0
 42 27  1  0  0  0  0
M  END
$$$$
