
     RDKit          3D

 42 44  0  0  0  0  0  0  0  0999 V2000
   -0.0542    0.0616    0.0383 C   0  0  0  0  0  0  0  0  0  0  0  0
    1.3647    0.0297    0.0474 C   0  0  0  0  0  0  0  0  0  0  0  0
    2.0230    0.0104    1.2959 C   0  0  0  0  0  0  0  0  0  0  0  0
    1.3080   -0.0771    2.4874 C   0  0  0  0  0  0  0  0  0  0  0  0
   -0.0897   -0.1016    2.4626 C   0  0  0  0  0  0  0  0  0  0  0  0
   -0.7634   -0.0122    1.2503 C   0  0  0  0  0  0  0  0  0  0  0  0
    3.3829    0.1864    1.2696 O   0  0  0  0  0  0  0  0  0  0  0  0
    4.2290   -0.7133    1.8679 C   0  0  0  0  0  0  0  0  0  0  0  0
    3.8610   -1.5268    2.6725 O   0  0  0  0  0  0  0  0  0  0  0  0
    5.6301   -0.5161    1.4132 C   0  0  0  0  0  0  0  0  0  0  0  0
    5.9684    0.3951    0.4012 C   0  0  0  0  0  0  0  0  0  0  0  0
    7.2940    0.5104   -0.0156 C   0  0  0  0  0  0  0  0  0  0  0  0
    8.2866   -0.2771    0.5771 C   0  0  0  0  0  0  0  0  0  0  0  0
    7.9522   -1.1838    1.5886 C   0  0  0  0  0  0  0  0  0  0  0  0
    6.6271   -1.3050    2.0047 C   0  0  0  0  0  0  0  0  0  0  0  0
    2.1007    0.0673   -1.1357 N   0  0  0  0  0  0  0  0  0  0  0  0
    3.1843   -0.7586   -1.4030 C   0  0  0  0  0  0  0  0  0  0  0  0
    3.5379   -1.6539   -0.6573 O   0  0  0  0  0  0  0  0  0  0  0  0
    3.9075   -0.4605   -2.6811 C   0  0  0  0  0  0  0  0  0  0  0  0
    3.6963    0.7059   -3.4329 C   0  0  0  0  0  0  0  0  0  0  0  0
    4.4279    0.9308   -4.6007 C   0  0  0  0  0  0  0  0  0  0  0  0
    5.3785   -0.0030   -5.0224 C   0  0  0  0  0  0  0  0  0  0  0  0
    5.6011   -1.1620   -4.2704 C   0  0  0  0  0  0  0  0  0  0  0  0
    4.8719   -1.3878   -3.1046 C   0  0  0  0  0  0  0  0  0  0  0  0
   -0.7846    0.2026   -1.2415 C   0  0  0  0  0  0  0  0  0  0  0  0
   -0.2767    0.4523   -2.3226 O   0  0  0  0  0  0  0  0  0  0  0  0
   -2.1141    0.0480   -1.1242 O   0  0  0  0  0  0  0  0  0  0  0  0
    1.8560   -0.1091    3.4277 H   0  0  0  0  0  0  0  0  0  0  0  0
   -0.6480   -0.1677    3.3981 H   0  0  0  0  0  0  0  0  0  0  0  0
   -1.8522    0.0052    1.2201 H   0  0  0  0  0  0  0  0  0  0  0  0
    5.1881    0.9991   -0.0602 H   0  0  0  0  0  0  0  0  0  0  0  0
    7.5534    1.2130   -0.8107 H   0  0  0  0  0  0  0  0  0  0  0  0
    9.3245   -0.1859    0.2473 H   0  0  0  0  0  0  0  0  0  0  0  0
    8.7273   -1.8004    2.0496 H   0  0  0  0  0  0  0  0  0  0  0  0
    6.3383   -2.0126    2.7836 H   0  0  0  0  0  0  0  0  0  0  0  0
    1.5656    0.4052   -1.9372 H   0  0  0  0  0  0  0  0  0  0  0  0
    2.9763    1.4554   -3.0992 H   0  0  0  0  0  0  0  0  0  0  0  0
    4.2598    1.8421   -5.1792 H   0  0  0  0  0  0  0  0  0  0  0  0
    5.9510    0.1752   -5.9359 H   0  0  0  0  0  0  0  0  0  0  0  0
    6.3485   -1.8897   -4.5951 H   0  0  0  0  0  0  0  0  0  0  0  0
    5.0325   -2.2769   -2.4930 H   0  0  0  0  0  0  0  0  0  0  0  0
   -2.4856    0.1820   -2.0123 H   0  0  0  0  0  0  0  0  0  0  0  0
  1  2  2  0
  1  6  1  0
  1 25  1  0
  2  3  1  0
  2 16  1  0
  3  4  2  0
  3  7  1  0
  4  5  1  0
  4 28  1  0
  5  6  2  0
  5 29  1  0
  6 30  1  0
  7  8  1  0
  8  9  2  0
  8 10  1  0
 10 11  2  0
 10 15  1  0
 11 12  1  0
 11 31  1  0
 12 13  2  0
 12 32  1  0
 13 14  1  0
 13 33  1  0
 14 15  2  0
 14 34  1  0
 15 35  1  0
 16 17  1  0
 16 36  1  0
 17 18  2  0
 17 19  1  0
 19 20  2  0
 19 24  1  0
 20 21  1  0
 20 37  1  0
 21 22  2  0
 21 38  1  0
 22 23  1  0
 22 39  1  0
 23 24  2  0
 23 40  1  0
 24 41  1  0
 25 26  2  0
 25 27  1  0
 27 42  1  0
M  END

