rmsd60.gzmat
 OpenBabel08211713413D

 42 44  0  0  0  0  0  0  0  0999 V2000
    0.0000    0.0000    0.0000 C   0  0  0  0  0  0  0  0  0  0  0  0
    1.4120    0.0000    0.0000 C   0  0  0  0  0  0  0  0  0  0  0  0
    2.0623    0.0000    1.2562 C   0  0  0  0  0  0  0  0  0  0  0  0
    1.3610    0.1056    2.4493 C   0  0  0  0  0  0  0  0  0  0  0  0
   -0.0335    0.1662    2.4189 C   0  0  0  0  0  0  0  0  0  0  0  0
   -0.7044    0.0955    1.2065 C   0  0  0  0  0  0  0  0  0  0  0  0
    3.4138   -0.2255    1.2488 O   0  0  0  0  0  0  0  0  0  0  0  0
    4.2211    0.7361    1.8297 C   0  0  0  0  0  0  0  0  0  0  0  0
    3.7688    1.5918    2.5398 O   0  0  0  0  0  0  0  0  0  0  0  0
    5.6306    0.4740    1.5001 C   0  0  0  0  0  0  0  0  0  0  0  0
    6.0150   -0.6181    0.7204 C   0  0  0  0  0  0  0  0  0  0  0  0
    7.3615   -0.8009    0.4139 C   0  0  0  0  0  0  0  0  0  0  0  0
    8.3136    0.1030    0.8844 C   0  0  0  0  0  0  0  0  0  0  0  0
    7.9263    1.1908    1.6662 C   0  0  0  0  0  0  0  0  0  0  0  0
    6.5822    1.3803    1.9756 C   0  0  0  0  0  0  0  0  0  0  0  0
    2.1248   -0.0545   -1.2050 N   0  0  0  0  0  0  0  0  0  0  0  0
    3.3009    0.6694   -1.4412 C   0  0  0  0  0  0  0  0  0  0  0  0
    3.7986    1.3934   -0.6141 O   0  0  0  0  0  0  0  0  0  0  0  0
    3.8569    0.4510   -2.8044 C   0  0  0  0  0  0  0  0  0  0  0  0
    4.5079   -0.7444   -3.1029 C   0  0  0  0  0  0  0  0  0  0  0  0
    5.0447   -0.9299   -4.3751 C   0  0  0  0  0  0  0  0  0  0  0  0
    4.9244    0.0741   -5.3356 C   0  0  0  0  0  0  0  0  0  0  0  0
    4.2735    1.2680   -5.0273 C   0  0  0  0  0  0  0  0  0  0  0  0
    3.7399    1.4630   -3.7547 C   0  0  0  0  0  0  0  0  0  0  0  0
   -0.7379   -0.1016   -1.2597 C   0  0  0  0  0  0  0  0  0  0  0  0
   -0.3098   -0.3988   -2.3542 O   0  0  0  0  0  0  0  0  0  0  0  0
   -2.0600    0.1663   -1.1122 O   0  0  0  0  0  0  0  0  0  0  0  0
    1.9017    0.1399    3.3972 H   0  0  0  0  0  0  0  0  0  0  0  0
   -0.5896    0.2648    3.3491 H   0  0  0  0  0  0  0  0  0  0  0  0
   -1.7981    0.1195    1.1885 H   0  0  0  0  0  0  0  0  0  0  0  0
    5.2674   -1.3216    0.3504 H   0  0  0  0  0  0  0  0  0  0  0  0
    7.6696   -1.6463   -0.1973 H   0  0  0  0  0  0  0  0  0  0  0  0
    9.3647   -0.0405    0.6379 H   0  0  0  0  0  0  0  0  0  0  0  0
    8.6725    1.8944    2.0305 H   0  0  0  0  0  0  0  0  0  0  0  0
    6.2643    2.2338    2.5805 H   0  0  0  0  0  0  0  0  0  0  0  0
    1.6293   -0.4675   -2.0070 H   0  0  0  0  0  0  0  0  0  0  0  0
    4.5963   -1.5260   -2.3489 H   0  0  0  0  0  0  0  0  0  0  0  0
    5.5544   -1.8594   -4.6198 H   0  0  0  0  0  0  0  0  0  0  0  0
    5.3407   -0.0746   -6.3308 H   0  0  0  0  0  0  0  0  0  0  0  0
    4.1815    2.0484   -5.7806 H   0  0  0  0  0  0  0  0  0  0  0  0
    3.2377    2.3983   -3.5048 H   0  0  0  0  0  0  0  0  0  0  0  0
   -2.5638    0.0932   -1.9639 H   0  0  0  0  0  0  0  0  0  0  0  0
  1  2  2  0  0  0  0
  1  6  1  0  0  0  0
  2  3  1  0  0  0  0
  3  4  2  0  0  0  0
  4 28  1  0  0  0  0
  5  4  1  0  0  0  0
  5 29  1  0  0  0  0
  6  5  2  0  0  0  0
  7  3  1  0  0  0  0
  7  8  1  0  0  0  0
  8  9  2  0  0  0  0
 10  8  1  0  0  0  0
 10 15  2  0  0  0  0
 11 10  1  0  0  0  0
 12 11  2  0  0  0  0
 12 13  1  0  0  0  0
 13 14  2  0  0  0  0
 14 15  1  0  0  0  0
 14 34  1  0  0  0  0
 15 35  1  0  0  0  0
 16  2  1  0  0  0  0
 17 16  1  0  0  0  0
 17 18  2  0  0  0  0
 19 17  1  0  0  0  0
 20 19  1  0  0  0  0
 20 37  1  0  0  0  0
 21 20  2  0  0  0  0
 22 23  2  0  0  0  0
 22 21  1  0  0  0  0
 23 24  1  0  0  0  0
 24 41  1  0  0  0  0
 24 19  2  0  0  0  0
 25 27  1  0  0  0  0
 25  1  1  0  0  0  0
 26 25  2  0  0  0  0
 30  6  1  0  0  0  0
 31 11  1  0  0  0  0
 32 12  1  0  0  0  0
 33 13  1  0  0  0  0
 36 16  1  0  0  0  0
 38 21  1  0  0  0  0
 39 22  1  0  0  0  0
 40 23  1  0  0  0  0
 42 27  1  0  0  0  0
M  END
$$$$
