38
rmsd25.gzmat
Cl         0.00000        0.00000        0.00000
C          1.76260        0.00000        0.00000
S          2.43410        0.00000        1.69440
O          3.60610       -0.85240        1.63210
O          2.57090        1.39130        2.06770
C          1.23840       -0.77850        2.70690
C          0.93680       -2.09570        2.60130
C          1.41880       -2.90660        1.45630
C          2.71310       -3.42970        1.47670
C          3.15630       -4.21720        0.41530
C          2.31550       -4.47130       -0.66600
C          1.02940       -3.93270       -0.69300
C          0.58020       -3.14980        0.36630
N          0.06510       -2.71680        3.53150
C         -0.53290       -4.01880        3.17710
C          0.41040       -5.20290        3.45200
O          0.84830       -5.17640        4.79780
C          1.51120       -3.97250        5.13370
C          0.57660       -2.76660        4.92010
C          0.60300        0.12880        3.69960
H          2.09210        0.89730       -0.54950
H          2.09680       -0.88810       -0.56230
H          3.39060       -3.19770        2.30320
H          4.16680       -4.62310        0.43060
H          2.66430       -5.08550       -1.49430
H          0.37590       -4.12350       -1.54150
H         -0.42610       -2.73010        0.34410
H         -0.87760       -4.01900        2.12400
H         -1.45330       -4.12060        3.80170
H         -0.10970       -6.17520        3.38400
H          1.28460       -5.20550        2.77740
H          1.75750       -4.12240        6.19980
H          2.44280       -3.88260        4.54850
H         -0.30860       -2.84630        5.59230
H          1.09890       -1.82270        5.18180
H          0.40110        1.13550        3.28970
H          1.23100        0.28670        4.59020
H         -0.37310       -0.25460        4.03990
