38
rmsd17.gzmat
Cl         0.00000        0.00000        0.00000
C          1.76490        0.00000        0.00000
S          2.44100        0.00000        1.69560
O          3.58600       -0.88480        1.63800
O          2.61750        1.38730        2.06230
C          1.18600       -0.72550        2.67900
C          0.72530       -1.97850        2.46830
C          1.24960       -2.87050        1.40910
C          2.53810       -3.39900        1.48740
C          2.99700       -4.25140        0.48300
C          2.17320       -4.57400       -0.59190
C          0.88300       -4.04760       -0.66760
C          0.41800       -3.20160        0.33350
N         -0.28140       -2.52110        3.32020
C         -0.31490       -4.00030        3.38620
C         -1.26460       -4.37960        4.53680
O         -2.55650       -3.85300        4.29420
C         -2.55360       -2.44070        4.20500
C         -1.63750       -1.97980        3.05620
C          0.66910        0.14630        3.76730
H          2.09390        0.89360       -0.55450
H          2.09530       -0.89230       -0.55800
H          3.19820       -3.12900        2.31790
H          4.00640       -4.65520        0.53800
H          2.53700       -5.23530       -1.37630
H          0.23990       -4.29930       -1.50840
H         -0.59320       -2.80050        0.27760
H          0.71070       -4.37720        3.58860
H         -0.65890       -4.46770        2.43820
H         -1.44380       -5.46830        4.58170
H         -0.89020       -4.01750        5.51030
H         -3.61400       -2.20270        4.00840
H         -2.24340       -2.00710        5.17170
H         -2.04220       -2.33260        2.08290
H         -1.59600       -0.87060        3.01320
H          1.42530        0.84100        4.17260
H          0.30860       -0.44750        4.62520
H         -0.16970        0.77380        3.42600
