
     RDKit          3D

 38 39  0  0  0  0  0  0  0  0999 V2000
    0.2166   -0.0878   -0.3430 Cl  0  0  0  0  0  0  0  0  0  0  0  0
    1.9416    0.1640    0.0129 C   0  0  0  0  0  0  0  0  0  0  0  0
    2.3736   -0.1230    1.7751 S   0  0  0  0  0  0  0  0  0  0  0  0
    2.1343   -1.5502    2.0343 O   0  0  0  0  0  0  0  0  0  0  0  0
    3.7414    0.4092    1.8971 O   0  0  0  0  0  0  0  0  0  0  0  0
    1.1601    0.7606    2.7504 C   0  0  0  0  0  0  0  0  0  0  0  0
    0.7448    2.0165    2.3999 C   0  0  0  0  0  0  0  0  0  0  0  0
    1.5263    2.9159    1.5054 C   0  0  0  0  0  0  0  0  0  0  0  0
    0.9026    3.4760    0.3755 C   0  0  0  0  0  0  0  0  0  0  0  0
    1.6181    4.3013   -0.4900 C   0  0  0  0  0  0  0  0  0  0  0  0
    2.9619    4.5929   -0.2254 C   0  0  0  0  0  0  0  0  0  0  0  0
    3.5828    4.0540    0.9040 C   0  0  0  0  0  0  0  0  0  0  0  0
    2.8708    3.2175    1.7669 C   0  0  0  0  0  0  0  0  0  0  0  0
   -0.4817    2.5184    2.7998 N   0  0  0  0  0  0  0  0  0  0  0  0
   -0.6498    3.8959    3.2497 C   0  0  0  0  0  0  0  0  0  0  0  0
   -1.9070    4.5088    2.6412 C   0  0  0  0  0  0  0  0  0  0  0  0
   -3.0381    3.6975    2.8779 O   0  0  0  0  0  0  0  0  0  0  0  0
   -2.8671    2.4036    2.3413 C   0  0  0  0  0  0  0  0  0  0  0  0
   -1.6673    1.6883    2.9614 C   0  0  0  0  0  0  0  0  0  0  0  0
    0.5900   -0.0869    3.8554 C   0  0  0  0  0  0  0  0  0  0  0  0
    2.2350    1.1800   -0.2679 H   0  0  0  0  0  0  0  0  0  0  0  0
    2.5438   -0.5874   -0.5146 H   0  0  0  0  0  0  0  0  0  0  0  0
   -0.1398    3.2283    0.1698 H   0  0  0  0  0  0  0  0  0  0  0  0
    1.1308    4.7158   -1.3757 H   0  0  0  0  0  0  0  0  0  0  0  0
    3.5237    5.2415   -0.9019 H   0  0  0  0  0  0  0  0  0  0  0  0
    4.6303    4.2807    1.1145 H   0  0  0  0  0  0  0  0  0  0  0  0
    3.3576    2.7774    2.6360 H   0  0  0  0  0  0  0  0  0  0  0  0
    0.2350    4.4843    2.9738 H   0  0  0  0  0  0  0  0  0  0  0  0
   -0.7375    3.9145    4.3541 H   0  0  0  0  0  0  0  0  0  0  0  0
   -2.1126    5.4912    3.0919 H   0  0  0  0  0  0  0  0  0  0  0  0
   -1.7559    4.6485    1.5514 H   0  0  0  0  0  0  0  0  0  0  0  0
   -3.7907    1.8421    2.5475 H   0  0  0  0  0  0  0  0  0  0  0  0
   -2.7284    2.4579    1.2416 H   0  0  0  0  0  0  0  0  0  0  0  0
   -1.8822    1.4812    4.0267 H   0  0  0  0  0  0  0  0  0  0  0  0
   -1.5046    0.7330    2.4474 H   0  0  0  0  0  0  0  0  0  0  0  0
   -0.1417   -0.8316    3.5033 H   0  0  0  0  0  0  0  0  0  0  0  0
    0.1167    0.5544    4.6101 H   0  0  0  0  0  0  0  0  0  0  0  0
    1.3955   -0.6534    4.3443 H   0  0  0  0  0  0  0  0  0  0  0  0
  1  2  1  0
  2  3  1  0
  2 21  1  0
  2 22  1  0
  3  4  2  0
  3  5  2  0
  3  6  1  0
  6  7  2  0
  6 20  1  0
  7  8  1  0
  7 14  1  0
  8  9  2  0
  8 13  1  0
  9 10  1  0
  9 23  1  0
 10 11  2  0
 10 24  1  0
 11 12  1  0
 11 25  1  0
 12 13  2  0
 12 26  1  0
 13 27  1  0
 14 15  1  0
 14 19  1  0
 15 16  1  0
 15 28  1  0
 15 29  1  0
 16 17  1  0
 16 30  1  0
 16 31  1  0
 17 18  1  0
 18 19  1  0
 18 32  1  0
 18 33  1  0
 19 34  1  0
 19 35  1  0
 20 36  1  0
 20 37  1  0
 20 38  1  0
M  END

