38
rmsd41.gzmat
Cl         0.00000        0.00000        0.00000
C          1.76620        0.00000        0.00000
S          2.44260        0.00000        1.69800
O          3.53770       -0.94740        1.66610
O          2.70150        1.38680        2.02060
C          1.14200       -0.61690        2.69090
C          0.66840       -1.88120        2.57150
C          1.28880       -2.85610        1.64160
C          2.52340       -3.42930        1.95130
C          3.09880       -4.34930        1.07540
C          2.44740       -4.68960       -0.10770
C          1.21950       -4.10720       -0.42230
C          0.63940       -3.19190        0.45090
N         -0.37420       -2.34380        3.40900
C         -1.68830       -1.69620        3.22730
C         -2.54480       -2.42460        2.17670
O         -2.70090       -3.78330        2.53560
C         -1.47060       -4.47680        2.61430
C         -0.51300       -3.79720        3.60810
C          0.62120        0.36460        3.67980
H          2.09350        0.89670       -0.55040
H          2.09900       -0.89000       -0.55890
H          3.05340       -3.13550        2.86080
H          4.06780       -4.78510        1.31320
H          2.90010       -5.40430       -0.79260
H          0.71600       -4.36640       -1.35120
H         -0.32050       -2.74180        0.20100
H         -1.56730       -0.62810        2.94840
H         -2.20330       -1.72260        4.21600
H         -3.58620       -2.05540        2.16360
H         -2.11810       -2.34730        1.16280
H         -1.78330       -5.47790        2.96530
H         -1.03350       -4.56790        1.60570
H         -0.90350       -3.92680        4.64670
H          0.48390       -4.28710        3.58380
H          1.41000        1.01600        4.09940
H          0.15550       -0.13220        4.54680
H         -0.12670        1.04230        3.23810
