rmsd41.gzmat
 OpenBabel08211713373D

 38 38  0  0  0  0  0  0  0  0999 V2000
    0.0000    0.0000    0.0000 Cl  0  0  0  0  0  0  0  0  0  0  0  0
    1.7662    0.0000    0.0000 C   0  0  0  0  0  0  0  0  0  0  0  0
    2.4426    0.0000    1.6980 S   0  0  0  0  0  0  0  0  0  0  0  0
    3.5377   -0.9474    1.6661 O   0  0  0  0  0  0  0  0  0  0  0  0
    2.7015    1.3868    2.0206 O   0  0  0  0  0  0  0  0  0  0  0  0
    1.1420   -0.6169    2.6909 C   0  0  0  0  0  0  0  0  0  0  0  0
    0.6684   -1.8812    2.5715 C   0  0  0  0  0  0  0  0  0  0  0  0
    1.2888   -2.8561    1.6416 C   0  0  0  0  0  0  0  0  0  0  0  0
    2.5234   -3.4293    1.9513 C   0  0  0  0  0  0  0  0  0  0  0  0
    3.0988   -4.3493    1.0754 C   0  0  0  0  0  0  0  0  0  0  0  0
    2.4474   -4.6896   -0.1077 C   0  0  0  0  0  0  0  0  0  0  0  0
    1.2195   -4.1072   -0.4223 C   0  0  0  0  0  0  0  0  0  0  0  0
    0.6394   -3.1919    0.4509 C   0  0  0  0  0  0  0  0  0  0  0  0
   -0.3742   -2.3438    3.4090 N   0  0  0  0  0  0  0  0  0  0  0  0
   -1.6883   -1.6962    3.2273 C   0  0  0  0  0  0  0  0  0  0  0  0
   -2.5448   -2.4246    2.1767 C   0  0  0  0  0  0  0  0  0  0  0  0
   -2.7009   -3.7833    2.5356 O   0  0  0  0  0  0  0  0  0  0  0  0
   -1.4706   -4.4768    2.6143 C   0  0  0  0  0  0  0  0  0  0  0  0
   -0.5130   -3.7972    3.6081 C   0  0  0  0  0  0  0  0  0  0  0  0
    0.6212    0.3646    3.6798 C   0  0  0  0  0  0  0  0  0  0  0  0
    2.0935    0.8967   -0.5504 H   0  0  0  0  0  0  0  0  0  0  0  0
    2.0990   -0.8900   -0.5589 H   0  0  0  0  0  0  0  0  0  0  0  0
    3.0534   -3.1355    2.8608 H   0  0  0  0  0  0  0  0  0  0  0  0
    4.0678   -4.7851    1.3132 H   0  0  0  0  0  0  0  0  0  0  0  0
    2.9001   -5.4043   -0.7926 H   0  0  0  0  0  0  0  0  0  0  0  0
    0.7160   -4.3664   -1.3512 H   0  0  0  0  0  0  0  0  0  0  0  0
   -0.3205   -2.7418    0.2010 H   0  0  0  0  0  0  0  0  0  0  0  0
   -1.5673   -0.6281    2.9484 H   0  0  0  0  0  0  0  0  0  0  0  0
   -2.2033   -1.7226    4.2160 H   0  0  0  0  0  0  0  0  0  0  0  0
   -3.5862   -2.0554    2.1636 H   0  0  0  0  0  0  0  0  0  0  0  0
   -2.1181   -2.3473    1.1628 H   0  0  0  0  0  0  0  0  0  0  0  0
   -1.7833   -5.4779    2.9653 H   0  0  0  0  0  0  0  0  0  0  0  0
   -1.0335   -4.5679    1.6057 H   0  0  0  0  0  0  0  0  0  0  0  0
   -0.9035   -3.9268    4.6467 H   0  0  0  0  0  0  0  0  0  0  0  0
    0.4839   -4.2871    3.5838 H   0  0  0  0  0  0  0  0  0  0  0  0
    1.4100    1.0160    4.0994 H   0  0  0  0  0  0  0  0  0  0  0  0
    0.1555   -0.1322    4.5468 H   0  0  0  0  0  0  0  0  0  0  0  0
   -0.1267    1.0423    3.2381 H   0  0  0  0  0  0  0  0  0  0  0  0
  1  2  1  0  0  0  0
  3  5  1  0  0  0  0
  3  6  1  0  0  0  0
  4  3  1  0  0  0  0
  6 20  1  0  0  0  0
  7  6  2  0  0  0  0
  7 14  1  0  0  0  0
  8  9  1  0  0  0  0
  8  7  1  0  0  0  0
  9 23  1  0  0  0  0
 10 24  1  0  0  0  0
 10  9  2  0  0  0  0
 11 10  1  0  0  0  0
 12 11  2  0  0  0  0
 12 13  1  0  0  0  0
 13  8  2  0  0  0  0
 14 19  1  0  0  0  0
 15 14  1  0  0  0  0
 15 29  1  0  0  0  0
 16 17  1  0  0  0  0
 16 15  1  0  0  0  0
 17 18  1  0  0  0  0
 18 32  1  0  0  0  0
 18 19  1  0  0  0  0
 19 34  1  0  0  0  0
 20 36  1  0  0  0  0
 20 37  1  0  0  0  0
 21  2  1  0  0  0  0
 22  2  1  0  0  0  0
 25 11  1  0  0  0  0
 26 12  1  0  0  0  0
 27 13  1  0  0  0  0
 28 15  1  0  0  0  0
 30 16  1  0  0  0  0
 31 16  1  0  0  0  0
 33 18  1  0  0  0  0
 35 19  1  0  0  0  0
 38 20  1  0  0  0  0
M  RAD  3   2   2   4   2   5   2
M  END
$$$$
