rmsd33.gzmat
 OpenBabel08211713373D

 38 38  0  0  0  0  0  0  0  0999 V2000
    0.0000    0.0000    0.0000 Cl  0  0  0  0  0  0  0  0  0  0  0  0
    1.7669    0.0000    0.0000 C   0  0  0  0  0  0  0  0  0  0  0  0
    2.4465    0.0000    1.6974 S   0  0  0  0  0  0  0  0  0  0  0  0
    3.5156   -0.9767    1.6758 O   0  0  0  0  0  0  0  0  0  0  0  0
    2.7438    1.3824    2.0049 O   0  0  0  0  0  0  0  0  0  0  0  0
    1.1295   -0.5714    2.6946 C   0  0  0  0  0  0  0  0  0  0  0  0
    0.6361   -1.8304    2.6003 C   0  0  0  0  0  0  0  0  0  0  0  0
    1.2513   -2.8401    1.7052 C   0  0  0  0  0  0  0  0  0  0  0  0
    2.4729   -3.4243    2.0446 C   0  0  0  0  0  0  0  0  0  0  0  0
    3.0461   -4.3719    1.1969 C   0  0  0  0  0  0  0  0  0  0  0  0
    2.4044   -4.7308    0.0138 C   0  0  0  0  0  0  0  0  0  0  0  0
    1.1892   -4.1382   -0.3298 C   0  0  0  0  0  0  0  0  0  0  0  0
    0.6114   -3.1952    0.5146 C   0  0  0  0  0  0  0  0  0  0  0  0
   -0.4298   -2.2483    3.4319 N   0  0  0  0  0  0  0  0  0  0  0  0
   -1.7270   -1.5845    3.1987 C   0  0  0  0  0  0  0  0  0  0  0  0
   -2.5735   -2.3353    2.1564 C   0  0  0  0  0  0  0  0  0  0  0  0
   -2.7611   -3.6781    2.5575 O   0  0  0  0  0  0  0  0  0  0  0  0
   -1.5452   -4.3894    2.6859 C   0  0  0  0  0  0  0  0  0  0  0  0
   -0.5965   -3.6917    3.6761 C   0  0  0  0  0  0  0  0  0  0  0  0
    0.6134    0.4396    3.6557 C   0  0  0  0  0  0  0  0  0  0  0  0
    2.0934    0.8964   -0.5512 H   0  0  0  0  0  0  0  0  0  0  0  0
    2.0980   -0.8905   -0.5588 H   0  0  0  0  0  0  0  0  0  0  0  0
    2.9944   -3.1190    2.9550 H   0  0  0  0  0  0  0  0  0  0  0  0
    4.0059   -4.8155    1.4562 H   0  0  0  0  0  0  0  0  0  0  0  0
    2.8537   -5.4686   -0.6483 H   0  0  0  0  0  0  0  0  0  0  0  0
    0.6941   -4.4105   -1.2593 H   0  0  0  0  0  0  0  0  0  0  0  0
   -0.3397   -2.7389    0.2424 H   0  0  0  0  0  0  0  0  0  0  0  0
   -1.5787   -0.5296    2.8833 H   0  0  0  0  0  0  0  0  0  0  0  0
   -2.2630   -1.5631    4.1762 H   0  0  0  0  0  0  0  0  0  0  0  0
   -3.6075   -1.9494    2.1079 H   0  0  0  0  0  0  0  0  0  0  0  0
   -2.1233   -2.3003    1.1501 H   0  0  0  0  0  0  0  0  0  0  0  0
   -1.8820   -5.3724    3.0649 H   0  0  0  0  0  0  0  0  0  0  0  0
   -1.0897   -4.5228    1.6901 H   0  0  0  0  0  0  0  0  0  0  0  0
   -1.0098   -3.7785    4.7107 H   0  0  0  0  0  0  0  0  0  0  0  0
    0.3931   -4.1961    3.6878 H   0  0  0  0  0  0  0  0  0  0  0  0
    1.4037    1.1016    4.0546 H   0  0  0  0  0  0  0  0  0  0  0  0
    0.1495   -0.0326    4.5377 H   0  0  0  0  0  0  0  0  0  0  0  0
   -0.1354    1.1053    3.1981 H   0  0  0  0  0  0  0  0  0  0  0  0
  2  1  1  0  0  0  0
  3  5  1  0  0  0  0
  3  6  1  0  0  0  0
  4  3  1  0  0  0  0
  6 20  1  0  0  0  0
  7  6  2  0  0  0  0
  7 14  1  0  0  0  0
  8  9  1  0  0  0  0
  8  7  1  0  0  0  0
  9 23  1  0  0  0  0
 10 24  1  0  0  0  0
 10  9  2  0  0  0  0
 11 10  1  0  0  0  0
 12 11  2  0  0  0  0
 12 13  1  0  0  0  0
 13  8  2  0  0  0  0
 14 19  1  0  0  0  0
 15 14  1  0  0  0  0
 15 29  1  0  0  0  0
 16 17  1  0  0  0  0
 16 15  1  0  0  0  0
 17 18  1  0  0  0  0
 18 32  1  0  0  0  0
 18 19  1  0  0  0  0
 19 35  1  0  0  0  0
 19 34  1  0  0  0  0
 20 36  1  0  0  0  0
 20 37  1  0  0  0  0
 21  2  1  0  0  0  0
 22  2  1  0  0  0  0
 25 11  1  0  0  0  0
 26 12  1  0  0  0  0
 27 13  1  0  0  0  0
 28 15  1  0  0  0  0
 30 16  1  0  0  0  0
 31 16  1  0  0  0  0
 33 18  1  0  0  0  0
 38 20  1  0  0  0  0
M  RAD  3   2   2   4   2   5   2
M  END
$$$$
