rmsd32.gzmat
 OpenBabel08211713373D

 38 38  0  0  0  0  0  0  0  0999 V2000
    0.0000    0.0000    0.0000 Cl  0  0  0  0  0  0  0  0  0  0  0  0
    1.7674    0.0000    0.0000 C   0  0  0  0  0  0  0  0  0  0  0  0
    2.4475    0.0000    1.6978 S   0  0  0  0  0  0  0  0  0  0  0  0
    2.7335   -1.3840    2.0101 O   0  0  0  0  0  0  0  0  0  0  0  0
    3.5245    0.9683    1.6699 O   0  0  0  0  0  0  0  0  0  0  0  0
    1.1360    0.5848    2.6938 C   0  0  0  0  0  0  0  0  0  0  0  0
    0.6387    1.8411    2.5806 C   0  0  0  0  0  0  0  0  0  0  0  0
    1.2565    2.8403    1.6753 C   0  0  0  0  0  0  0  0  0  0  0  0
    0.6166    3.1869    0.4828 C   0  0  0  0  0  0  0  0  0  0  0  0
    1.1952    4.1221   -0.3700 C   0  0  0  0  0  0  0  0  0  0  0  0
    2.4115    4.7150   -0.0318 C   0  0  0  0  0  0  0  0  0  0  0  0
    3.0529    4.3655    1.1541 C   0  0  0  0  0  0  0  0  0  0  0  0
    2.4811    3.4232    2.0082 C   0  0  0  0  0  0  0  0  0  0  0  0
   -0.4303    2.2696    3.4016 N   0  0  0  0  0  0  0  0  0  0  0  0
   -0.6091    3.7169    3.6133 C   0  0  0  0  0  0  0  0  0  0  0  0
   -1.5677    4.3822    2.6101 C   0  0  0  0  0  0  0  0  0  0  0  0
   -2.7779    3.6574    2.5037 O   0  0  0  0  0  0  0  0  0  0  0  0
   -2.5810    2.3065    2.1338 C   0  0  0  0  0  0  0  0  0  0  0  0
   -1.7232    1.5903    3.1907 C   0  0  0  0  0  0  0  0  0  0  0  0
    0.6271   -0.4097    3.6757 C   0  0  0  0  0  0  0  0  0  0  0  0
    2.0988    0.8916   -0.5578 H   0  0  0  0  0  0  0  0  0  0  0  0
    2.0926   -0.8969   -0.5522 H   0  0  0  0  0  0  0  0  0  0  0  0
   -0.3355    2.7303    0.2152 H   0  0  0  0  0  0  0  0  0  0  0  0
    0.6986    4.3889   -1.3004 H   0  0  0  0  0  0  0  0  0  0  0  0
    2.8633    5.4451   -0.7007 H   0  0  0  0  0  0  0  0  0  0  0  0
    4.0125    4.8117    1.4093 H   0  0  0  0  0  0  0  0  0  0  0  0
    3.0068    3.1189    2.9169 H   0  0  0  0  0  0  0  0  0  0  0  0
    0.3761    4.2305    3.6104 H   0  0  0  0  0  0  0  0  0  0  0  0
   -1.0197    3.8260    4.6471 H   0  0  0  0  0  0  0  0  0  0  0  0
   -1.9110    5.3714    2.9666 H   0  0  0  0  0  0  0  0  0  0  0  0
   -1.1173    4.4956    1.6097 H   0  0  0  0  0  0  0  0  0  0  0  0
   -3.6123    1.9104    2.1025 H   0  0  0  0  0  0  0  0  0  0  0  0
   -2.1398    2.2496    1.1244 H   0  0  0  0  0  0  0  0  0  0  0  0
   -2.2565    1.5931    4.1701 H   0  0  0  0  0  0  0  0  0  0  0  0
   -1.5689    0.5284    2.9041 H   0  0  0  0  0  0  0  0  0  0  0  0
    1.4147   -1.0836    4.0603 H   0  0  0  0  0  0  0  0  0  0  0  0
   -0.1452   -1.0652    3.2428 H   0  0  0  0  0  0  0  0  0  0  0  0
    0.1930    0.0798    4.5639 H   0  0  0  0  0  0  0  0  0  0  0  0
  2  1  1  0  0  0  0
  3  4  1  0  0  0  0
  3  6  1  0  0  0  0
  5  3  1  0  0  0  0
  6 20  1  0  0  0  0
  7  6  2  0  0  0  0
  7 14  1  0  0  0  0
  8 13  1  0  0  0  0
  8  7  1  0  0  0  0
  9  8  2  0  0  0  0
 10 11  2  0  0  0  0
 10  9  1  0  0  0  0
 11 12  1  0  0  0  0
 12 26  1  0  0  0  0
 12 13  2  0  0  0  0
 13 27  1  0  0  0  0
 14 15  1  0  0  0  0
 15 29  1  0  0  0  0
 16 30  1  0  0  0  0
 16 15  1  0  0  0  0
 17 16  1  0  0  0  0
 18 17  1  0  0  0  0
 18 19  1  0  0  0  0
 19 14  1  0  0  0  0
 19 34  1  0  0  0  0
 20 36  1  0  0  0  0
 20 38  1  0  0  0  0
 21  2  1  0  0  0  0
 22  2  1  0  0  0  0
 23  9  1  0  0  0  0
 24 10  1  0  0  0  0
 25 11  1  0  0  0  0
 28 15  1  0  0  0  0
 31 16  1  0  0  0  0
 32 18  1  0  0  0  0
 33 18  1  0  0  0  0
 35 19  1  0  0  0  0
 37 20  1  0  0  0  0
M  RAD  3   2   2   4   2   5   2
M  END
$$$$
