38
rmsd28.gzmat
Cl         0.00000        0.00000        0.00000
C          1.76250        0.00000        0.00000
S          2.43440        0.00000        1.69370
O          2.58740       -1.39080        2.06150
O          3.59590        0.86730        1.63470
C          1.23600        0.76130        2.71600
C          0.91620        2.07470        2.61970
C          1.35050        2.89260        1.46180
C          0.47090        3.12930        0.40290
C          0.88230        3.89950       -0.68110
C          2.16930        4.43600       -0.70740
C          3.04800        4.19470        0.34640
C          2.64270        3.42090        1.43250
N          0.07180        2.67800        3.58800
C          0.66700        2.75520        4.94230
C          1.57600        3.98990        5.08860
O          0.85690        5.17000        4.78490
C          0.33670        5.17290        3.46880
C         -0.58230        3.95760        3.25550
C          0.62570       -0.15660        3.71470
H          2.09750        0.88800       -0.56220
H          2.09170       -0.89770       -0.54910
H         -0.53630        2.71150        0.42190
H          0.19920        4.07990       -1.50820
H          2.48940        5.03860       -1.55530
H          4.05970        4.59740        0.31970
H          3.34870        3.20230        2.23900
H          1.23220        1.82840        5.17580
H         -0.17650        2.81310        5.66770
H          1.88370        4.15690        6.13660
H          2.47250        3.92290        4.44740
H         -0.21820        6.12750        3.42950
H          1.16700        5.20050        2.74120
H         -1.47070        4.03840        3.92760
H         -0.98110        3.93480        2.22210
H          0.34940       -1.13220        3.27440
H         -0.30690        0.25250        4.13660
H          1.30160       -0.38300        4.55370
