38
rmsd33.gzmat
Cl         0.00000        0.00000        0.00000
C          1.76690        0.00000        0.00000
S          2.44650        0.00000        1.69740
O          3.51560       -0.97670        1.67580
O          2.74380        1.38240        2.00490
C          1.12950       -0.57140        2.69460
C          0.63610       -1.83040        2.60030
C          1.25130       -2.84010        1.70520
C          2.47290       -3.42430        2.04460
C          3.04610       -4.37190        1.19690
C          2.40440       -4.73080        0.01380
C          1.18920       -4.13820       -0.32980
C          0.61140       -3.19520        0.51460
N         -0.42980       -2.24830        3.43190
C         -1.72700       -1.58450        3.19870
C         -2.57350       -2.33530        2.15640
O         -2.76110       -3.67810        2.55750
C         -1.54520       -4.38940        2.68590
C         -0.59650       -3.69170        3.67610
C          0.61340        0.43960        3.65570
H          2.09340        0.89640       -0.55120
H          2.09800       -0.89050       -0.55880
H          2.99440       -3.11900        2.95500
H          4.00590       -4.81550        1.45620
H          2.85370       -5.46860       -0.64830
H          0.69410       -4.41050       -1.25930
H         -0.33970       -2.73890        0.24240
H         -1.57870       -0.52960        2.88330
H         -2.26300       -1.56310        4.17620
H         -3.60750       -1.94940        2.10790
H         -2.12330       -2.30030        1.15010
H         -1.88200       -5.37240        3.06490
H         -1.08970       -4.52280        1.69010
H         -1.00980       -3.77850        4.71070
H          0.39310       -4.19610        3.68780
H          1.40370        1.10160        4.05460
H          0.14950       -0.03260        4.53770
H         -0.13540        1.10530        3.19810
