rmsd159.gzmat
 OpenBabel08211713423D

 24 24  0  0  0  0  0  0  0  0999 V2000
    0.0000    0.0000    0.0000 C   0  0  0  0  0  0  0  0  0  0  0  0
    1.3919    0.0000    0.0000 C   0  0  0  0  0  0  0  0  0  0  0  0
    2.0802    0.0000    1.2112 C   0  0  0  0  0  0  0  0  0  0  0  0
    1.3794    0.0046    2.4193 C   0  0  0  0  0  0  0  0  0  0  0  0
   -0.0199    0.0161    2.4181 C   0  0  0  0  0  0  0  0  0  0  0  0
   -0.7209    0.0079    1.2104 C   0  0  0  0  0  0  0  0  0  0  0  0
   -2.0663    0.0060    1.3793 O   0  0  0  0  0  0  0  0  0  0  0  0
   -2.8812    0.0484    0.2142 C   0  0  0  0  0  0  0  0  0  0  0  0
    2.0768    0.0132    3.7018 C   0  0  0  0  0  0  0  0  0  0  0  0
    3.2542   -0.5946    3.9127 C   0  0  0  0  0  0  0  0  0  0  0  0
    3.8845   -0.5241    5.2312 C   0  0  0  0  0  0  0  0  0  0  0  0
    3.4956    0.0303    6.2293 O   0  0  0  0  0  0  0  0  0  0  0  0
    5.0671   -1.1993    5.2395 O   0  0  0  0  0  0  0  0  0  0  0  0
   -0.7179   -0.0042   -1.1566 O   0  0  0  0  0  0  0  0  0  0  0  0
    1.9418   -0.0002   -0.9376 H   0  0  0  0  0  0  0  0  0  0  0  0
    3.1698    0.0066    1.2091 H   0  0  0  0  0  0  0  0  0  0  0  0
   -0.5817    0.0249    3.3531 H   0  0  0  0  0  0  0  0  0  0  0  0
   -3.8912    0.0649    0.6456 H   0  0  0  0  0  0  0  0  0  0  0  0
   -2.7331   -0.8483   -0.3970 H   0  0  0  0  0  0  0  0  0  0  0  0
   -2.6909    0.9581   -0.3652 H   0  0  0  0  0  0  0  0  0  0  0  0
    1.5687    0.5520    4.5159 H   0  0  0  0  0  0  0  0  0  0  0  0
    3.7905   -1.1618    3.1516 H   0  0  0  0  0  0  0  0  0  0  0  0
    5.5263   -1.1714    6.1143 H   0  0  0  0  0  0  0  0  0  0  0  0
   -0.1278   -0.0044   -1.9504 H   0  0  0  0  0  0  0  0  0  0  0  0
  1  2  2  0  0  0  0
  1  6  1  0  0  0  0
  2  3  1  0  0  0  0
  3  4  2  0  0  0  0
  4  9  1  0  0  0  0
  5  4  1  0  0  0  0
  5 17  1  0  0  0  0
  6  7  1  0  0  0  0
  6  5  2  0  0  0  0
  8 18  1  0  0  0  0
  8  7  1  0  0  0  0
  9 10  2  0  0  0  0
  9 21  1  0  0  0  0
 10 11  1  0  0  0  0
 11 13  1  0  0  0  0
 11 12  2  0  0  0  0
 13 23  1  0  0  0  0
 14  1  1  0  0  0  0
 15  2  1  0  0  0  0
 16  3  1  0  0  0  0
 19  8  1  0  0  0  0
 20  8  1  0  0  0  0
 22 10  1  0  0  0  0
 24 14  1  0  0  0  0
M  END
$$$$
