24
rmsd170.gzmat
C          0.00000        0.00000        0.00000
C          1.39160        0.00000        0.00000
C          2.08010        0.00000        1.21150
C          1.37660        0.00440        2.41730
C         -0.02210        0.01980        2.41800
C         -0.72250        0.01130        1.20970
O         -2.06840        0.03090        1.37200
C         -2.87980       -0.07910        0.20820
C          2.07760       -0.00880        3.69940
C          3.15060       -0.77670        3.93890
C          3.78660       -0.75330        5.25650
O          3.48600       -0.11060        6.23180
O          4.85060       -1.60230        5.29580
O         -0.71880       -0.01010       -1.15660
H          1.94000       -0.00110       -0.93840
H          3.16950        0.00430        1.21150
H         -0.58270        0.02820        3.35370
H         -3.89080       -0.09150        0.63670
H         -2.67470       -1.01070       -0.32940
H         -2.74490        0.79060       -0.44440
H          1.66020        0.64520        4.47870
H          3.59030       -1.44970        3.20220
H          5.30450       -1.61890        6.17340
H         -0.12920       -0.02340       -1.95050
