rmsd160.gzmat
 OpenBabel08211713423D

 24 24  0  0  0  0  0  0  0  0999 V2000
    0.0000    0.0000    0.0000 C   0  0  0  0  0  0  0  0  0  0  0  0
    1.3920    0.0000    0.0000 C   0  0  0  0  0  0  0  0  0  0  0  0
    2.0813    0.0000    1.2109 C   0  0  0  0  0  0  0  0  0  0  0  0
    1.3824    0.0040    2.4205 C   0  0  0  0  0  0  0  0  0  0  0  0
   -0.0176    0.0142    2.4183 C   0  0  0  0  0  0  0  0  0  0  0  0
   -0.7195    0.0046    1.2115 C   0  0  0  0  0  0  0  0  0  0  0  0
   -2.0649   -0.0049    1.3811 O   0  0  0  0  0  0  0  0  0  0  0  0
   -2.8796    0.0496    0.2166 C   0  0  0  0  0  0  0  0  0  0  0  0
    2.0735    0.0032    3.7062 C   0  0  0  0  0  0  0  0  0  0  0  0
    3.2907   -0.5263    3.9048 C   0  0  0  0  0  0  0  0  0  0  0  0
    3.8844   -0.4927    5.2417 C   0  0  0  0  0  0  0  0  0  0  0  0
    3.4116   -0.0722    6.2690 O   0  0  0  0  0  0  0  0  0  0  0  0
    5.1353   -1.0308    5.2348 O   0  0  0  0  0  0  0  0  0  0  0  0
   -0.7192    0.0006   -1.1558 O   0  0  0  0  0  0  0  0  0  0  0  0
    1.9383   -0.0005   -0.9398 H   0  0  0  0  0  0  0  0  0  0  0  0
    3.1711    0.0058    1.2085 H   0  0  0  0  0  0  0  0  0  0  0  0
   -0.5789    0.0233    3.3538 H   0  0  0  0  0  0  0  0  0  0  0  0
   -3.8899    0.0626    0.6469 H   0  0  0  0  0  0  0  0  0  0  0  0
   -2.7314   -0.8418   -0.4022 H   0  0  0  0  0  0  0  0  0  0  0  0
   -2.6861    0.9633   -0.3546 H   0  0  0  0  0  0  0  0  0  0  0  0
    1.5230    0.4616    4.5428 H   0  0  0  0  0  0  0  0  0  0  0  0
    3.8831   -1.0033    3.1247 H   0  0  0  0  0  0  0  0  0  0  0  0
    5.5643   -1.0279    6.1256 H   0  0  0  0  0  0  0  0  0  0  0  0
   -0.1305   -0.0030   -1.9511 H   0  0  0  0  0  0  0  0  0  0  0  0
  1  2  2  0  0  0  0
  1  6  1  0  0  0  0
  2  3  1  0  0  0  0
  3  4  2  0  0  0  0
  4  9  1  0  0  0  0
  5  4  1  0  0  0  0
  5 17  1  0  0  0  0
  6  7  1  0  0  0  0
  6  5  2  0  0  0  0
  8 18  1  0  0  0  0
  8  7  1  0  0  0  0
  9 10  2  0  0  0  0
  9 21  1  0  0  0  0
 10 11  1  0  0  0  0
 11 12  2  0  0  0  0
 13 11  1  0  0  0  0
 13 23  1  0  0  0  0
 14  1  1  0  0  0  0
 15  2  1  0  0  0  0
 16  3  1  0  0  0  0
 19  8  1  0  0  0  0
 20  8  1  0  0  0  0
 22 10  1  0  0  0  0
 24 14  1  0  0  0  0
M  END
$$$$
