24
rmsd156.gzmat
C          0.00000        0.00000        0.00000
C          1.39200        0.00000        0.00000
C          2.08060        0.00000        1.21120
C          1.38170       -0.00320        2.42080
C         -0.01830       -0.00700        2.41840
C         -0.71980        0.00100        1.21110
O         -2.06520        0.01680        1.37980
C         -2.88050       -0.05110        0.21620
C          2.07610       -0.01410        3.70450
C          3.30410        0.49230        3.89770
C          3.91140        0.43530        5.22740
O          3.45320       -0.01090        6.25030
O          5.15920        0.98060        5.21780
O         -0.71920       -0.00500       -1.15590
H          1.93990        0.00080       -0.93880
H          3.17050       -0.00680        1.20990
H         -0.58000       -0.01030        3.35360
H         -3.89060       -0.06190        0.64720
H         -2.68600       -0.96940       -0.34740
H         -2.73590        0.83400       -0.41310
H          1.52110       -0.46500        4.54180
H          3.89820        0.96480        3.11590
H          5.59990        0.95940        6.10250
H         -0.13070       -0.01800       -1.95100
