
     RDKit          3D

 24 24  0  0  0  0  0  0  0  0999 V2000
   -0.0058    0.3372   -0.1520 C   0  0  0  0  0  0  0  0  0  0  0  0
    1.3954    0.2969   -0.1149 C   0  0  0  0  0  0  0  0  0  0  0  0
    2.0817    0.2921    1.0942 C   0  0  0  0  0  0  0  0  0  0  0  0
    1.3810    0.3235    2.3148 C   0  0  0  0  0  0  0  0  0  0  0  0
   -0.0264    0.3479    2.2654 C   0  0  0  0  0  0  0  0  0  0  0  0
   -0.7286    0.3544    1.0622 C   0  0  0  0  0  0  0  0  0  0  0  0
   -2.0876    0.4352    1.0938 O   0  0  0  0  0  0  0  0  0  0  0  0
   -2.8176   -0.6394    0.5182 C   0  0  0  0  0  0  0  0  0  0  0  0
    2.0408    0.3241    3.6157 C   0  0  0  0  0  0  0  0  0  0  0  0
    3.3649    0.2952    3.8698 C   0  0  0  0  0  0  0  0  0  0  0  0
    3.8516    0.3006    5.2615 C   0  0  0  0  0  0  0  0  0  0  0  0
    3.1660    0.3270    6.2601 O   0  0  0  0  0  0  0  0  0  0  0  0
    5.2040    0.2715    5.3169 O   0  0  0  0  0  0  0  0  0  0  0  0
   -0.7050    0.3745   -1.3133 O   0  0  0  0  0  0  0  0  0  0  0  0
    1.9488    0.2818   -1.0592 H   0  0  0  0  0  0  0  0  0  0  0  0
    3.1722    0.2672    1.0864 H   0  0  0  0  0  0  0  0  0  0  0  0
   -0.6116    0.3705    3.1870 H   0  0  0  0  0  0  0  0  0  0  0  0
   -3.8785   -0.4418    0.7236 H   0  0  0  0  0  0  0  0  0  0  0  0
   -2.5359   -1.6013    0.9835 H   0  0  0  0  0  0  0  0  0  0  0  0
   -2.6632   -0.7041   -0.5697 H   0  0  0  0  0  0  0  0  0  0  0  0
    1.3832    0.3509    4.4914 H   0  0  0  0  0  0  0  0  0  0  0  0
    4.1221    0.2675    3.0840 H   0  0  0  0  0  0  0  0  0  0  0  0
    5.4367    0.2776    6.2605 H   0  0  0  0  0  0  0  0  0  0  0  0
   -0.0906    0.3696   -2.0591 H   0  0  0  0  0  0  0  0  0  0  0  0
  1  2  2  0
  1  6  1  0
  1 14  1  0
  2  3  1  0
  2 15  1  0
  3  4  2  0
  3 16  1  0
  4  5  1  0
  4  9  1  0
  5  6  2  0
  5 17  1  0
  6  7  1  0
  7  8  1  0
  8 18  1  0
  8 19  1  0
  8 20  1  0
  9 10  2  0
  9 21  1  0
 10 11  1  0
 10 22  1  0
 11 12  2  0
 11 13  1  0
 13 23  1  0
 14 24  1  0
M  END

