rmsd163.gzmat
 OpenBabel08211713423D

 24 24  0  0  0  0  0  0  0  0999 V2000
    0.0000    0.0000    0.0000 C   0  0  0  0  0  0  0  0  0  0  0  0
    1.3919    0.0000    0.0000 C   0  0  0  0  0  0  0  0  0  0  0  0
    2.0796    0.0000    1.2116 C   0  0  0  0  0  0  0  0  0  0  0  0
    1.3792    0.0019    2.4204 C   0  0  0  0  0  0  0  0  0  0  0  0
   -0.0208    0.0093    2.4177 C   0  0  0  0  0  0  0  0  0  0  0  0
   -0.7215    0.0058    1.2101 C   0  0  0  0  0  0  0  0  0  0  0  0
   -2.0675   -0.0042    1.3757 O   0  0  0  0  0  0  0  0  0  0  0  0
   -2.8794    0.1252    0.2149 C   0  0  0  0  0  0  0  0  0  0  0  0
    2.0733    0.0139    3.7041 C   0  0  0  0  0  0  0  0  0  0  0  0
    3.3052   -0.4832    3.8949 C   0  0  0  0  0  0  0  0  0  0  0  0
    3.9222   -0.4183    5.2196 C   0  0  0  0  0  0  0  0  0  0  0  0
    3.4599   -0.0057    6.2544 O   0  0  0  0  0  0  0  0  0  0  0  0
    5.1927   -0.9079    5.1837 O   0  0  0  0  0  0  0  0  0  0  0  0
   -0.7179    0.0000   -1.1565 O   0  0  0  0  0  0  0  0  0  0  0  0
    1.9384    0.0000   -0.9397 H   0  0  0  0  0  0  0  0  0  0  0  0
    3.1696    0.0078    1.2116 H   0  0  0  0  0  0  0  0  0  0  0  0
   -0.5818    0.0127    3.3535 H   0  0  0  0  0  0  0  0  0  0  0  0
   -3.8879    0.1668    0.6475 H   0  0  0  0  0  0  0  0  0  0  0  0
   -2.7701   -0.7507   -0.4338 H   0  0  0  0  0  0  0  0  0  0  0  0
   -2.6498    1.0482   -0.3271 H   0  0  0  0  0  0  0  0  0  0  0  0
    1.5153    0.4610    4.5410 H   0  0  0  0  0  0  0  0  0  0  0  0
    3.9016   -0.9527    3.1130 H   0  0  0  0  0  0  0  0  0  0  0  0
    5.6473   -0.8785    6.0603 H   0  0  0  0  0  0  0  0  0  0  0  0
   -0.1281   -0.0117   -1.9510 H   0  0  0  0  0  0  0  0  0  0  0  0
  1  2  2  0  0  0  0
  1  6  1  0  0  0  0
  2  3  1  0  0  0  0
  3 16  1  0  0  0  0
  3  4  2  0  0  0  0
  4  9  1  0  0  0  0
  5  4  1  0  0  0  0
  5 17  1  0  0  0  0
  6  7  1  0  0  0  0
  6  5  2  0  0  0  0
  8 18  1  0  0  0  0
  8  7  1  0  0  0  0
  9 10  2  0  0  0  0
  9 21  1  0  0  0  0
 10 11  1  0  0  0  0
 11 12  2  0  0  0  0
 13 11  1  0  0  0  0
 13 23  1  0  0  0  0
 14  1  1  0  0  0  0
 15  2  1  0  0  0  0
 19  8  1  0  0  0  0
 20  8  1  0  0  0  0
 22 10  1  0  0  0  0
 24 14  1  0  0  0  0
M  END
$$$$
