24
rmsd166.gzmat
C          0.00000        0.00000        0.00000
C          1.39190        0.00000        0.00000
C          2.07890        0.00000        1.21190
C          1.37740       -0.00340        2.41970
C         -0.02240       -0.01520        2.41780
C         -0.72190       -0.00750        1.20970
O         -2.06790        0.00430        1.37400
C         -2.87730       -0.12050        0.21090
C          2.07380       -0.00930        3.70220
C          3.28350        0.53850        3.89640
C          3.90520        0.48280        5.21950
O          3.47180        0.01620        6.24380
O          5.13870        1.05900        5.19700
O         -0.71790        0.00000       -1.15650
H          1.94080        0.00050       -0.93820
H          3.16850       -0.00740        1.21250
H         -0.58430       -0.02550        3.35300
H         -3.88770       -0.15640        0.63930
H         -2.65080       -1.04510       -0.32950
H         -2.75960        0.75470       -0.43740
H          1.53760       -0.49380        4.53190
H          3.85400        1.04680        3.11870
H          5.59310        1.04370        6.07410
H         -0.12780        0.01620       -1.95030
