rmsd156.gzmat
 OpenBabel08211713423D

 24 24  0  0  0  0  0  0  0  0999 V2000
    0.0000    0.0000    0.0000 C   0  0  0  0  0  0  0  0  0  0  0  0
    1.3920    0.0000    0.0000 C   0  0  0  0  0  0  0  0  0  0  0  0
    2.0806    0.0000    1.2112 C   0  0  0  0  0  0  0  0  0  0  0  0
    1.3817   -0.0032    2.4208 C   0  0  0  0  0  0  0  0  0  0  0  0
   -0.0183   -0.0070    2.4184 C   0  0  0  0  0  0  0  0  0  0  0  0
   -0.7198    0.0010    1.2111 C   0  0  0  0  0  0  0  0  0  0  0  0
   -2.0652    0.0168    1.3798 O   0  0  0  0  0  0  0  0  0  0  0  0
   -2.8805   -0.0511    0.2162 C   0  0  0  0  0  0  0  0  0  0  0  0
    2.0761   -0.0141    3.7045 C   0  0  0  0  0  0  0  0  0  0  0  0
    3.3041    0.4923    3.8977 C   0  0  0  0  0  0  0  0  0  0  0  0
    3.9114    0.4353    5.2274 C   0  0  0  0  0  0  0  0  0  0  0  0
    3.4532   -0.0109    6.2503 O   0  0  0  0  0  0  0  0  0  0  0  0
    5.1592    0.9806    5.2178 O   0  0  0  0  0  0  0  0  0  0  0  0
   -0.7192   -0.0050   -1.1559 O   0  0  0  0  0  0  0  0  0  0  0  0
    1.9399    0.0008   -0.9388 H   0  0  0  0  0  0  0  0  0  0  0  0
    3.1705   -0.0068    1.2099 H   0  0  0  0  0  0  0  0  0  0  0  0
   -0.5800   -0.0103    3.3536 H   0  0  0  0  0  0  0  0  0  0  0  0
   -3.8906   -0.0619    0.6472 H   0  0  0  0  0  0  0  0  0  0  0  0
   -2.6860   -0.9694   -0.3474 H   0  0  0  0  0  0  0  0  0  0  0  0
   -2.7359    0.8340   -0.4131 H   0  0  0  0  0  0  0  0  0  0  0  0
    1.5211   -0.4650    4.5418 H   0  0  0  0  0  0  0  0  0  0  0  0
    3.8982    0.9648    3.1159 H   0  0  0  0  0  0  0  0  0  0  0  0
    5.5999    0.9594    6.1025 H   0  0  0  0  0  0  0  0  0  0  0  0
   -0.1307   -0.0180   -1.9510 H   0  0  0  0  0  0  0  0  0  0  0  0
  1  2  2  0  0  0  0
  1  6  1  0  0  0  0
  2  3  1  0  0  0  0
  3  4  2  0  0  0  0
  4  9  1  0  0  0  0
  5  4  1  0  0  0  0
  5 17  1  0  0  0  0
  6  7  1  0  0  0  0
  6  5  2  0  0  0  0
  8 18  1  0  0  0  0
  8  7  1  0  0  0  0
  9 10  2  0  0  0  0
  9 21  1  0  0  0  0
 10 11  1  0  0  0  0
 11 12  2  0  0  0  0
 13 11  1  0  0  0  0
 13 23  1  0  0  0  0
 14  1  1  0  0  0  0
 15  2  1  0  0  0  0
 16  3  1  0  0  0  0
 19  8  1  0  0  0  0
 20  8  1  0  0  0  0
 22 10  1  0  0  0  0
 24 14  1  0  0  0  0
M  END
$$$$
