rmsd167.gzmat
 OpenBabel08211713423D

 24 24  0  0  0  0  0  0  0  0999 V2000
    0.0000    0.0000    0.0000 C   0  0  0  0  0  0  0  0  0  0  0  0
    1.3918    0.0000    0.0000 C   0  0  0  0  0  0  0  0  0  0  0  0
    2.0803    0.0000    1.2114 C   0  0  0  0  0  0  0  0  0  0  0  0
    1.3773   -0.0069    2.4178 C   0  0  0  0  0  0  0  0  0  0  0  0
   -0.0212   -0.0182    2.4180 C   0  0  0  0  0  0  0  0  0  0  0  0
   -0.7217   -0.0077    1.2094 C   0  0  0  0  0  0  0  0  0  0  0  0
   -2.0671   -0.0209    1.3763 O   0  0  0  0  0  0  0  0  0  0  0  0
   -2.8834    0.0717    0.2146 C   0  0  0  0  0  0  0  0  0  0  0  0
    2.0814   -0.0106    3.6984 C   0  0  0  0  0  0  0  0  0  0  0  0
    3.1678    0.7379    3.9399 C   0  0  0  0  0  0  0  0  0  0  0  0
    3.8147    0.6883    5.2517 C   0  0  0  0  0  0  0  0  0  0  0  0
    3.5019    0.0543    6.2286 O   0  0  0  0  0  0  0  0  0  0  0  0
    4.9084    1.4993    5.2812 O   0  0  0  0  0  0  0  0  0  0  0  0
   -0.7203    0.0036   -1.1559 O   0  0  0  0  0  0  0  0  0  0  0  0
    1.9399   -0.0005   -0.9384 H   0  0  0  0  0  0  0  0  0  0  0  0
    3.1699   -0.0040    1.2124 H   0  0  0  0  0  0  0  0  0  0  0  0
   -0.5829   -0.0279    3.3529 H   0  0  0  0  0  0  0  0  0  0  0  0
   -3.8920    0.0819    0.6489 H   0  0  0  0  0  0  0  0  0  0  0  0
   -2.7463   -0.8034   -0.4296 H   0  0  0  0  0  0  0  0  0  0  0  0
   -2.6846    0.9991   -0.3320 H   0  0  0  0  0  0  0  0  0  0  0  0
    1.6573   -0.6644    4.4740 H   0  0  0  0  0  0  0  0  0  0  0  0
    3.6132    1.4126    3.2084 H   0  0  0  0  0  0  0  0  0  0  0  0
    5.3724    1.4980    6.1535 H   0  0  0  0  0  0  0  0  0  0  0  0
   -0.1327    0.0129   -1.9515 H   0  0  0  0  0  0  0  0  0  0  0  0
  1  2  2  0  0  0  0
  1  6  1  0  0  0  0
  2  3  1  0  0  0  0
  3 16  1  0  0  0  0
  3  4  2  0  0  0  0
  4  5  1  0  0  0  0
  4  9  1  0  0  0  0
  5 17  1  0  0  0  0
  6  7  1  0  0  0  0
  6  5  2  0  0  0  0
  8 18  1  0  0  0  0
  8  7  1  0  0  0  0
  9 10  2  0  0  0  0
  9 21  1  0  0  0  0
 10 11  1  0  0  0  0
 11 13  1  0  0  0  0
 11 12  2  0  0  0  0
 13 23  1  0  0  0  0
 14  1  1  0  0  0  0
 15  2  1  0  0  0  0
 19  8  1  0  0  0  0
 20  8  1  0  0  0  0
 22 10  1  0  0  0  0
 24 14  1  0  0  0  0
M  END
$$$$
