24
rmsd169.gzmat
C          0.00000        0.00000        0.00000
C          1.39190        0.00000        0.00000
C          2.08040        0.00000        1.21140
C          1.37710       -0.00800        2.41740
C         -0.02200       -0.01590        2.41720
C         -0.72260       -0.00500        1.20920
O         -2.06810       -0.01460        1.37510
C         -2.88360        0.10570        0.21550
C          2.07530       -0.01910        3.70060
C          3.19440        0.68030        3.93980
C          3.82830        0.61590        5.25700
O          3.48660       -0.00420        6.23340
O          4.94890        1.38880        5.29440
O         -0.71960        0.00420       -1.15600
H          1.94050        0.00060       -0.93810
H          3.17000       -0.00130        1.21200
H         -0.58260       -0.02090        3.35280
H         -3.89110        0.13930        0.65150
H         -2.76750       -0.76960       -0.43290
H         -2.66490        1.02940       -0.32940
H          1.61540       -0.64000        4.48340
H          3.67840        1.32340        3.20450
H          5.40440        1.37250        6.17150
H         -0.13050        0.00680       -1.95060
