24
rmsd159.gzmat
C          0.00000        0.00000        0.00000
C          1.39190        0.00000        0.00000
C          2.08020        0.00000        1.21120
C          1.37940        0.00460        2.41930
C         -0.01990        0.01610        2.41810
C         -0.72090        0.00790        1.21040
O         -2.06630        0.00600        1.37930
C         -2.88120        0.04840        0.21420
C          2.07680        0.01320        3.70180
C          3.25420       -0.59460        3.91270
C          3.88450       -0.52410        5.23120
O          3.49560        0.03030        6.22930
O          5.06710       -1.19930        5.23950
O         -0.71790       -0.00420       -1.15660
H          1.94180       -0.00020       -0.93760
H          3.16980        0.00660        1.20910
H         -0.58170        0.02490        3.35310
H         -3.89120        0.06490        0.64560
H         -2.73310       -0.84830       -0.39700
H         -2.69090        0.95810       -0.36520
H          1.56870        0.55200        4.51590
H          3.79050       -1.16180        3.15160
H          5.52630       -1.17140        6.11430
H         -0.12780       -0.00440       -1.95040
