33
rmsd159.gzmat
O          0.00000        0.00000        0.00000
C          1.21070        0.00000        0.00000
N          1.98560        0.00000        1.16240
C          1.51390        0.11850        2.36890
N          2.39310        0.10480        3.44220
H          3.38910        0.01120        3.31540
C          1.78940        0.26900        4.69870
C          0.44120        0.40470        4.67190
S         -0.15920        0.33060        3.01330
C         -0.46760        0.61020        5.82830
C         -0.23770       -0.47770        6.88840
C         -0.22890        2.00430        6.42930
C          2.03960        0.00440       -1.26860
C          1.97740        1.36640       -1.87370
C          0.75970        1.92490       -2.26910
C          0.74430        3.20410       -2.81740
C          1.95840        3.88970       -2.95490
N          3.13670        3.35970       -2.57780
C          3.14670        2.12480       -2.04550
H          2.43080        0.27420        5.57350
H         -1.54180        0.55060        5.50570
H          0.77060       -0.42980        7.31170
H         -0.37290       -1.47990        6.46470
H         -0.94520       -0.37210        7.71860
H          0.79430        2.11490        6.80340
H         -0.90860        2.19380        7.26700
H         -0.39380        2.79230        5.68450
H          1.63740       -0.76180       -1.96930
H          3.08670       -0.30590       -1.05180
H         -0.16890        1.36400       -2.13050
H         -0.18800        3.66580       -3.12780
H          2.00610        4.89910       -3.37690
H          4.12920        1.74390       -1.74500
