rmsd246.gzmat
 OpenBabel08211713433D

 33 34  0  0  1  0  0  0  0  0999 V2000
    0.0000    0.0000    0.0000 O   0  0  0  0  0  0  0  0  0  0  0  0
    1.2104    0.0000    0.0000 C   0  0  0  0  0  0  0  0  0  0  0  0
    1.9769    0.0000    1.1701 N   0  0  0  0  0  0  0  0  0  0  0  0
    1.4860    0.1162    2.3695 C   0  0  0  0  0  0  0  0  0  0  0  0
    2.3375    0.0510    3.4623 N   0  0  0  0  0  0  0  0  0  0  0  0
    3.3313   -0.0861    3.3596 H   0  0  0  0  0  0  0  0  0  0  0  0
    1.7095    0.2138    4.7082 C   0  0  0  0  0  0  0  0  0  0  0  0
    0.3696    0.4059    4.6532 C   0  0  0  0  0  0  0  0  0  0  0  0
   -0.1922    0.3879    2.9772 S   0  0  0  0  0  0  0  0  0  0  0  0
   -0.5770    0.5844    5.7835 C   0  0  0  0  0  0  0  0  0  0  0  0
   -1.1611   -0.7792    6.1852 C   0  0  0  0  0  0  0  0  0  0  0  0
    0.1176    1.2372    6.9882 C   0  0  0  0  0  0  0  0  0  0  0  0
    2.0513   -0.0419   -1.2573 C   0  0  0  0  0  0  0  0  0  0  0  0
    1.5590    0.9642   -2.2403 C   0  0  1  0  0  0  0  0  0  0  0  0
    0.2483    0.9236   -2.7226 C   0  0  0  0  0  0  0  0  0  0  0  0
   -0.1681    1.8802   -3.6442 C   0  0  0  0  0  0  0  0  0  0  0  0
    0.7473    2.8568   -4.0576 C   0  0  0  0  0  0  0  0  0  0  0  0
    2.0105    2.9071   -3.5958 N   0  0  0  0  0  0  0  0  0  0  0  0
    2.4078    1.9818   -2.7040 C   0  0  0  0  0  0  0  0  0  0  0  0
    2.3315    0.1727    5.5959 H   0  0  0  0  0  0  0  0  0  0  0  0
   -1.4236    1.2569    5.4763 H   0  0  0  0  0  0  0  0  0  0  0  0
   -0.3729   -1.4913    6.4529 H   0  0  0  0  0  0  0  0  0  0  0  0
   -1.7444   -1.2261    5.3716 H   0  0  0  0  0  0  0  0  0  0  0  0
   -1.8263   -0.6828    7.0500 H   0  0  0  0  0  0  0  0  0  0  0  0
    0.8650    0.5750    7.4368 H   0  0  0  0  0  0  0  0  0  0  0  0
   -0.6079    1.4827    7.7724 H   0  0  0  0  0  0  0  0  0  0  0  0
    0.6187    2.1693    6.7030 H   0  0  0  0  0  0  0  0  0  0  0  0
    1.9960   -1.0711   -1.6830 H   0  0  0  0  0  0  0  0  0  0  0  0
    3.1275    0.1095   -1.0110 H   0  0  0  0  0  0  0  0  0  0  0  0
   -0.4443    0.1583   -2.3618 H   0  0  0  0  0  0  0  0  0  0  0  0
   -1.1821    1.8742   -4.0320 H   0  0  0  0  0  0  0  0  0  0  0  0
    0.4750    3.6328   -4.7809 H   0  0  0  0  0  0  0  0  0  0  0  0
    3.4427    2.0725   -2.3554 H   0  0  0  0  0  0  0  0  0  0  0  0
  1  2  2  0  0  0  0
  2  3  1  0  0  0  0
  3  4  2  0  0  0  0
  4  9  1  0  0  0  0
  4  5  1  0  0  0  0
  5  7  1  0  0  0  0
  6  5  1  0  0  0  0
  7 20  1  0  0  0  0
  8  7  2  0  0  0  0
  8 10  1  0  0  0  0
  9  8  1  0  0  0  0
 10 11  1  0  0  0  0
 10 12  1  0  0  0  0
 11 22  1  0  0  0  0
 11 24  1  0  0  0  0
 12 25  1  0  0  0  0
 12 26  1  0  0  0  0
 13 29  1  0  0  0  0
 13  2  1  0  0  0  0
 14 13  1  1  0  0  0
 15 30  1  0  0  0  0
 15 14  1  0  0  0  0
 16 15  2  0  0  0  0
 17 16  1  0  0  0  0
 17 18  2  0  0  0  0
 18 19  2  0  0  0  0
 19 33  1  0  0  0  0
 19 14  1  0  0  0  0
 21 10  1  0  0  0  0
 23 11  1  0  0  0  0
 27 12  1  0  0  0  0
 28 13  1  0  0  0  0
 31 16  1  0  0  0  0
 32 17  1  0  0  0  0
M  RAD  1  14   2
M  END
$$$$
