33

O         -0.06600        1.07290        0.24580
C          1.10700        0.80850       -0.01400
N          2.03580        0.41080        0.91550
C          1.62670        0.28710        2.14720
N          2.45290       -0.10990        3.14990
H          3.42090       -0.32040        2.93210
C          1.89050       -0.20960        4.41440
C          0.57770        0.11690        4.44560
S          0.01200        0.57120        2.82200
C         -0.36990        0.11930        5.61640
C         -1.52500       -0.87380        5.40140
C          0.35550       -0.15160        6.93720
C          1.61410        0.83450       -1.44770
C          1.31650       -0.48580       -2.12390
C          0.00090       -0.94570       -2.27420
C         -0.21980       -2.17730       -2.88810
C          0.88530       -2.91360       -3.32850
N          2.14360       -2.49390       -3.18620
C          2.34430       -1.31330       -2.59750
H          2.51690       -0.52390        5.24600
H         -0.80970        1.13250        5.67330
H         -1.14140       -1.90520        5.34470
H         -2.06840       -0.66600        4.46730
H         -2.24380       -0.81720        6.23370
H          0.79990       -1.16050        6.94440
H         -0.35050       -0.09520        7.77940
H          1.15810        0.57980        7.11770
H          2.69530        1.02590       -1.45470
H          1.09480        1.65130       -1.97190
H         -0.82770       -0.34190       -1.89610
H         -1.23180       -2.56590       -3.02330
H          0.74330       -3.88590       -3.81530
H          3.38740       -0.99050       -2.48870
