33

O         -0.08120       -0.24570        0.32850
C          1.12800       -0.17370        0.11410
N          2.07330        0.07000        1.07920
C          1.64620        0.25840        2.29640
N          2.49010        0.51880        3.32910
H          3.48620        0.57280        3.14520
C          1.90460        0.71050        4.57210
C          0.55710        0.59980        4.55490
S         -0.01770        0.23860        2.91100
C         -0.39850        0.74400        5.70780
C         -1.36240        1.92280        5.49840
C         -1.16250       -0.56260        5.97550
C          1.67810       -0.28090       -1.30000
C          1.63520        1.07380       -1.97230
C          0.42280        1.74860       -2.17100
C          0.43770        3.00320       -2.77780
C          1.66840        3.54620       -3.16270
N          2.83140        2.92060       -2.97380
C          2.80630        1.71970       -2.39240
H          2.53650        0.92570        5.43250
H          0.22390        0.96410        6.59310
H         -2.00240        1.75520        4.61700
H         -0.81320        2.86320        5.34070
H         -2.01980        2.04640        6.37330
H         -1.79390       -0.83230        5.11350
H         -1.81880       -0.45530        6.85340
H         -0.47030       -1.39810        6.15930
H          1.04830       -0.99550       -1.85140
H          2.71070       -0.65290       -1.26850
H         -0.51080        1.29050       -1.83510
H         -0.48820        3.55670       -2.94990
H          1.71210        4.53120       -3.64250
H          3.77500        1.22590       -2.24460
