rmsd185.gzmat
 OpenBabel08211713433D

 33 34  0  0  1  0  0  0  0  0999 V2000
    0.0000    0.0000    0.0000 O   0  0  0  0  0  0  0  0  0  0  0  0
    1.2102    0.0000    0.0000 C   0  0  0  0  0  0  0  0  0  0  0  0
    1.9749    0.0000    1.1731 N   0  0  0  0  0  0  0  0  0  0  0  0
    1.4752   -0.0371    2.3738 C   0  0  0  0  0  0  0  0  0  0  0  0
    2.3300   -0.0149    3.4664 N   0  0  0  0  0  0  0  0  0  0  0  0
    3.3317    0.0315    3.3615 H   0  0  0  0  0  0  0  0  0  0  0  0
    1.6894   -0.0600    4.7149 C   0  0  0  0  0  0  0  0  0  0  0  0
    0.3367   -0.1196    4.6615 C   0  0  0  0  0  0  0  0  0  0  0  0
   -0.2210   -0.1225    2.9866 S   0  0  0  0  0  0  0  0  0  0  0  0
   -0.6081   -0.1891    5.8054 C   0  0  0  0  0  0  0  0  0  0  0  0
   -0.4378   -1.5311    6.5345 C   0  0  0  0  0  0  0  0  0  0  0  0
   -0.3624    0.9825    6.7687 C   0  0  0  0  0  0  0  0  0  0  0  0
    2.0637    0.0431   -1.2476 C   0  0  0  0  0  0  0  0  0  0  0  0
    1.4371   -0.7221   -2.3619 C   0  0  1  0  0  0  0  0  0  0  0  0
    0.1431   -0.4379   -2.8056 C   0  0  0  0  0  0  0  0  0  0  0  0
   -0.3920   -1.1720   -3.8607 C   0  0  0  0  0  0  0  0  0  0  0  0
    0.3905   -2.1766   -4.4443 C   0  0  0  0  0  0  0  0  0  0  0  0
    1.6370   -2.4604   -4.0227 N   0  0  0  0  0  0  0  0  0  0  0  0
    2.1486   -1.7501   -3.0019 C   0  0  0  0  0  0  0  0  0  0  0  0
    2.3099   -0.0448    5.6044 H   0  0  0  0  0  0  0  0  0  0  0  0
   -1.6709   -0.1204    5.4489 H   0  0  0  0  0  0  0  0  0  0  0  0
    0.5669   -1.6383    6.9561 H   0  0  0  0  0  0  0  0  0  0  0  0
   -0.6035   -2.3769    5.8559 H   0  0  0  0  0  0  0  0  0  0  0  0
   -1.1520   -1.6245    7.3597 H   0  0  0  0  0  0  0  0  0  0  0  0
    0.6383    0.9458    7.2104 H   0  0  0  0  0  0  0  0  0  0  0  0
   -1.0836    0.9712    7.5935 H   0  0  0  0  0  0  0  0  0  0  0  0
   -0.4632    1.9466    6.2556 H   0  0  0  0  0  0  0  0  0  0  0  0
    3.0923   -0.3233   -1.0195 H   0  0  0  0  0  0  0  0  0  0  0  0
    2.2035    1.1123   -1.5360 H   0  0  0  0  0  0  0  0  0  0  0  0
   -0.4477    0.3391   -2.3139 H   0  0  0  0  0  0  0  0  0  0  0  0
   -1.3972   -0.9763   -4.2208 H   0  0  0  0  0  0  0  0  0  0  0  0
    0.0214   -2.7852   -5.2764 H   0  0  0  0  0  0  0  0  0  0  0  0
    3.1640   -2.0253   -2.6957 H   0  0  0  0  0  0  0  0  0  0  0  0
  1  2  2  0  0  0  0
  2  3  1  0  0  0  0
  3  4  2  0  0  0  0
  4  9  1  0  0  0  0
  4  5  1  0  0  0  0
  5  7  1  0  0  0  0
  6  5  1  0  0  0  0
  7 20  1  0  0  0  0
  8  7  2  0  0  0  0
  8 10  1  0  0  0  0
  9  8  1  0  0  0  0
 10 11  1  0  0  0  0
 10 12  1  0  0  0  0
 11 22  1  0  0  0  0
 11 24  1  0  0  0  0
 12 25  1  0  0  0  0
 12 26  1  0  0  0  0
 13 28  1  0  0  0  0
 13  2  1  0  0  0  0
 14 13  1  6  0  0  0
 15 14  1  0  0  0  0
 15 30  1  0  0  0  0
 16 15  2  0  0  0  0
 17 18  2  0  0  0  0
 17 16  1  0  0  0  0
 18 19  2  0  0  0  0
 19 33  1  0  0  0  0
 19 14  1  0  0  0  0
 21 10  1  0  0  0  0
 23 11  1  0  0  0  0
 27 12  1  0  0  0  0
 29 13  1  0  0  0  0
 31 16  1  0  0  0  0
 32 17  1  0  0  0  0
M  RAD  1  14   2
M  END
$$$$
