rmsd88.gzmat
 OpenBabel08211713433D

 33 34  0  0  1  0  0  0  0  0999 V2000
    0.0000    0.0000    0.0000 O   0  0  0  0  0  0  0  0  0  0  0  0
    1.2100    0.0000    0.0000 C   0  0  0  0  0  0  0  0  0  0  0  0
    1.9863    0.0000    1.1618 N   0  0  0  0  0  0  0  0  0  0  0  0
    1.5265    0.1408    2.3702 C   0  0  0  0  0  0  0  0  0  0  0  0
    2.4121    0.0736    3.4369 N   0  0  0  0  0  0  0  0  0  0  0  0
    3.3995   -0.0811    3.3035 H   0  0  0  0  0  0  0  0  0  0  0  0
    1.8257    0.2555    4.6986 C   0  0  0  0  0  0  0  0  0  0  0  0
    0.4875    0.4717    4.6825 C   0  0  0  0  0  0  0  0  0  0  0  0
   -0.1256    0.4533    3.0262 S   0  0  0  0  0  0  0  0  0  0  0  0
   -0.3759    0.6893    5.8708 C   0  0  0  0  0  0  0  0  0  0  0  0
   -0.9796    2.1002    5.8596 C   0  0  0  0  0  0  0  0  0  0  0  0
   -1.4794   -0.3741    5.9538 C   0  0  0  0  0  0  0  0  0  0  0  0
    2.0441   -0.0212   -1.2653 C   0  0  0  0  0  0  0  0  0  0  0  0
    1.7542    1.2126   -2.0497 C   0  0  1  0  0  0  0  0  0  0  0  0
    0.5065    1.4071   -2.6468 C   0  0  0  0  0  0  0  0  0  0  0  0
    0.2700    2.5785   -3.3606 C   0  0  0  0  0  0  0  0  0  0  0  0
    1.2971    3.5269   -3.4528 C   0  0  0  0  0  0  0  0  0  0  0  0
    2.5013    3.3493   -2.8783 N   0  0  0  0  0  0  0  0  0  0  0  0
    2.7251    2.2168   -2.1882 C   0  0  0  0  0  0  0  0  0  0  0  0
    2.4722    0.2073    5.5682 H   0  0  0  0  0  0  0  0  0  0  0  0
    0.2588    0.5971    6.7955 H   0  0  0  0  0  0  0  0  0  0  0  0
   -1.6943    2.2416    5.0402 H   0  0  0  0  0  0  0  0  0  0  0  0
   -0.2025    2.8662    5.7521 H   0  0  0  0  0  0  0  0  0  0  0  0
   -1.5166    2.3015    6.7935 H   0  0  0  0  0  0  0  0  0  0  0  0
   -2.2558   -0.2254    5.1943 H   0  0  0  0  0  0  0  0  0  0  0  0
   -1.9763   -0.3477    6.9299 H   0  0  0  0  0  0  0  0  0  0  0  0
   -1.0738   -1.3837    5.8194 H   0  0  0  0  0  0  0  0  0  0  0  0
    1.7915   -0.9366   -1.8461 H   0  0  0  0  0  0  0  0  0  0  0  0
    3.1268   -0.1148   -1.0223 H   0  0  0  0  0  0  0  0  0  0  0  0
   -0.2760    0.6530   -2.5328 H   0  0  0  0  0  0  0  0  0  0  0  0
   -0.6913    2.7591   -3.8313 H   0  0  0  0  0  0  0  0  0  0  0  0
    1.1672    4.4673   -3.9992 H   0  0  0  0  0  0  0  0  0  0  0  0
    3.7168    2.1258   -1.7306 H   0  0  0  0  0  0  0  0  0  0  0  0
  1  2  2  0  0  0  0
  2  3  1  0  0  0  0
  3  4  2  0  0  0  0
  4  9  1  0  0  0  0
  4  5  1  0  0  0  0
  5  7  1  0  0  0  0
  6  5  1  0  0  0  0
  7 20  1  0  0  0  0
  8  7  2  0  0  0  0
  8 10  1  0  0  0  0
  9  8  1  0  0  0  0
 10 12  1  0  0  0  0
 10 21  1  0  0  0  0
 11 10  1  0  0  0  0
 11 24  1  0  0  0  0
 12 26  1  0  0  0  0
 13 29  1  0  0  0  0
 13  2  1  0  0  0  0
 14 13  1  1  0  0  0
 15 30  1  0  0  0  0
 15 14  1  0  0  0  0
 16 15  2  0  0  0  0
 17 16  1  0  0  0  0
 17 18  2  0  0  0  0
 18 19  2  0  0  0  0
 19 14  1  0  0  0  0
 19 33  1  0  0  0  0
 22 11  1  0  0  0  0
 23 11  1  0  0  0  0
 25 12  1  0  0  0  0
 27 12  1  0  0  0  0
 28 13  1  0  0  0  0
 31 16  1  0  0  0  0
 32 17  1  0  0  0  0
M  RAD  1  14   2
M  END
$$$$
