
     RDKit          3D

 33 34  0  0  0  0  0  0  0  0999 V2000
    0.0555   -0.7637    0.3051 O   0  0  0  0  0  0  0  0  0  0  0  0
    1.2243   -0.4506    0.0828 C   0  0  0  0  0  0  0  0  0  0  0  0
    2.0816    0.0621    1.0245 N   0  0  0  0  0  0  0  0  0  0  0  0
    1.6052    0.2425    2.2246 C   0  0  0  0  0  0  0  0  0  0  0  0
    2.3566    0.7538    3.2345 N   0  0  0  0  0  0  0  0  0  0  0  0
    3.3200    1.0093    3.0466 H   0  0  0  0  0  0  0  0  0  0  0  0
    1.7256    0.9079    4.4605 C   0  0  0  0  0  0  0  0  0  0  0  0
    0.4327    0.5088    4.4531 C   0  0  0  0  0  0  0  0  0  0  0  0
   -0.0236   -0.0886    2.8415 S   0  0  0  0  0  0  0  0  0  0  0  0
   -0.5644    0.5081    5.5821 C   0  0  0  0  0  0  0  0  0  0  0  0
   -1.0459   -0.9177    5.9012 C   0  0  0  0  0  0  0  0  0  0  0  0
   -0.0113    1.1992    6.8314 C   0  0  0  0  0  0  0  0  0  0  0  0
    1.8044   -0.5445   -1.3201 C   0  0  0  0  0  0  0  0  0  0  0  0
    1.4746    0.7097   -2.0994 C   0  0  0  0  0  0  0  0  0  0  0  0
    0.1466    1.0877   -2.3410 C   0  0  0  0  0  0  0  0  0  0  0  0
   -0.1052    2.2618   -3.0484 C   0  0  0  0  0  0  0  0  0  0  0  0
    0.9819    3.0248   -3.4882 C   0  0  0  0  0  0  0  0  0  0  0  0
    2.2511    2.6831   -3.2601 N   0  0  0  0  0  0  0  0  0  0  0  0
    2.4816    1.5570   -2.5823 C   0  0  0  0  0  0  0  0  0  0  0  0
    2.2887    1.3205    5.2944 H   0  0  0  0  0  0  0  0  0  0  0  0
   -1.4425    1.0853    5.2369 H   0  0  0  0  0  0  0  0  0  0  0  0
   -0.2076   -1.5368    6.2592 H   0  0  0  0  0  0  0  0  0  0  0  0
   -1.4711   -1.4094    5.0132 H   0  0  0  0  0  0  0  0  0  0  0  0
   -1.8204   -0.8983    6.6837 H   0  0  0  0  0  0  0  0  0  0  0  0
    0.8591    0.6541    7.2320 H   0  0  0  0  0  0  0  0  0  0  0  0
   -0.7760    1.2283    7.6221 H   0  0  0  0  0  0  0  0  0  0  0  0
    0.2977    2.2344    6.6202 H   0  0  0  0  0  0  0  0  0  0  0  0
    1.3549   -1.4215   -1.8104 H   0  0  0  0  0  0  0  0  0  0  0  0
    2.8929   -0.6767   -1.2627 H   0  0  0  0  0  0  0  0  0  0  0  0
   -0.6684    0.4674   -1.9599 H   0  0  0  0  0  0  0  0  0  0  0  0
   -1.1275    2.5860   -3.2561 H   0  0  0  0  0  0  0  0  0  0  0  0
    0.8154    3.9533   -4.0472 H   0  0  0  0  0  0  0  0  0  0  0  0
    3.5330    1.2983   -2.4040 H   0  0  0  0  0  0  0  0  0  0  0  0
  1  2  2  0
  2  3  1  0
  2 13  1  0
  3  4  2  0
  4  5  1  0
  4  9  1  0
  5  6  1  0
  5  7  1  0
  7  8  2  0
  7 20  1  0
  8  9  1  0
  8 10  1  0
 10 11  1  0
 10 12  1  0
 10 21  1  0
 11 22  1  0
 11 23  1  0
 11 24  1  0
 12 25  1  0
 12 26  1  0
 12 27  1  0
 13 14  1  0
 13 28  1  0
 13 29  1  0
 14 15  2  0
 14 19  1  0
 15 16  1  0
 15 30  1  0
 16 17  2  0
 16 31  1  0
 17 18  1  0
 17 32  1  0
 18 19  2  0
 19 33  1  0
M  END

