rmsd19.gzmat
 OpenBabel08211713433D

 33 34  0  0  1  0  0  0  0  0999 V2000
    0.0000    0.0000    0.0000 O   0  0  0  0  0  0  0  0  0  0  0  0
    1.2111    0.0000    0.0000 C   0  0  0  0  0  0  0  0  0  0  0  0
    1.9797    0.0000    1.1675 N   0  0  0  0  0  0  0  0  0  0  0  0
    1.4799    0.0023    2.3700 C   0  0  0  0  0  0  0  0  0  0  0  0
    2.3350    0.0128    3.4617 N   0  0  0  0  0  0  0  0  0  0  0  0
    3.3378   -0.0018    3.3576 H   0  0  0  0  0  0  0  0  0  0  0  0
    1.6916    0.0542    4.7091 C   0  0  0  0  0  0  0  0  0  0  0  0
    0.3371    0.0678    4.6547 C   0  0  0  0  0  0  0  0  0  0  0  0
   -0.2183    0.0133    2.9794 S   0  0  0  0  0  0  0  0  0  0  0  0
   -0.5864    0.1112    5.8166 C   0  0  0  0  0  0  0  0  0  0  0  0
   -1.6695    1.1839    5.6434 C   0  0  0  0  0  0  0  0  0  0  0  0
   -1.2243   -1.2671    6.0415 C   0  0  0  0  0  0  0  0  0  0  0  0
    2.0417    0.0146   -1.2658 C   0  0  0  0  0  0  0  0  0  0  0  0
    1.7530   -1.2094   -2.0666 C   0  0  2  0  0  0  0  0  0  0  0  0
    0.4619   -1.4866   -2.5231 C   0  0  0  0  0  0  0  0  0  0  0  0
    0.2369   -2.6376   -3.2724 C   0  0  0  0  0  0  0  0  0  0  0  0
    1.3196   -3.4849   -3.5410 C   0  0  0  0  0  0  0  0  0  0  0  0
    2.5661   -3.2294   -3.1023 N   0  0  0  0  0  0  0  0  0  0  0  0
    2.7788   -2.1152   -2.3794 C   0  0  0  0  0  0  0  0  0  0  0  0
    2.3131    0.0733    5.5975 H   0  0  0  0  0  0  0  0  0  0  0  0
    0.0065    0.3717    6.7366 H   0  0  0  0  0  0  0  0  0  0  0  0
   -2.3930    0.9243    4.8619 H   0  0  0  0  0  0  0  0  0  0  0  0
   -1.2357    2.1569    5.3848 H   0  0  0  0  0  0  0  0  0  0  0  0
   -2.2395    1.3145    6.5702 H   0  0  0  0  0  0  0  0  0  0  0  0
   -1.8778   -1.5588    5.2114 H   0  0  0  0  0  0  0  0  0  0  0  0
   -1.8347   -1.2717    6.9512 H   0  0  0  0  0  0  0  0  0  0  0  0
   -0.4626   -2.0477    6.1487 H   0  0  0  0  0  0  0  0  0  0  0  0
    3.1246    0.1059   -1.0224 H   0  0  0  0  0  0  0  0  0  0  0  0
    1.7911    0.9328   -1.8458 H   0  0  0  0  0  0  0  0  0  0  0  0
   -0.3618   -0.8108   -2.2756 H   0  0  0  0  0  0  0  0  0  0  0  0
   -0.7563   -2.8793   -3.6378 H   0  0  0  0  0  0  0  0  0  0  0  0
    1.2013   -4.4034   -4.1253 H   0  0  0  0  0  0  0  0  0  0  0  0
    3.8099   -1.9571   -2.0438 H   0  0  0  0  0  0  0  0  0  0  0  0
  1  2  2  0  0  0  0
  2  3  1  0  0  0  0
  3  4  2  0  0  0  0
  4  9  1  0  0  0  0
  4  5  1  0  0  0  0
  5  7  1  0  0  0  0
  6  5  1  0  0  0  0
  7 20  1  0  0  0  0
  8  7  2  0  0  0  0
  8 10  1  0  0  0  0
  9  8  1  0  0  0  0
 10 12  1  0  0  0  0
 10 21  1  0  0  0  0
 11 10  1  0  0  0  0
 11 24  1  0  0  0  0
 12 27  1  0  0  0  0
 12 26  1  0  0  0  0
 13 28  1  0  0  0  0
 13  2  1  0  0  0  0
 14 13  1  1  0  0  0
 15 30  1  0  0  0  0
 15 14  1  0  0  0  0
 16 15  2  0  0  0  0
 17 16  1  0  0  0  0
 17 18  2  0  0  0  0
 18 19  2  0  0  0  0
 19 14  1  0  0  0  0
 19 33  1  0  0  0  0
 22 11  1  0  0  0  0
 23 11  1  0  0  0  0
 25 12  1  0  0  0  0
 29 13  1  0  0  0  0
 31 16  1  0  0  0  0
 32 17  1  0  0  0  0
M  RAD  1  14   2
M  END
$$$$
