46
rmsd246.gzmat
O          0.00000        0.00000        0.00000
C          1.19910        0.00000        0.00000
O          1.94920        0.00000        1.17330
N          1.20150       -0.05810        2.32390
C          0.44790        1.11410        2.73170
O          0.72280        2.23250        2.42740
C         -0.61500        0.56890        3.62800
C         -0.59930       -0.84340        3.56190
C          0.47080       -1.27330        2.61610
O          0.76260       -2.35040        2.19230
C         -1.48830       -1.60270        4.28700
C         -2.41750       -0.92330        5.09600
C         -2.43300        0.46410        5.16070
C         -1.52060        1.23690        4.41920
C          2.12340       -0.01940       -1.14820
C          3.25390       -0.83360       -1.11460
C          4.10420       -0.87840       -2.22020
C          3.82560       -0.11490       -3.35120
C          2.69560        0.70340       -3.38540
C          1.84910        0.75200       -2.28010
C          0.68680        1.66290       -2.31380
O          0.42090        2.57510       -1.58400
O         -0.08620        1.32780       -3.42260
N         -1.13620        2.17860       -3.66410
C         -0.84920        3.54690       -4.03100
O          0.17840        3.90940       -4.51990
C         -2.10600        4.28630       -3.71900
C         -2.97950        3.42880       -3.01090
C         -2.32870        2.09370       -2.84180
O         -2.67980        1.12010       -2.25280
C         -4.21240        3.86250       -2.58230
C         -4.57230        5.19210       -2.87020
C         -3.71540        6.03310       -3.56860
C         -2.45710        5.58440       -4.00920
H         -1.48100       -2.69160        4.23480
H         -3.13690       -1.50170        5.67590
H         -3.16440        0.96880        5.79220
H         -1.53810        2.32570        4.46780
H          3.47300       -1.43670       -0.22980
H          4.98900       -1.51440       -2.19580
H          4.49020       -0.15470       -4.21440
H          2.47820        1.30430       -4.27230
H         -4.88750        3.20490       -2.03400
H         -5.54040        5.56330       -2.53320
H         -4.01440        7.06010       -3.77890
H         -1.78520        6.24670       -4.55520
