46

O         -0.18480        0.02240        0.13850
C          1.00550        0.09910        0.13830
O          1.75840        0.14880        1.31140
N          1.00600       -0.05170        2.42790
C          0.30000        0.99140        3.06970
O          0.38660        2.16220        2.81970
C         -0.52190        0.27030        4.09000
C         -0.33290       -1.11080        3.94140
C          0.61770       -1.34970        2.81530
O          1.00120       -2.37160        2.30820
C         -0.98420       -2.02340        4.76040
C         -1.84290       -1.51260        5.74520
C         -2.03180       -0.13170        5.89420
C         -1.36810        0.78360        5.06340
C          1.91770        0.08360       -1.03750
C          3.09170       -0.67590       -0.97450
C          3.90030       -0.81820       -2.10470
C          3.54130       -0.20040       -3.30330
C          2.37310        0.56230       -3.37510
C          1.55850        0.71350       -2.24700
C          0.40110        1.64670       -2.31490
O          0.05030        2.43450       -1.49080
O         -0.21870        1.52990       -3.55900
N         -1.14610        2.50200       -3.77780
C         -0.75690        3.79760       -4.17200
O          0.36100        4.12760       -4.47210
C         -2.02660        4.58030       -4.11020
C         -3.04330        3.75600       -3.60780
C         -2.48100        2.39960       -3.32410
O         -2.99140        1.42580       -2.84240
C         -4.33730        4.22780       -3.43500
C         -4.59210        5.56370       -3.77960
C         -3.57540        6.38780       -4.28170
C         -2.27050        5.90280       -4.45540
H         -0.83090       -3.09650        4.63200
H         -2.37560       -2.20050        6.40570
H         -2.70900        0.23580        6.66840
H         -1.50870        1.86120        5.16670
H          3.34800       -1.17530       -0.03980
H          4.81070       -1.41850       -2.04630
H          4.17310       -0.30650       -4.18770
H          2.09600        1.07130       -4.29860
H         -5.11920        3.57640       -3.04010
H         -5.59780        5.97080       -3.65290
H         -3.80400        7.42450       -4.53890
H         -1.46920        6.53490       -4.84250
