rmsd201.gzmat
 OpenBabel08211713383D

 46 50  0  0  0  0  0  0  0  0999 V2000
    0.0000    0.0000    0.0000 O   0  0  0  0  0  0  0  0  0  0  0  0
    1.1974    0.0000    0.0000 C   0  0  0  0  0  0  0  0  0  0  0  0
    1.9619    0.0000    1.1639 O   0  0  0  0  0  0  0  0  0  0  0  0
    1.2403   -0.0792    2.3279 N   0  0  0  0  0  0  0  0  0  0  0  0
    0.5548    1.0942    2.8318 C   0  0  0  0  0  0  0  0  0  0  0  0
    0.8471    2.2185    2.5700 O   0  0  0  0  0  0  0  0  0  0  0  0
   -0.4700    0.5365    3.7667 C   0  0  0  0  0  0  0  0  0  0  0  0
   -0.4973   -0.8719    3.6415 C   0  0  0  0  0  0  0  0  0  0  0  0
    0.5018   -1.2865    2.6143 C   0  0  0  0  0  0  0  0  0  0  0  0
    0.7395   -2.3523    2.1300 O   0  0  0  0  0  0  0  0  0  0  0  0
   -1.3567   -1.6398    4.3925 C   0  0  0  0  0  0  0  0  0  0  0  0
   -2.2123   -0.9736    5.2890 C   0  0  0  0  0  0  0  0  0  0  0  0
   -2.1866    0.4098    5.4109 C   0  0  0  0  0  0  0  0  0  0  0  0
   -1.3032    1.1914    4.6435 C   0  0  0  0  0  0  0  0  0  0  0  0
    2.1329   -0.0637   -1.1424 C   0  0  0  0  0  0  0  0  0  0  0  0
    3.0067   -1.1457   -1.2276 C   0  0  0  0  0  0  0  0  0  0  0  0
    3.8666   -1.2523   -2.3214 C   0  0  0  0  0  0  0  0  0  0  0  0
    3.8596   -0.2772   -3.3160 C   0  0  0  0  0  0  0  0  0  0  0  0
    2.9922    0.8118   -3.2257 C   0  0  0  0  0  0  0  0  0  0  0  0
    2.1266    0.9158   -2.1376 C   0  0  0  0  0  0  0  0  0  0  0  0
    1.2310    2.0813   -2.0285 C   0  0  0  0  0  0  0  0  0  0  0  0
    0.9160    2.7036   -1.0536 O   0  0  0  0  0  0  0  0  0  0  0  0
    0.7821    2.4085   -3.3067 O   0  0  0  0  0  0  0  0  0  0  0  0
    0.0194    3.5480   -3.3687 N   0  0  0  0  0  0  0  0  0  0  0  0
   -1.3574    3.4991   -2.9144 C   0  0  0  0  0  0  0  0  0  0  0  0
   -2.0221    2.5109   -2.8749 O   0  0  0  0  0  0  0  0  0  0  0  0
   -1.6936    4.9249   -2.6228 C   0  0  0  0  0  0  0  0  0  0  0  0
   -0.5159    5.7043   -2.6976 C   0  0  0  0  0  0  0  0  0  0  0  0
    0.6327    4.8184   -3.0445 C   0  0  0  0  0  0  0  0  0  0  0  0
    1.8034    5.0379   -3.1214 O   0  0  0  0  0  0  0  0  0  0  0  0
   -0.5378    7.0584   -2.4562 C   0  0  0  0  0  0  0  0  0  0  0  0
   -1.7756    7.6421   -2.1294 C   0  0  0  0  0  0  0  0  0  0  0  0
   -2.9333    6.8772   -2.0591 C   0  0  0  0  0  0  0  0  0  0  0  0
   -2.9069    5.4926   -2.3102 C   0  0  0  0  0  0  0  0  0  0  0  0
   -1.3802   -2.7254    4.2967 H   0  0  0  0  0  0  0  0  0  0  0  0
   -2.9062   -1.5592    5.8925 H   0  0  0  0  0  0  0  0  0  0  0  0
   -2.8614    0.9046    6.1097 H   0  0  0  0  0  0  0  0  0  0  0  0
   -1.2866    2.2772    4.7400 H   0  0  0  0  0  0  0  0  0  0  0  0
    3.0166   -1.9079   -0.4440 H   0  0  0  0  0  0  0  0  0  0  0  0
    4.5454   -2.1023   -2.3942 H   0  0  0  0  0  0  0  0  0  0  0  0
    4.5329   -0.3615   -4.1689 H   0  0  0  0  0  0  0  0  0  0  0  0
    2.9959    1.5803   -4.0034 H   0  0  0  0  0  0  0  0  0  0  0  0
    0.3699    7.6601   -2.5091 H   0  0  0  0  0  0  0  0  0  0  0  0
   -1.8185    8.7124   -1.9261 H   0  0  0  0  0  0  0  0  0  0  0  0
   -3.8809    7.3507   -1.8018 H   0  0  0  0  0  0  0  0  0  0  0  0
   -3.8166    4.8941   -2.2521 H   0  0  0  0  0  0  0  0  0  0  0  0
  2  1  2  0  0  0  0
  2  3  1  0  0  0  0
  3  4  1  0  0  0  0
  4  9  1  0  0  0  0
  4  5  1  0  0  0  0
  5  7  1  0  0  0  0
  6  5  2  0  0  0  0
  7 14  1  0  0  0  0
  8  7  2  0  0  0  0
  8 11  1  0  0  0  0
  9  8  1  0  0  0  0
 10  9  2  0  0  0  0
 11 12  2  0  0  0  0
 12 13  1  0  0  0  0
 12 36  1  0  0  0  0
 13 37  1  0  0  0  0
 14 38  1  0  0  0  0
 14 13  2  0  0  0  0
 15  2  1  0  0  0  0
 16 15  1  0  0  0  0
 16 39  1  0  0  0  0
 17 16  2  0  0  0  0
 18 19  2  0  0  0  0
 18 17  1  0  0  0  0
 19 20  1  0  0  0  0
 20 21  1  0  0  0  0
 20 15  2  0  0  0  0
 21 22  2  0  0  0  0
 23 21  1  0  0  0  0
 24 23  1  0  0  0  0
 24 29  1  0  0  0  0
 24 25  1  0  0  0  0
 25 26  2  0  0  0  0
 25 27  1  0  0  0  0
 27 34  1  0  0  0  0
 28 27  2  0  0  0  0
 28 31  1  0  0  0  0
 29 28  1  0  0  0  0
 30 29  2  0  0  0  0
 31 32  2  0  0  0  0
 32 33  1  0  0  0  0
 32 44  1  0  0  0  0
 33 45  1  0  0  0  0
 34 46  1  0  0  0  0
 34 33  2  0  0  0  0
 35 11  1  0  0  0  0
 40 17  1  0  0  0  0
 41 18  1  0  0  0  0
 42 19  1  0  0  0  0
 43 31  1  0  0  0  0
M  END
$$$$
