rmsd1.gzmat
 OpenBabel08211713383D

 46 50  0  0  0  0  0  0  0  0999 V2000
    0.0000    0.0000    0.0000 O   0  0  0  0  0  0  0  0  0  0  0  0
    1.1989    0.0000    0.0000 C   0  0  0  0  0  0  0  0  0  0  0  0
    1.9492    0.0000    1.1728 O   0  0  0  0  0  0  0  0  0  0  0  0
    1.1984    0.0531    2.3228 N   0  0  0  0  0  0  0  0  0  0  0  0
    0.4863   -1.1412    2.7459 C   0  0  0  0  0  0  0  0  0  0  0  0
    0.8193   -2.2539    2.4816 O   0  0  0  0  0  0  0  0  0  0  0  0
   -0.6255   -0.6224    3.5975 C   0  0  0  0  0  0  0  0  0  0  0  0
   -0.6684    0.7873    3.4981 C   0  0  0  0  0  0  0  0  0  0  0  0
    0.4090    1.2418    2.5739 C   0  0  0  0  0  0  0  0  0  0  0  0
    0.6678    2.3220    2.1359 O   0  0  0  0  0  0  0  0  0  0  0  0
   -1.6163    1.5230    4.1707 C   0  0  0  0  0  0  0  0  0  0  0  0
   -2.5461    0.8220    4.9602 C   0  0  0  0  0  0  0  0  0  0  0  0
   -2.5036   -0.5630    5.0586 C   0  0  0  0  0  0  0  0  0  0  0  0
   -1.5302   -1.3114    4.3715 C   0  0  0  0  0  0  0  0  0  0  0  0
    2.1252    0.0346   -1.1470 C   0  0  0  0  0  0  0  0  0  0  0  0
    3.1603    0.9670   -1.1639 C   0  0  0  0  0  0  0  0  0  0  0  0
    4.0073    1.0350   -2.2709 C   0  0  0  0  0  0  0  0  0  0  0  0
    3.8208    0.1759   -3.3512 C   0  0  0  0  0  0  0  0  0  0  0  0
    2.7879   -0.7622   -3.3327 C   0  0  0  0  0  0  0  0  0  0  0  0
    1.9433   -0.8330   -2.2267 C   0  0  0  0  0  0  0  0  0  0  0  0
    0.8787   -1.8555   -2.1984 C   0  0  0  0  0  0  0  0  0  0  0  0
    0.6204   -2.6570   -1.3463 O   0  0  0  0  0  0  0  0  0  0  0  0
    0.1864   -1.7778   -3.4045 O   0  0  0  0  0  0  0  0  0  0  0  0
   -0.7702   -2.7446   -3.5818 N   0  0  0  0  0  0  0  0  0  0  0  0
   -0.3584   -4.1187   -3.7492 C   0  0  0  0  0  0  0  0  0  0  0  0
    0.7291   -4.4583   -4.1068 O   0  0  0  0  0  0  0  0  0  0  0  0
   -1.5888   -4.9076   -3.4505 C   0  0  0  0  0  0  0  0  0  0  0  0
   -2.5750   -4.0408   -2.9245 C   0  0  0  0  0  0  0  0  0  0  0  0
   -2.0280   -2.6510   -2.8680 C   0  0  0  0  0  0  0  0  0  0  0  0
   -2.4877   -1.6432   -2.4301 O   0  0  0  0  0  0  0  0  0  0  0  0
   -3.8152   -4.5093   -2.5587 C   0  0  0  0  0  0  0  0  0  0  0  0
   -4.0702   -5.8825   -2.7305 C   0  0  0  0  0  0  0  0  0  0  0  0
   -3.1029   -6.7331   -3.2503 C   0  0  0  0  0  0  0  0  0  0  0  0
   -1.8339   -6.2505   -3.6197 C   0  0  0  0  0  0  0  0  0  0  0  0
   -1.6538    2.6096    4.0918 H   0  0  0  0  0  0  0  0  0  0  0  0
   -3.3125    1.3811    5.4968 H   0  0  0  0  0  0  0  0  0  0  0  0
   -3.2367   -1.0851    5.6738 H   0  0  0  0  0  0  0  0  0  0  0  0
   -1.5022   -2.3988    4.4465 H   0  0  0  0  0  0  0  0  0  0  0  0
    3.3058    1.6443   -0.3185 H   0  0  0  0  0  0  0  0  0  0  0  0
    4.8166    1.7650   -2.2875 H   0  0  0  0  0  0  0  0  0  0  0  0
    4.4815    0.2343   -4.2164 H   0  0  0  0  0  0  0  0  0  0  0  0
    2.6448   -1.4390   -4.1792 H   0  0  0  0  0  0  0  0  0  0  0  0
   -4.5759   -3.8448   -2.1481 H   0  0  0  0  0  0  0  0  0  0  0  0
   -5.0465   -6.2788   -2.4502 H   0  0  0  0  0  0  0  0  0  0  0  0
   -3.3235   -7.7932   -3.3767 H   0  0  0  0  0  0  0  0  0  0  0  0
   -1.0746   -6.9209   -4.0226 H   0  0  0  0  0  0  0  0  0  0  0  0
  2  1  2  0  0  0  0
  2  3  1  0  0  0  0
  3  4  1  0  0  0  0
  4  9  1  0  0  0  0
  4  5  1  0  0  0  0
  5  7  1  0  0  0  0
  6  5  2  0  0  0  0
  7 14  1  0  0  0  0
  8  7  2  0  0  0  0
  8 11  1  0  0  0  0
  9  8  1  0  0  0  0
 10  9  2  0  0  0  0
 11 12  2  0  0  0  0
 12 13  1  0  0  0  0
 12 36  1  0  0  0  0
 13 37  1  0  0  0  0
 14 38  1  0  0  0  0
 14 13  2  0  0  0  0
 15  2  1  0  0  0  0
 16 15  1  0  0  0  0
 16 39  1  0  0  0  0
 17 16  2  0  0  0  0
 18 19  2  0  0  0  0
 18 17  1  0  0  0  0
 19 20  1  0  0  0  0
 20 21  1  0  0  0  0
 20 15  2  0  0  0  0
 21 22  2  0  0  0  0
 23 21  1  0  0  0  0
 24 23  1  0  0  0  0
 24 29  1  0  0  0  0
 25 24  1  0  0  0  0
 25 27  1  0  0  0  0
 26 25  2  0  0  0  0
 27 28  1  0  0  0  0
 28 29  1  0  0  0  0
 28 31  2  0  0  0  0
 29 30  2  0  0  0  0
 31 43  1  0  0  0  0
 32 31  1  0  0  0  0
 32 44  1  0  0  0  0
 33 32  2  0  0  0  0
 34 27  2  0  0  0  0
 34 33  1  0  0  0  0
 35 11  1  0  0  0  0
 40 17  1  0  0  0  0
 41 18  1  0  0  0  0
 42 19  1  0  0  0  0
 45 33  1  0  0  0  0
 46 34  1  0  0  0  0
M  END
$$$$
