46
rmsd149.gzmat
O          0.00000        0.00000        0.00000
C          1.19860        0.00000        0.00000
O          1.95300        0.00000        1.17110
N          1.21520        0.02420        2.32780
C          0.39170        1.17770        2.61830
O          0.57820        2.26730        2.16830
C         -0.60520        0.67600        3.60880
C         -0.48770       -0.72980        3.70920
C          0.58480       -1.19980        2.78250
O          0.94190       -2.29720        2.48600
C         -1.29330       -1.45540        4.55560
C         -2.24740       -0.74990        5.31180
C         -2.36780        0.62990        5.20800
C         -1.53480        1.36980        4.34830
C          2.13000        0.01620       -1.14360
C          3.28410        0.79530       -1.08830
C          4.15230        0.81930       -2.18070
C          3.86760        0.07030       -3.31980
C          2.71100       -0.70870       -3.37790
C          1.84500       -0.73400       -2.28720
C          0.63600       -1.57890       -2.34160
O          0.24950       -2.40130       -1.56060
O         -0.03120       -1.29650       -3.53090
N         -1.17140       -2.03650       -3.73080
C         -1.06730       -3.48060       -3.78370
O         -0.08410       -4.06970       -4.11730
C         -2.42980       -3.96610       -3.42010
C         -3.20850       -2.87020       -2.98200
C         -2.38430       -1.62670       -3.04420
O         -2.62100       -0.51100       -2.70020
C         -4.50930       -3.03840       -2.56760
C         -5.03650       -4.34260       -2.58980
C         -4.27160       -5.41960       -3.02000
C         -2.94340       -5.24200       -3.44840
H         -1.20300       -2.53890        4.63640
H         -2.90210       -1.30250        5.98590
H         -3.12000        1.15500        5.79680
H         -1.62970        2.45300        4.27110
H          3.50810        1.38740       -0.19730
H          5.05590        1.42760       -2.13910
H          4.54750        0.09170       -4.17150
H          2.48860       -1.29660       -4.27180
H         -5.11100       -2.19540       -2.22680
H         -6.06240       -4.50420       -2.25860
H         -4.69960       -6.42220       -3.02560
H         -2.34450       -6.08850       -3.78440
