rmsd98.gzmat
 OpenBabel08211713383D

 46 50  0  0  0  0  0  0  0  0999 V2000
    0.0000    0.0000    0.0000 O   0  0  0  0  0  0  0  0  0  0  0  0
    1.1982    0.0000    0.0000 C   0  0  0  0  0  0  0  0  0  0  0  0
    1.9543    0.0000    1.1692 O   0  0  0  0  0  0  0  0  0  0  0  0
    1.2159    0.0429    2.3258 N   0  0  0  0  0  0  0  0  0  0  0  0
    0.5292   -1.1569    2.7680 C   0  0  0  0  0  0  0  0  0  0  0  0
    0.8473   -2.2671    2.4760 O   0  0  0  0  0  0  0  0  0  0  0  0
   -0.5385   -0.6466    3.6800 C   0  0  0  0  0  0  0  0  0  0  0  0
   -0.5927    0.7636    3.5894 C   0  0  0  0  0  0  0  0  0  0  0  0
    0.4351    1.2267    2.6128 C   0  0  0  0  0  0  0  0  0  0  0  0
    0.6652    2.3090    2.1644 O   0  0  0  0  0  0  0  0  0  0  0  0
   -1.5009    1.4921    4.3223 C   0  0  0  0  0  0  0  0  0  0  0  0
   -2.3769    0.7833    5.1649 C   0  0  0  0  0  0  0  0  0  0  0  0
   -2.3226   -0.6018    5.2543 C   0  0  0  0  0  0  0  0  0  0  0  0
   -1.3906   -1.3430    4.5052 C   0  0  0  0  0  0  0  0  0  0  0  0
    2.1290    0.0316   -1.1448 C   0  0  0  0  0  0  0  0  0  0  0  0
    3.1471    0.9819   -1.1721 C   0  0  0  0  0  0  0  0  0  0  0  0
    4.0076    1.0365   -2.2696 C   0  0  0  0  0  0  0  0  0  0  0  0
    3.8504    0.1469   -3.3298 C   0  0  0  0  0  0  0  0  0  0  0  0
    2.8314   -0.8064   -3.3024 C   0  0  0  0  0  0  0  0  0  0  0  0
    1.9735   -0.8630   -2.2061 C   0  0  0  0  0  0  0  0  0  0  0  0
    0.9223   -1.8971   -2.1597 C   0  0  0  0  0  0  0  0  0  0  0  0
    0.6536   -2.6618   -1.2769 O   0  0  0  0  0  0  0  0  0  0  0  0
    0.2491   -1.8871   -3.3786 O   0  0  0  0  0  0  0  0  0  0  0  0
   -0.7188   -2.8540   -3.5000 N   0  0  0  0  0  0  0  0  0  0  0  0
   -1.9694   -2.6901   -2.7801 C   0  0  0  0  0  0  0  0  0  0  0  0
   -2.4191   -1.6423   -2.4357 O   0  0  0  0  0  0  0  0  0  0  0  0
   -2.5180   -4.0761   -2.6857 C   0  0  0  0  0  0  0  0  0  0  0  0
   -1.5406   -4.9944   -3.1338 C   0  0  0  0  0  0  0  0  0  0  0  0
   -0.3144   -4.2431   -3.5304 C   0  0  0  0  0  0  0  0  0  0  0  0
    0.7674   -4.6213   -3.8652 O   0  0  0  0  0  0  0  0  0  0  0  0
   -1.7841   -6.3482   -3.1465 C   0  0  0  0  0  0  0  0  0  0  0  0
   -3.0411   -6.7887   -2.6930 C   0  0  0  0  0  0  0  0  0  0  0  0
   -4.0007   -5.8869   -2.2510 C   0  0  0  0  0  0  0  0  0  0  0  0
   -3.7489   -4.5025   -2.2437 C   0  0  0  0  0  0  0  0  0  0  0  0
   -1.5485    2.5789    4.2511 H   0  0  0  0  0  0  0  0  0  0  0  0
   -3.1095    1.3374    5.7523 H   0  0  0  0  0  0  0  0  0  0  0  0
   -3.0131   -1.1297    5.9121 H   0  0  0  0  0  0  0  0  0  0  0  0
   -1.3519   -2.4303    4.5747 H   0  0  0  0  0  0  0  0  0  0  0  0
    3.2694    1.6824   -0.3419 H   0  0  0  0  0  0  0  0  0  0  0  0
    4.8056    1.7786   -2.2938 H   0  0  0  0  0  0  0  0  0  0  0  0
    4.5244    0.1929   -4.1852 H   0  0  0  0  0  0  0  0  0  0  0  0
    2.7104   -1.5057   -4.1337 H   0  0  0  0  0  0  0  0  0  0  0  0
   -1.0314   -7.0585   -3.4887 H   0  0  0  0  0  0  0  0  0  0  0  0
   -3.2573   -7.8569   -2.6879 H   0  0  0  0  0  0  0  0  0  0  0  0
   -4.9662   -6.2510   -1.8992 H   0  0  0  0  0  0  0  0  0  0  0  0
   -4.5031   -3.7970   -1.8939 H   0  0  0  0  0  0  0  0  0  0  0  0
  1  2  2  0  0  0  0
  2  3  1  0  0  0  0
  3  4  1  0  0  0  0
  4  9  1  0  0  0  0
  4  5  1  0  0  0  0
  5  7  1  0  0  0  0
  6  5  2  0  0  0  0
  7 14  1  0  0  0  0
  8  7  2  0  0  0  0
  8 11  1  0  0  0  0
  9  8  1  0  0  0  0
 10  9  2  0  0  0  0
 11 12  2  0  0  0  0
 12 13  1  0  0  0  0
 12 36  1  0  0  0  0
 13 37  1  0  0  0  0
 14 38  1  0  0  0  0
 14 13  2  0  0  0  0
 15  2  1  0  0  0  0
 16 15  1  0  0  0  0
 16 39  1  0  0  0  0
 17 16  2  0  0  0  0
 18 19  2  0  0  0  0
 18 17  1  0  0  0  0
 19 20  1  0  0  0  0
 20 21  1  0  0  0  0
 20 15  2  0  0  0  0
 21 22  2  0  0  0  0
 23 21  1  0  0  0  0
 24 23  1  0  0  0  0
 24 25  1  0  0  0  0
 25 27  1  0  0  0  0
 25 26  2  0  0  0  0
 27 34  2  0  0  0  0
 28 27  1  0  0  0  0
 29 24  1  0  0  0  0
 29 28  1  0  0  0  0
 30 29  2  0  0  0  0
 31 28  2  0  0  0  0
 31 32  1  0  0  0  0
 32 44  1  0  0  0  0
 32 33  2  0  0  0  0
 33 34  1  0  0  0  0
 33 45  1  0  0  0  0
 34 46  1  0  0  0  0
 35 11  1  0  0  0  0
 40 17  1  0  0  0  0
 41 18  1  0  0  0  0
 42 19  1  0  0  0  0
 43 31  1  0  0  0  0
M  END
$$$$
