29
rmsd32.gzmat
Cl         0.00000        0.00000        0.00000
C          1.70530        0.00000        0.00000
C          2.36930        0.00000        1.22150
C          3.76190       -0.06740        1.23430
C          4.45930       -0.13010        0.02810
C          3.77490       -0.10960       -1.18690
C          2.38190       -0.04000       -1.21100
C          1.61980        0.07990        2.50050
O          1.44460        1.09130        3.13490
N          1.19730       -1.14330        3.07060
O          1.22020       -2.21060        2.18360
C         -0.00280       -2.54560        1.62880
O         -1.03410       -2.07770        2.03770
C          0.14910       -3.55800        0.57330
C          1.31520       -3.80730       -0.14570
Cl         2.74610       -2.93600        0.16080
C          1.36700       -4.76800       -1.14970
C          0.21920       -5.50290       -1.43960
C         -0.96090       -5.27100       -0.73240
C         -0.99930       -4.30070        0.26400
H          4.29970       -0.08100        2.18420
H          5.54640       -0.19650        0.03590
H          4.32930       -0.15410       -2.12380
H          1.84460       -0.02620       -2.15860
H          0.40520       -1.16700        3.70610
H          2.28880       -4.94900       -1.70420
H          0.24400       -6.26040       -2.22430
H         -1.85540       -5.84950       -0.96190
H         -1.92870       -4.10490        0.81080
