rmsd57.gzmat
 OpenBabel08211713373D

 29 30  0  0  0  0  0  0  0  0999 V2000
    0.0000    0.0000    0.0000 Cl  0  0  0  0  0  0  0  0  0  0  0  0
    1.7069    0.0000    0.0000 C   0  0  0  0  0  0  0  0  0  0  0  0
    2.3723    0.0000    1.2204 C   0  0  0  0  0  0  0  0  0  0  0  0
    3.7655   -0.0556    1.2303 C   0  0  0  0  0  0  0  0  0  0  0  0
    4.4610   -0.1165    0.0231 C   0  0  0  0  0  0  0  0  0  0  0  0
    3.7745   -0.1027   -1.1908 C   0  0  0  0  0  0  0  0  0  0  0  0
    2.3807   -0.0387   -1.2125 C   0  0  0  0  0  0  0  0  0  0  0  0
    1.6308    0.0582    2.5056 C   0  0  0  0  0  0  0  0  0  0  0  0
    1.5013    1.0477    3.1843 O   0  0  0  0  0  0  0  0  0  0  0  0
    1.1673   -1.1727    3.0265 N   0  0  0  0  0  0  0  0  0  0  0  0
    1.1306   -2.1897    2.0799 O   0  0  0  0  0  0  0  0  0  0  0  0
   -0.1277   -2.4825    1.5822 C   0  0  0  0  0  0  0  0  0  0  0  0
   -1.1261   -2.0522    2.1015 O   0  0  0  0  0  0  0  0  0  0  0  0
   -0.0595   -3.3899    0.4276 C   0  0  0  0  0  0  0  0  0  0  0  0
    1.0824   -3.6694   -0.3190 C   0  0  0  0  0  0  0  0  0  0  0  0
    2.5870   -2.9705    0.0691 Cl  0  0  0  0  0  0  0  0  0  0  0  0
    1.0495   -4.5205   -1.4183 C   0  0  0  0  0  0  0  0  0  0  0  0
   -0.1605   -5.1088   -1.7810 C   0  0  0  0  0  0  0  0  0  0  0  0
   -1.3184   -4.8400   -1.0509 C   0  0  0  0  0  0  0  0  0  0  0  0
   -1.2702   -3.9831    0.0439 C   0  0  0  0  0  0  0  0  0  0  0  0
    4.3060   -0.0571    2.1790 H   0  0  0  0  0  0  0  0  0  0  0  0
    5.5490   -0.1743    0.0298 H   0  0  0  0  0  0  0  0  0  0  0  0
    4.3283   -0.1452   -2.1286 H   0  0  0  0  0  0  0  0  0  0  0  0
    1.8413   -0.0296   -2.1591 H   0  0  0  0  0  0  0  0  0  0  0  0
    0.3790   -1.1947    3.6674 H   0  0  0  0  0  0  0  0  0  0  0  0
    1.9536   -4.7307   -1.9908 H   0  0  0  0  0  0  0  0  0  0  0  0
   -0.2006   -5.7806   -2.6394 H   0  0  0  0  0  0  0  0  0  0  0  0
   -2.2633   -5.3002   -1.3390 H   0  0  0  0  0  0  0  0  0  0  0  0
   -2.1811   -3.7591    0.6116 H   0  0  0  0  0  0  0  0  0  0  0  0
  1  2  1  0  0  0  0
  2  3  2  0  0  0  0
  3  4  1  0  0  0  0
  3  8  1  0  0  0  0
  4 21  1  0  0  0  0
  5 22  1  0  0  0  0
  5  4  2  0  0  0  0
  6  5  1  0  0  0  0
  7  6  2  0  0  0  0
  7  2  1  0  0  0  0
  8 10  1  0  0  0  0
  8  9  2  0  0  0  0
 10 25  1  0  0  0  0
 11 10  1  0  0  0  0
 12 11  1  0  0  0  0
 12 13  2  0  0  0  0
 14 12  1  0  0  0  0
 15 16  1  0  0  0  0
 15 14  2  0  0  0  0
 17 15  1  0  0  0  0
 18 17  2  0  0  0  0
 18 19  1  0  0  0  0
 19 20  2  0  0  0  0
 20 14  1  0  0  0  0
 20 29  1  0  0  0  0
 23  6  1  0  0  0  0
 24  7  1  0  0  0  0
 26 17  1  0  0  0  0
 27 18  1  0  0  0  0
 28 19  1  0  0  0  0
M  END
$$$$
