rmsd113.gzmat
 OpenBabel08211713373D

 29 30  0  0  0  0  0  0  0  0999 V2000
    0.0000    0.0000    0.0000 Cl  0  0  0  0  0  0  0  0  0  0  0  0
    1.7059    0.0000    0.0000 C   0  0  0  0  0  0  0  0  0  0  0  0
    2.3709    0.0000    1.2207 C   0  0  0  0  0  0  0  0  0  0  0  0
    3.7639   -0.0589    1.2319 C   0  0  0  0  0  0  0  0  0  0  0  0
    4.4597   -0.1154    0.0244 C   0  0  0  0  0  0  0  0  0  0  0  0
    3.7739   -0.0973   -1.1900 C   0  0  0  0  0  0  0  0  0  0  0  0
    2.3801   -0.0358   -1.2124 C   0  0  0  0  0  0  0  0  0  0  0  0
    1.6209    0.0688    2.5004 C   0  0  0  0  0  0  0  0  0  0  0  0
    1.4526    1.0727    3.1484 O   0  0  0  0  0  0  0  0  0  0  0  0
    1.1906   -1.1609    3.0517 N   0  0  0  0  0  0  0  0  0  0  0  0
    1.1969   -2.2071    2.1383 O   0  0  0  0  0  0  0  0  0  0  0  0
   -0.0359   -2.5222    1.5923 C   0  0  0  0  0  0  0  0  0  0  0  0
   -1.0603   -2.0825    2.0481 O   0  0  0  0  0  0  0  0  0  0  0  0
    0.0949   -3.4669    0.4730 C   0  0  0  0  0  0  0  0  0  0  0  0
    1.2627   -3.7177   -0.2430 C   0  0  0  0  0  0  0  0  0  0  0  0
    2.7294   -2.9487    0.1555 Cl  0  0  0  0  0  0  0  0  0  0  0  0
    1.2891   -4.5990   -1.3183 C   0  0  0  0  0  0  0  0  0  0  0  0
    0.1145   -5.2540   -1.6834 C   0  0  0  0  0  0  0  0  0  0  0  0
   -1.0668   -5.0224   -0.9785 C   0  0  0  0  0  0  0  0  0  0  0  0
   -1.0796   -4.1301    0.0890 C   0  0  0  0  0  0  0  0  0  0  0  0
    4.3040   -0.0680    2.1807 H   0  0  0  0  0  0  0  0  0  0  0  0
    5.5473   -0.1722    0.0305 H   0  0  0  0  0  0  0  0  0  0  0  0
    4.3268   -0.1341   -2.1284 H   0  0  0  0  0  0  0  0  0  0  0  0
    1.8410   -0.0222   -2.1590 H   0  0  0  0  0  0  0  0  0  0  0  0
    0.3982   -1.1893    3.6870 H   0  0  0  0  0  0  0  0  0  0  0  0
    2.2122   -4.7809   -1.8701 H   0  0  0  0  0  0  0  0  0  0  0  0
    0.1210   -5.9492   -2.5238 H   0  0  0  0  0  0  0  0  0  0  0  0
   -1.9825   -5.5389   -1.2656 H   0  0  0  0  0  0  0  0  0  0  0  0
   -2.0105   -3.9329    0.6334 H   0  0  0  0  0  0  0  0  0  0  0  0
  1  2  1  0  0  0  0
  2  3  2  0  0  0  0
  3  4  1  0  0  0  0
  3  8  1  0  0  0  0
  4 21  1  0  0  0  0
  5 22  1  0  0  0  0
  5  4  2  0  0  0  0
  6  5  1  0  0  0  0
  7  6  2  0  0  0  0
  7  2  1  0  0  0  0
  8 10  1  0  0  0  0
  8  9  2  0  0  0  0
 10 25  1  0  0  0  0
 11 10  1  0  0  0  0
 12 13  2  0  0  0  0
 12 11  1  0  0  0  0
 14 12  1  0  0  0  0
 15 16  1  0  0  0  0
 15 14  2  0  0  0  0
 17 15  1  0  0  0  0
 18 17  2  0  0  0  0
 18 19  1  0  0  0  0
 19 20  2  0  0  0  0
 20 14  1  0  0  0  0
 20 29  1  0  0  0  0
 23  6  1  0  0  0  0
 24  7  1  0  0  0  0
 26 17  1  0  0  0  0
 27 18  1  0  0  0  0
 28 19  1  0  0  0  0
M  END
$$$$
