29
rmsd44.gzmat
Cl         0.00000        0.00000        0.00000
C          1.70490        0.00000        0.00000
C          2.36760        0.00000        1.22220
C          3.75930        0.08270        1.23760
C          4.45790        0.15370        0.03280
C          3.77570        0.12060       -1.18330
C          2.38350        0.04180       -1.21000
C          1.61860       -0.12130        2.49710
O          1.45940       -1.15480        3.10050
N          1.17840        1.07360        3.11070
O          1.15490        2.17530        2.26670
C         -0.09190        2.50380        1.76360
O         -1.09490        1.95770        2.14320
C         -0.00250        3.62660        0.81840
C          1.09210        3.90680        0.00610
Cl         2.48980        2.93480        0.05410
C          1.09120        4.97780       -0.88080
C         -0.03510        5.79530       -0.94930
C         -1.14530        5.53150       -0.14640
C         -1.13310        4.44970        0.72820
H          4.29630        0.09500        2.18790
H          5.54440        0.23090        0.04250
H          4.33230        0.15950       -2.11910
H          1.84780        0.02270       -2.15850
H          0.39670        1.05310        3.76010
H          1.95580        5.17980       -1.51390
H         -0.04770        6.64370       -1.63500
H         -2.02540        6.17140       -0.20680
H         -2.00890        4.23010        1.34830
