29
rmsd93.gzmat
Cl         0.00000        0.00000        0.00000
C          1.70700        0.00000        0.00000
C          2.37520        0.00000        1.21890
C          3.76830        0.06000        1.22450
C          4.46120        0.11800        0.01560
C          3.77170        0.10170       -1.19650
C          2.37820        0.03820       -1.21380
C          1.64030       -0.06690        2.50800
O          1.51470       -1.06240        3.17840
N          1.18410        1.16060        3.04260
O          1.13780        2.18200        2.10200
C         -0.12170        2.45470        1.59460
O         -1.11820        2.02920        2.12030
C         -0.05600        3.32190        0.40930
C          1.09060        3.60260       -0.32930
Cl         2.61000        2.97560        0.11970
C          1.05220        4.39850       -1.46890
C         -0.16840        4.92900       -1.88140
C         -1.33120        4.65830       -1.15970
C         -1.27670        3.85930       -0.02250
H          4.31100        0.06880        2.17170
H          5.54900        0.17580        0.01990
H          4.32090        0.14310       -2.13650
H          1.83690        0.02850       -2.15920
H          0.40560        1.18190        3.69510
H          1.96040        4.60840       -2.03500
H         -0.21370        5.55700       -2.77220
H         -2.28500        5.07020       -1.48800
H         -2.18970        3.63770        0.54240
