rmsd35.gzmat
 OpenBabel08211713373D

 29 30  0  0  0  0  0  0  0  0999 V2000
    0.0000    0.0000    0.0000 Cl  0  0  0  0  0  0  0  0  0  0  0  0
    1.7072    0.0000    0.0000 C   0  0  0  0  0  0  0  0  0  0  0  0
    2.3739    0.0000    1.2197 C   0  0  0  0  0  0  0  0  0  0  0  0
    3.7671    0.0519    1.2275 C   0  0  0  0  0  0  0  0  0  0  0  0
    4.4615    0.1100    0.0194 C   0  0  0  0  0  0  0  0  0  0  0  0
    3.7730    0.1019   -1.1935 C   0  0  0  0  0  0  0  0  0  0  0  0
    2.3797    0.0375   -1.2131 C   0  0  0  0  0  0  0  0  0  0  0  0
    1.6338   -0.0495    2.5067 C   0  0  0  0  0  0  0  0  0  0  0  0
    1.4971   -1.0353    3.1886 O   0  0  0  0  0  0  0  0  0  0  0  0
    1.1825    1.1891    3.0204 N   0  0  0  0  0  0  0  0  0  0  0  0
    1.1525    2.1924    2.0587 O   0  0  0  0  0  0  0  0  0  0  0  0
   -0.1045    2.4832    1.5548 C   0  0  0  0  0  0  0  0  0  0  0  0
   -1.1066    2.1014    2.1042 O   0  0  0  0  0  0  0  0  0  0  0  0
   -0.0290    3.3091    0.3409 C   0  0  0  0  0  0  0  0  0  0  0  0
    1.1277    3.5821   -0.3851 C   0  0  0  0  0  0  0  0  0  0  0  0
    2.6463    2.9891    0.1100 Cl  0  0  0  0  0  0  0  0  0  0  0  0
    1.1008    4.3431   -1.5485 C   0  0  0  0  0  0  0  0  0  0  0  0
   -0.1189    4.8433   -2.0000 C   0  0  0  0  0  0  0  0  0  0  0  0
   -1.2917    4.5798   -1.2920 C   0  0  0  0  0  0  0  0  0  0  0  0
   -1.2485    3.8161   -0.1302 C   0  0  0  0  0  0  0  0  0  0  0  0
    4.3079    0.0539    2.1758 H   0  0  0  0  0  0  0  0  0  0  0  0
    5.5497    0.1615    0.0246 H   0  0  0  0  0  0  0  0  0  0  0  0
    4.3237    0.1483   -2.1325 H   0  0  0  0  0  0  0  0  0  0  0  0
    1.8396    0.0233   -2.1588 H   0  0  0  0  0  0  0  0  0  0  0  0
    0.3959    1.2252    3.6627 H   0  0  0  0  0  0  0  0  0  0  0  0
    2.0169    4.5505   -2.1028 H   0  0  0  0  0  0  0  0  0  0  0  0
   -0.1542    5.4429   -2.9104 H   0  0  0  0  0  0  0  0  0  0  0  0
   -2.2437    4.9712   -1.6495 H   0  0  0  0  0  0  0  0  0  0  0  0
   -2.1693    3.5988    0.4244 H   0  0  0  0  0  0  0  0  0  0  0  0
  1  2  1  0  0  0  0
  2  3  2  0  0  0  0
  3  4  1  0  0  0  0
  3  8  1  0  0  0  0
  4 21  1  0  0  0  0
  5 22  1  0  0  0  0
  5  4  2  0  0  0  0
  6  5  1  0  0  0  0
  7  6  2  0  0  0  0
  7  2  1  0  0  0  0
  8 10  1  0  0  0  0
  8  9  2  0  0  0  0
 10 25  1  0  0  0  0
 11 10  1  0  0  0  0
 12 11  1  0  0  0  0
 12 13  2  0  0  0  0
 14 12  1  0  0  0  0
 15 16  1  0  0  0  0
 15 14  2  0  0  0  0
 17 15  1  0  0  0  0
 18 17  2  0  0  0  0
 18 19  1  0  0  0  0
 19 20  2  0  0  0  0
 20 14  1  0  0  0  0
 20 29  1  0  0  0  0
 23  6  1  0  0  0  0
 24  7  1  0  0  0  0
 26 17  1  0  0  0  0
 27 18  1  0  0  0  0
 28 19  1  0  0  0  0
M  END
$$$$
