rmsd44.gzmat
 OpenBabel08211713373D

 29 30  0  0  0  0  0  0  0  0999 V2000
    0.0000    0.0000    0.0000 Cl  0  0  0  0  0  0  0  0  0  0  0  0
    1.7049    0.0000    0.0000 C   0  0  0  0  0  0  0  0  0  0  0  0
    2.3676    0.0000    1.2222 C   0  0  0  0  0  0  0  0  0  0  0  0
    3.7593    0.0827    1.2376 C   0  0  0  0  0  0  0  0  0  0  0  0
    4.4579    0.1537    0.0328 C   0  0  0  0  0  0  0  0  0  0  0  0
    3.7757    0.1206   -1.1833 C   0  0  0  0  0  0  0  0  0  0  0  0
    2.3835    0.0418   -1.2100 C   0  0  0  0  0  0  0  0  0  0  0  0
    1.6186   -0.1213    2.4971 C   0  0  0  0  0  0  0  0  0  0  0  0
    1.4594   -1.1548    3.1005 O   0  0  0  0  0  0  0  0  0  0  0  0
    1.1784    1.0736    3.1107 N   0  0  0  0  0  0  0  0  0  0  0  0
    1.1549    2.1753    2.2667 O   0  0  0  0  0  0  0  0  0  0  0  0
   -0.0919    2.5038    1.7636 C   0  0  0  0  0  0  0  0  0  0  0  0
   -1.0949    1.9577    2.1432 O   0  0  0  0  0  0  0  0  0  0  0  0
   -0.0025    3.6266    0.8184 C   0  0  0  0  0  0  0  0  0  0  0  0
    1.0921    3.9068    0.0061 C   0  0  0  0  0  0  0  0  0  0  0  0
    2.4898    2.9348    0.0541 Cl  0  0  0  0  0  0  0  0  0  0  0  0
    1.0912    4.9778   -0.8808 C   0  0  0  0  0  0  0  0  0  0  0  0
   -0.0351    5.7953   -0.9493 C   0  0  0  0  0  0  0  0  0  0  0  0
   -1.1453    5.5315   -0.1464 C   0  0  0  0  0  0  0  0  0  0  0  0
   -1.1331    4.4497    0.7282 C   0  0  0  0  0  0  0  0  0  0  0  0
    4.2963    0.0950    2.1879 H   0  0  0  0  0  0  0  0  0  0  0  0
    5.5444    0.2309    0.0425 H   0  0  0  0  0  0  0  0  0  0  0  0
    4.3323    0.1595   -2.1191 H   0  0  0  0  0  0  0  0  0  0  0  0
    1.8478    0.0227   -2.1585 H   0  0  0  0  0  0  0  0  0  0  0  0
    0.3967    1.0531    3.7601 H   0  0  0  0  0  0  0  0  0  0  0  0
    1.9558    5.1798   -1.5139 H   0  0  0  0  0  0  0  0  0  0  0  0
   -0.0477    6.6437   -1.6350 H   0  0  0  0  0  0  0  0  0  0  0  0
   -2.0254    6.1714   -0.2068 H   0  0  0  0  0  0  0  0  0  0  0  0
   -2.0089    4.2301    1.3483 H   0  0  0  0  0  0  0  0  0  0  0  0
  2  1  1  0  0  0  0
  2  3  2  0  0  0  0
  3  4  1  0  0  0  0
  3  8  1  0  0  0  0
  4 21  1  0  0  0  0
  5 22  1  0  0  0  0
  5  4  2  0  0  0  0
  6  5  1  0  0  0  0
  7  6  2  0  0  0  0
  7  2  1  0  0  0  0
  8  9  2  0  0  0  0
  8 10  1  0  0  0  0
 10 25  1  0  0  0  0
 11 10  1  0  0  0  0
 12 13  2  0  0  0  0
 12 11  1  0  0  0  0
 14 12  1  0  0  0  0
 15 16  1  0  0  0  0
 15 14  2  0  0  0  0
 17 15  1  0  0  0  0
 18 17  2  0  0  0  0
 18 19  1  0  0  0  0
 19 20  2  0  0  0  0
 20 14  1  0  0  0  0
 20 29  1  0  0  0  0
 23  6  1  0  0  0  0
 24  7  1  0  0  0  0
 26 17  1  0  0  0  0
 27 18  1  0  0  0  0
 28 19  1  0  0  0  0
M  END
$$$$
