39
rmsd12.gzmat
S          0.00000        0.00000        0.00000
N          1.82070        0.00000        0.00000
C          2.57360        0.00000        1.19370
C          3.74350       -0.76790        1.30570
C          4.45560       -0.76180        2.50010
C          4.01450       -0.00240        3.58270
C          2.85600        0.76300        3.46520
C          2.13170        0.77600        2.27700
C          2.39420       -0.17300       -1.24070
O          3.56080       -0.24880       -1.54500
N          1.36940       -0.25080       -2.25160
C          0.07760       -0.18010       -1.82410
N         -0.98930       -0.26580       -2.57350
S         -2.48080       -0.15580       -1.73560
O         -1.94670       -0.09780       -0.30960
O         -3.31260        0.90670       -2.21360
C         -3.29820       -1.67800       -1.92100
C         -3.13300       -2.67530       -0.95820
C         -3.78850       -3.89450       -1.09810
C         -4.61590       -4.12610       -2.20110
C         -4.78130       -3.12330       -3.16290
C         -4.12710       -1.90370       -3.02190
C         -5.31640       -5.43010       -2.35550
C          1.75410       -0.31790       -3.66040
H          4.10030       -1.35510        0.45910
H          5.36520       -1.35500        2.58740
H          4.57620       -0.00320        4.51300
H          2.51620        1.36380        4.30750
H          1.24370        1.39860        2.19390
H         -2.49780       -2.51320       -0.07700
H         -3.65850       -4.66760       -0.34340
H         -5.42720       -3.29720       -4.02130
H         -4.28040       -1.12730       -3.78060
H         -6.37810       -5.30000       -2.61490
H         -5.28620       -6.04380       -1.44360
H         -4.86140       -6.03220       -3.15850
H          0.90920       -0.67950       -4.27670
H          2.61250       -1.00480       -3.78560
H          2.05560        0.68130       -4.02530
