39
rmsd64.gzmat
S          0.00000        0.00000        0.00000
N          1.82050        0.00000        0.00000
C          2.56920        0.00000        1.19590
C          2.09110       -0.72610        2.29820
C          2.80900       -0.70880        3.49020
C          3.99860        0.00940        3.59250
C          4.47720        0.71660        2.49060
C          3.77030        0.72060        1.29340
C          2.39530        0.16610       -1.24150
O          3.56280        0.23970       -1.54400
N          1.37160        0.22550       -2.25350
C          0.07920        0.17360       -1.82300
N         -0.98530        0.25700       -2.57520
S         -2.47840        0.17500       -1.73610
O         -3.33620       -0.86690       -2.21220
O         -1.94840        0.10600       -0.30940
C         -3.24230        1.72290       -1.93450
C         -3.96840        2.00310       -3.09360
C         -4.55990        3.25090       -3.25900
C         -4.43500        4.22680       -2.26390
C         -3.71240        3.93990       -1.10230
C         -3.11830        2.69220       -0.93800
C         -5.06660        5.56110       -2.45250
C          1.73300        0.38190       -3.66100
H          1.17880       -1.31430        2.23060
H          2.43760       -1.26870        4.34710
H          4.55430        0.01510        4.52600
H          5.41200        1.27090        2.56430
H          4.15470        1.27110        0.43410
H         -4.08590        1.25110       -3.88270
H         -5.12160        3.46990       -4.16480
H         -3.61180        4.69290       -0.32350
H         -2.55930        2.48780       -0.01460
H         -5.05130        6.17700       -1.54250
H         -6.12020        5.47550       -2.75980
H         -4.54930        6.13810       -3.23610
H          1.09240       -0.26040       -4.29530
H          2.79210        0.09940       -3.81710
H          1.59690        1.43080       -3.98130
