rmsd98.gzmat
 OpenBabel08211713403D

 39 42  0  0  0  0  0  0  0  0999 V2000
    0.0000    0.0000    0.0000 S   0  0  1  0  0  0  0  0  0  0  0  0
    1.8201    0.0000    0.0000 N   0  0  0  0  0  0  0  0  0  0  0  0
    2.5763    0.0000    1.1911 C   0  0  0  0  0  0  0  0  0  0  0  0
    2.0942    0.7064    2.3043 C   0  0  0  0  0  0  0  0  0  0  0  0
    2.8218    0.6889    3.4903 C   0  0  0  0  0  0  0  0  0  0  0  0
    4.0224   -0.0130    3.5771 C   0  0  0  0  0  0  0  0  0  0  0  0
    4.5043   -0.7002    2.4643 C   0  0  0  0  0  0  0  0  0  0  0  0
    3.7903   -0.7006    1.2711 C   0  0  0  0  0  0  0  0  0  0  0  0
    2.3951   -0.0818   -1.2486 C   0  0  0  0  0  0  0  0  0  0  0  0
    3.5620   -0.1480   -1.5547 O   0  0  0  0  0  0  0  0  0  0  0  0
    1.3713   -0.0780   -2.2640 N   0  0  0  0  0  0  0  0  0  0  0  0
    0.0806   -0.0048   -1.8325 C   0  0  0  0  0  0  0  0  0  0  0  0
   -0.9862    0.0152   -2.5864 N   0  0  0  0  0  0  0  0  0  0  0  0
   -2.4751    0.0920   -1.7388 S   0  0  1  0  0  0  0  0  0  0  0  0
   -1.9432   -0.0617   -0.3196 O   0  0  0  0  0  0  0  0  0  0  0  0
   -3.2514    1.2494   -2.0685 O   0  0  0  0  0  0  0  0  0  0  0  0
   -3.3709   -1.3415   -2.1347 C   0  0  0  0  0  0  0  0  0  0  0  0
   -3.0821   -2.5524   -1.5030 C   0  0  0  0  0  0  0  0  0  0  0  0
   -3.7938   -3.6997   -1.8403 C   0  0  0  0  0  0  0  0  0  0  0  0
   -4.8047   -3.6429   -2.8047 C   0  0  0  0  0  0  0  0  0  0  0  0
   -5.0984   -2.4249   -3.4271 C   0  0  0  0  0  0  0  0  0  0  0  0
   -4.3848   -1.2793   -3.0931 C   0  0  0  0  0  0  0  0  0  0  0  0
   -5.5603   -4.8684   -3.1810 C   0  0  0  0  0  0  0  0  0  0  0  0
    1.7490   -0.0314   -3.6752 C   0  0  0  0  0  0  0  0  0  0  0  0
    1.1713    1.2797    2.2501 H   0  0  0  0  0  0  0  0  0  0  0  0
    2.4505    1.2363    4.3553 H   0  0  0  0  0  0  0  0  0  0  0  0
    4.5830   -0.0212    4.5079 H   0  0  0  0  0  0  0  0  0  0  0  0
    5.4475   -1.2414    2.5270 H   0  0  0  0  0  0  0  0  0  0  0  0
    4.1791   -1.2326    0.4020 H   0  0  0  0  0  0  0  0  0  0  0  0
   -2.3038   -2.6188   -0.7326 H   0  0  0  0  0  0  0  0  0  0  0  0
   -3.5620   -4.6439   -1.3521 H   0  0  0  0  0  0  0  0  0  0  0  0
   -5.8867   -2.3744   -4.1753 H   0  0  0  0  0  0  0  0  0  0  0  0
   -4.6351   -0.3327   -3.5891 H   0  0  0  0  0  0  0  0  0  0  0  0
   -6.6312   -4.6664   -3.3329 H   0  0  0  0  0  0  0  0  0  0  0  0
   -5.4909   -5.6631   -2.4249 H   0  0  0  0  0  0  0  0  0  0  0  0
   -5.1776   -5.2907   -4.1249 H   0  0  0  0  0  0  0  0  0  0  0  0
    0.9776   -0.5245   -4.2966 H   0  0  0  0  0  0  0  0  0  0  0  0
    2.7169   -0.5475   -3.8244 H   0  0  0  0  0  0  0  0  0  0  0  0
    1.8551    1.0148   -4.0153 H   0  0  0  0  0  0  0  0  0  0  0  0
  1 12  1  6  0  0  0
  2  1  1  0  0  0  0
  2  3  1  0  0  0  0
  3  8  2  0  0  0  0
  3  4  1  0  0  0  0
  4  5  2  0  0  0  0
  5  6  1  0  0  0  0
  5 26  1  0  0  0  0
  6 27  1  0  0  0  0
  7 28  1  0  0  0  0
  7  6  2  0  0  0  0
  8  7  1  0  0  0  0
  9  2  1  0  0  0  0
 10  9  2  0  0  0  0
 11 12  1  0  0  0  0
 11  9  1  0  0  0  0
 13 12  2  0  0  0  0
 13 14  1  0  0  0  0
 14 16  1  6  0  0  0
 14 15  1  0  0  0  0
 15  1  1  0  0  0  0
 17 14  1  0  0  0  0
 17 18  2  0  0  0  0
 18 30  1  0  0  0  0
 19 18  1  0  0  0  0
 19 31  1  0  0  0  0
 20 19  2  0  0  0  0
 21 22  2  0  0  0  0
 21 20  1  0  0  0  0
 22 17  1  0  0  0  0
 23 20  1  0  0  0  0
 23 35  1  0  0  0  0
 24 11  1  0  0  0  0
 25  4  1  0  0  0  0
 29  8  1  0  0  0  0
 32 21  1  0  0  0  0
 33 22  1  0  0  0  0
 34 23  1  0  0  0  0
 36 23  1  0  0  0  0
 37 24  1  0  0  0  0
 38 24  1  0  0  0  0
 39 24  1  0  0  0  0
M  RAD  1  16   2
M  END
$$$$
