
     RDKit          3D

 39 41  0  0  0  0  0  0  0  0999 V2000
   -0.0036   -0.2629    0.1403 S   0  0  0  0  0  0  0  0  0  0  0  0
    1.7538   -0.1598   -0.0224 N   0  0  0  0  0  0  0  0  0  0  0  0
    2.5530    0.0000    1.1386 C   0  0  0  0  0  0  0  0  0  0  0  0
    3.8839   -0.4495    1.1718 C   0  0  0  0  0  0  0  0  0  0  0  0
    4.6345   -0.2892    2.3367 C   0  0  0  0  0  0  0  0  0  0  0  0
    4.0797    0.2996    3.4763 C   0  0  0  0  0  0  0  0  0  0  0  0
    2.7556    0.7407    3.4403 C   0  0  0  0  0  0  0  0  0  0  0  0
    1.9955    0.6012    2.2783 C   0  0  0  0  0  0  0  0  0  0  0  0
    2.2234   -0.2501   -1.3115 C   0  0  0  0  0  0  0  0  0  0  0  0
    3.3743   -0.2174   -1.6892 O   0  0  0  0  0  0  0  0  0  0  0  0
    1.1220   -0.3904   -2.1842 N   0  0  0  0  0  0  0  0  0  0  0  0
   -0.1223   -0.4017   -1.6323 C   0  0  0  0  0  0  0  0  0  0  0  0
   -1.1786   -0.5026   -2.3696 N   0  0  0  0  0  0  0  0  0  0  0  0
   -2.6786   -0.5078   -1.6328 S   0  0  0  0  0  0  0  0  0  0  0  0
   -3.4602   -1.6112   -2.1756 O   0  0  0  0  0  0  0  0  0  0  0  0
   -2.4645   -0.3926   -0.1662 O   0  0  0  0  0  0  0  0  0  0  0  0
   -3.3768    1.0280   -2.2009 C   0  0  0  0  0  0  0  0  0  0  0  0
   -4.1428    1.0362   -3.3681 C   0  0  0  0  0  0  0  0  0  0  0  0
   -4.6680    2.2462   -3.8177 C   0  0  0  0  0  0  0  0  0  0  0  0
   -4.4404    3.4433   -3.1178 C   0  0  0  0  0  0  0  0  0  0  0  0
   -3.6752    3.3969   -1.9410 C   0  0  0  0  0  0  0  0  0  0  0  0
   -3.1406    2.1965   -1.4747 C   0  0  0  0  0  0  0  0  0  0  0  0
   -4.9915    4.7475   -3.6320 C   0  0  0  0  0  0  0  0  0  0  0  0
    1.3134   -0.5033   -3.6221 C   0  0  0  0  0  0  0  0  0  0  0  0
    4.3226   -0.9031    0.2865 H   0  0  0  0  0  0  0  0  0  0  0  0
    5.6695   -0.6392    2.3509 H   0  0  0  0  0  0  0  0  0  0  0  0
    4.6751    0.4140    4.3846 H   0  0  0  0  0  0  0  0  0  0  0  0
    2.3056    1.2069    4.3199 H   0  0  0  0  0  0  0  0  0  0  0  0
    0.9685    0.9702    2.2574 H   0  0  0  0  0  0  0  0  0  0  0  0
   -4.3273    0.1010   -3.8986 H   0  0  0  0  0  0  0  0  0  0  0  0
   -5.2740    2.2625   -4.7273 H   0  0  0  0  0  0  0  0  0  0  0  0
   -3.5025    4.3164   -1.3759 H   0  0  0  0  0  0  0  0  0  0  0  0
   -2.5589    2.1545   -0.5527 H   0  0  0  0  0  0  0  0  0  0  0  0
   -5.0578    5.5018   -2.8345 H   0  0  0  0  0  0  0  0  0  0  0  0
   -5.9930    4.6164   -4.0691 H   0  0  0  0  0  0  0  0  0  0  0  0
   -4.3424    5.1593   -4.4242 H   0  0  0  0  0  0  0  0  0  0  0  0
    0.8740   -1.4428   -3.9858 H   0  0  0  0  0  0  0  0  0  0  0  0
    2.3934   -0.4831   -3.8070 H   0  0  0  0  0  0  0  0  0  0  0  0
    0.8184    0.3333   -4.1354 H   0  0  0  0  0  0  0  0  0  0  0  0
  1  2  1  0
  1 12  1  0
  2  3  1  0
  2  9  1  0
  3  4  2  0
  3  8  1  0
  4  5  1  0
  4 25  1  0
  5  6  2  0
  5 26  1  0
  6  7  1  0
  6 27  1  0
  7  8  2  0
  7 28  1  0
  8 29  1  0
  9 10  2  0
  9 11  1  0
 11 12  1  0
 11 24  1  0
 12 13  2  0
 14 13  1  0
 14 15  2  0
 14 16  2  0
 14 17  1  0
 17 18  2  0
 17 22  1  0
 18 19  1  0
 18 30  1  0
 19 20  2  0
 19 31  1  0
 20 21  1  0
 20 23  1  0
 21 22  2  0
 21 32  1  0
 22 33  1  0
 23 34  1  0
 23 35  1  0
 23 36  1  0
 24 37  1  0
 24 38  1  0
 24 39  1  0
M  END

