
     RDKit          3D

 39 41  0  0  0  0  0  0  0  0999 V2000
   -0.0021    0.2670    0.1005 S   0  0  0  0  0  0  0  0  0  0  0  0
    1.7581    0.1639   -0.0295 N   0  0  0  0  0  0  0  0  0  0  0  0
    2.5355    0.0033    1.1461 C   0  0  0  0  0  0  0  0  0  0  0  0
    1.9570   -0.5987    2.2747 C   0  0  0  0  0  0  0  0  0  0  0  0
    2.6952   -0.7389    3.4506 C   0  0  0  0  0  0  0  0  0  0  0  0
    4.0185   -0.2977    3.5115 C   0  0  0  0  0  0  0  0  0  0  0  0
    4.5943    0.2919    2.3829 C   0  0  0  0  0  0  0  0  0  0  0  0
    3.8655    0.4529    1.2043 C   0  0  0  0  0  0  0  0  0  0  0  0
    2.2515    0.2547   -1.3097 C   0  0  0  0  0  0  0  0  0  0  0  0
    3.4092    0.2221   -1.6659 O   0  0  0  0  0  0  0  0  0  0  0  0
    1.1665    0.3955   -2.2026 N   0  0  0  0  0  0  0  0  0  0  0  0
   -0.0878    0.4066   -1.6739 C   0  0  0  0  0  0  0  0  0  0  0  0
   -1.1303    0.5080   -2.4306 N   0  0  0  0  0  0  0  0  0  0  0  0
   -2.6437    0.5125   -1.7218 S   0  0  0  0  0  0  0  0  0  0  0  0
   -2.4568    0.3971   -0.2514 O   0  0  0  0  0  0  0  0  0  0  0  0
   -3.4155    1.6157   -2.2787 O   0  0  0  0  0  0  0  0  0  0  0  0
   -3.3314   -1.0234   -2.3023 C   0  0  0  0  0  0  0  0  0  0  0  0
   -3.1037   -2.1928   -1.5745 C   0  0  0  0  0  0  0  0  0  0  0  0
   -3.6245   -3.3941   -2.0533 C   0  0  0  0  0  0  0  0  0  0  0  0
   -4.3710   -3.4400   -3.2424 C   0  0  0  0  0  0  0  0  0  0  0  0
   -4.5850   -2.2435   -3.9470 C   0  0  0  0  0  0  0  0  0  0  0  0
   -4.0731   -1.0323   -3.4847 C   0  0  0  0  0  0  0  0  0  0  0  0
   -4.9595   -4.7364   -3.7344 C   0  0  0  0  0  0  0  0  0  0  0  0
    1.3845    0.5087   -3.6367 C   0  0  0  0  0  0  0  0  0  0  0  0
    0.9306   -0.9678    2.2345 H   0  0  0  0  0  0  0  0  0  0  0  0
    2.2291   -1.2058    4.3213 H   0  0  0  0  0  0  0  0  0  0  0  0
    4.5968   -0.4127    4.4307 H   0  0  0  0  0  0  0  0  0  0  0  0
    5.6288    0.6420    2.4166 H   0  0  0  0  0  0  0  0  0  0  0  0
    4.3206    0.9072    0.3277 H   0  0  0  0  0  0  0  0  0  0  0  0
   -2.5340   -2.1517   -0.6450 H   0  0  0  0  0  0  0  0  0  0  0  0
   -3.4525   -4.3154   -1.4910 H   0  0  0  0  0  0  0  0  0  0  0  0
   -5.1661   -2.2617   -4.8726 H   0  0  0  0  0  0  0  0  0  0  0  0
   -4.2447   -0.0978   -4.0209 H   0  0  0  0  0  0  0  0  0  0  0  0
   -4.9886   -4.7742   -4.8337 H   0  0  0  0  0  0  0  0  0  0  0  0
   -5.9971   -4.8531   -3.3764 H   0  0  0  0  0  0  0  0  0  0  0  0
   -4.3879   -5.6035   -3.3724 H   0  0  0  0  0  0  0  0  0  0  0  0
    0.8989   -0.3278   -4.1593 H   0  0  0  0  0  0  0  0  0  0  0  0
    2.4678    0.4883   -3.8016 H   0  0  0  0  0  0  0  0  0  0  0  0
    0.9521    1.4483   -4.0083 H   0  0  0  0  0  0  0  0  0  0  0  0
  1  2  1  0
  1 12  1  0
  2  3  1  0
  2  9  1  0
  3  4  2  0
  3  8  1  0
  4  5  1  0
  4 25  1  0
  5  6  2  0
  5 26  1  0
  6  7  1  0
  6 27  1  0
  7  8  2  0
  7 28  1  0
  8 29  1  0
  9 10  2  0
  9 11  1  0
 11 12  1  0
 11 24  1  0
 12 13  2  0
 14 13  1  0
 14 15  2  0
 14 16  2  0
 14 17  1  0
 17 18  2  0
 17 22  1  0
 18 19  1  0
 18 30  1  0
 19 20  2  0
 19 31  1  0
 20 21  1  0
 20 23  1  0
 21 22  2  0
 21 32  1  0
 22 33  1  0
 23 34  1  0
 23 35  1  0
 23 36  1  0
 24 37  1  0
 24 38  1  0
 24 39  1  0
M  END

