39
rmsd31.gzmat
S          0.00000        0.00000        0.00000
N          1.82210        0.00000        0.00000
C          2.57020        0.00000        1.19630
C          3.77150       -0.71960        1.29770
C          4.47540       -0.71480        2.49680
C          3.99430       -0.00750        3.59750
C          2.80500        0.71050        3.49110
C          2.09040        0.72780        2.29700
C          2.39500       -0.20280       -1.23710
O          3.56220       -0.26770       -1.54240
N          1.37000       -0.31730       -2.24340
C          0.07850       -0.24270       -1.81550
N         -0.98790       -0.31740       -2.56710
S         -2.47850       -0.24640       -1.72310
O         -3.29330       -1.40750       -1.92070
O         -1.94160        0.05050       -0.32850
C         -3.33000        1.16210       -2.27770
C         -4.37310        1.02460       -3.19590
C         -5.07150        2.14620       -3.63020
C         -4.73350        3.41560       -3.14920
C         -3.68430        3.54990       -2.23470
C         -2.98730        2.42740       -1.79830
C         -5.48620        4.61180       -3.61500
C          1.73810       -0.47690       -3.64900
H          4.15870       -1.27220        0.44060
H          5.40990       -1.26980        2.57320
H          4.54620       -0.01400        4.53350
H          2.42940        1.26800        4.34750
H          1.17730        1.31370        2.22870
H         -4.66150        0.03710       -3.57840
H         -5.88630        2.03510       -4.34290
H         -3.41350        4.53420       -1.85800
H         -2.17890        2.55760       -1.06830
H         -5.39520        5.46710       -2.93030
H         -6.56180        4.40910       -3.72850
H         -5.11930        4.94930       -4.59820
H          1.00300       -1.12170       -4.16760
H          2.74160       -0.93740       -3.73020
H          1.76230        0.50410       -4.15650
