
     RDKit          3D

 39 41  0  0  0  0  0  0  0  0999 V2000
    0.0523   -0.1735    0.0737 S   0  0  0  0  0  0  0  0  0  0  0  0
    1.8054    0.0350   -0.0129 N   0  0  0  0  0  0  0  0  0  0  0  0
    2.5669    0.0458    1.1841 C   0  0  0  0  0  0  0  0  0  0  0  0
    2.0757   -0.6213    2.3174 C   0  0  0  0  0  0  0  0  0  0  0  0
    2.7964   -0.5964    3.5121 C   0  0  0  0  0  0  0  0  0  0  0  0
    4.0173    0.0770    3.5877 C   0  0  0  0  0  0  0  0  0  0  0  0
    4.5080    0.7313    2.4544 C   0  0  0  0  0  0  0  0  0  0  0  0
    3.7928    0.7284    1.2566 C   0  0  0  0  0  0  0  0  0  0  0  0
    2.3140    0.1528   -1.2848 C   0  0  0  0  0  0  0  0  0  0  0  0
    3.4704    0.3041   -1.6133 O   0  0  0  0  0  0  0  0  0  0  0  0
    1.2469    0.0737   -2.2064 N   0  0  0  0  0  0  0  0  0  0  0  0
   -0.0087   -0.0856   -1.7051 C   0  0  0  0  0  0  0  0  0  0  0  0
   -1.0366   -0.1465   -2.4857 N   0  0  0  0  0  0  0  0  0  0  0  0
   -2.5542   -0.3225   -1.8082 S   0  0  0  0  0  0  0  0  0  0  0  0
   -3.2580   -1.3863   -2.5125 O   0  0  0  0  0  0  0  0  0  0  0  0
   -2.3882   -0.3848   -0.3321 O   0  0  0  0  0  0  0  0  0  0  0  0
   -3.3207    1.2352   -2.2007 C   0  0  0  0  0  0  0  0  0  0  0  0
   -4.0508    1.3547   -3.3835 C   0  0  0  0  0  0  0  0  0  0  0  0
   -4.6254    2.5863   -3.6967 C   0  0  0  0  0  0  0  0  0  0  0  0
   -4.4844    3.6923   -2.8432 C   0  0  0  0  0  0  0  0  0  0  0  0
   -3.7466    3.5353   -1.6571 C   0  0  0  0  0  0  0  0  0  0  0  0
   -3.1646    2.3134   -1.3264 C   0  0  0  0  0  0  0  0  0  0  0  0
   -5.1362    5.0103   -3.1703 C   0  0  0  0  0  0  0  0  0  0  0  0
    1.4831    0.1718   -3.6387 C   0  0  0  0  0  0  0  0  0  0  0  0
    1.1344   -1.1713    2.2656 H   0  0  0  0  0  0  0  0  0  0  0  0
    2.3996   -1.1182    4.3859 H   0  0  0  0  0  0  0  0  0  0  0  0
    4.5830    0.0906    4.5217 H   0  0  0  0  0  0  0  0  0  0  0  0
    5.4623    1.2613    2.4994 H   0  0  0  0  0  0  0  0  0  0  0  0
    4.1824    1.2333    0.3760 H   0  0  0  0  0  0  0  0  0  0  0  0
   -4.1659    0.4886   -4.0367 H   0  0  0  0  0  0  0  0  0  0  0  0
   -5.1986    2.6910   -4.6214 H   0  0  0  0  0  0  0  0  0  0  0  0
   -3.6313    4.3853   -0.9796 H   0  0  0  0  0  0  0  0  0  0  0  0
   -2.6020    2.1846   -0.4005 H   0  0  0  0  0  0  0  0  0  0  0  0
   -4.5076    5.8585   -2.8595 H   0  0  0  0  0  0  0  0  0  0  0  0
   -6.1004    5.1092   -2.6421 H   0  0  0  0  0  0  0  0  0  0  0  0
   -5.3395    5.1053   -4.2469 H   0  0  0  0  0  0  0  0  0  0  0  0
    1.1240   -0.7373   -4.1413 H   0  0  0  0  0  0  0  0  0  0  0  0
    2.5632    0.2908   -3.7807 H   0  0  0  0  0  0  0  0  0  0  0  0
    0.9409    1.0342   -4.0518 H   0  0  0  0  0  0  0  0  0  0  0  0
  1  2  1  0
  1 12  1  0
  2  3  1  0
  2  9  1  0
  3  4  2  0
  3  8  1  0
  4  5  1  0
  4 25  1  0
  5  6  2  0
  5 26  1  0
  6  7  1  0
  6 27  1  0
  7  8  2  0
  7 28  1  0
  8 29  1  0
  9 10  2  0
  9 11  1  0
 11 12  1  0
 11 24  1  0
 12 13  2  0
 14 13  1  0
 14 15  2  0
 14 16  2  0
 14 17  1  0
 17 18  2  0
 17 22  1  0
 18 19  1  0
 18 30  1  0
 19 20  2  0
 19 31  1  0
 20 21  1  0
 20 23  1  0
 21 22  2  0
 21 32  1  0
 22 33  1  0
 23 34  1  0
 23 35  1  0
 23 36  1  0
 24 37  1  0
 24 38  1  0
 24 39  1  0
M  END

