39
rmsd98.gzmat
S          0.00000        0.00000        0.00000
N          1.82010        0.00000        0.00000
C          2.57630        0.00000        1.19110
C          2.09420        0.70640        2.30430
C          2.82180        0.68890        3.49030
C          4.02240       -0.01300        3.57710
C          4.50430       -0.70020        2.46430
C          3.79030       -0.70060        1.27110
C          2.39510       -0.08180       -1.24860
O          3.56200       -0.14800       -1.55470
N          1.37130       -0.07800       -2.26400
C          0.08060       -0.00480       -1.83250
N         -0.98620        0.01520       -2.58640
S         -2.47510        0.09200       -1.73880
O         -1.94320       -0.06170       -0.31960
O         -3.25140        1.24940       -2.06850
C         -3.37090       -1.34150       -2.13470
C         -3.08210       -2.55240       -1.50300
C         -3.79380       -3.69970       -1.84030
C         -4.80470       -3.64290       -2.80470
C         -5.09840       -2.42490       -3.42710
C         -4.38480       -1.27930       -3.09310
C         -5.56030       -4.86840       -3.18100
C          1.74900       -0.03140       -3.67520
H          1.17130        1.27970        2.25010
H          2.45050        1.23630        4.35530
H          4.58300       -0.02120        4.50790
H          5.44750       -1.24140        2.52700
H          4.17910       -1.23260        0.40200
H         -2.30380       -2.61880       -0.73260
H         -3.56200       -4.64390       -1.35210
H         -5.88670       -2.37440       -4.17530
H         -4.63510       -0.33270       -3.58910
H         -6.63120       -4.66640       -3.33290
H         -5.49090       -5.66310       -2.42490
H         -5.17760       -5.29070       -4.12490
H          0.97760       -0.52450       -4.29660
H          2.71690       -0.54750       -3.82440
H          1.85510        1.01480       -4.01530
