26

C         -0.15030       -0.10030       -0.04850
O          1.02750        0.07720       -0.24390
O         -1.02200       -0.35930       -1.04280
C         -0.81460       -0.03070        1.32590
H         -1.66990       -0.72630        1.32160
N          0.09640       -0.40170        2.39640
C         -1.34830        1.39420        1.57270
C         -2.50140        1.82960        0.67110
C         -2.97690        3.25510        0.98920
C         -4.11380        3.71090        0.11190
C         -5.38010        3.84260        0.53540
C         -3.75150        4.00520       -1.30750
O         -2.62650        3.92640       -1.74870
O         -4.79500        4.37710       -2.07730
H         -0.52090       -0.32400       -1.87680
H          0.95070        0.15150        2.29850
H          0.39410       -1.37060        2.27820
H         -0.50540        2.10160        1.46970
H         -1.65310        1.42550        2.63130
H         -3.34720        1.12970        0.78780
H         -2.20040        1.78260       -0.38470
H         -2.12730        3.94580        0.85880
H         -3.29060        3.31650        2.04370
H         -5.64590        3.63320        1.57540
H         -6.17560        4.16240       -0.13920
H         -4.43250        4.54410       -2.96330
