
     RDKit          3D

 26 25  0  0  0  0  0  0  0  0999 V2000
   -0.0558    0.3600    0.3111 C   0  0  0  0  0  0  0  0  0  0  0  0
    0.9307    1.0067    0.5615 O   0  0  0  0  0  0  0  0  0  0  0  0
   -0.2848   -0.1617   -0.9172 O   0  0  0  0  0  0  0  0  0  0  0  0
   -1.1595   -0.0030    1.3007 C   0  0  1  0  0  0  0  0  0  0  0  0
   -1.0627    0.7231    2.1233 H   0  0  0  0  0  0  0  0  0  0  0  0
   -2.5093    0.0728    0.7607 N   0  0  0  0  0  0  0  0  0  0  0  0
   -0.9004   -1.4113    1.8632 C   0  0  0  0  0  0  0  0  0  0  0  0
    0.4080   -1.5578    2.6374 C   0  0  0  0  0  0  0  0  0  0  0  0
    0.5976   -2.9778    3.1920 C   0  0  0  0  0  0  0  0  0  0  0  0
    1.8699   -3.1389    3.9829 C   0  0  0  0  0  0  0  0  0  0  0  0
    2.9538   -3.7896    3.5343 C   0  0  0  0  0  0  0  0  0  0  0  0
    1.8687   -2.5000    5.3337 C   0  0  0  0  0  0  0  0  0  0  0  0
    0.9126   -1.9298    5.8098 O   0  0  0  0  0  0  0  0  0  0  0  0
    3.0371   -2.6131    5.9983 O   0  0  0  0  0  0  0  0  0  0  0  0
    0.4734    0.0915   -1.4710 H   0  0  0  0  0  0  0  0  0  0  0  0
   -2.5879   -0.5390   -0.0526 H   0  0  0  0  0  0  0  0  0  0  0  0
   -2.7094    1.0155    0.4272 H   0  0  0  0  0  0  0  0  0  0  0  0
   -0.9299   -2.1338    1.0271 H   0  0  0  0  0  0  0  0  0  0  0  0
   -1.7578   -1.6487    2.5133 H   0  0  0  0  0  0  0  0  0  0  0  0
    0.4194   -0.8406    3.4732 H   0  0  0  0  0  0  0  0  0  0  0  0
    1.2681   -1.3029    1.9965 H   0  0  0  0  0  0  0  0  0  0  0  0
    0.5978   -3.7017    2.3611 H   0  0  0  0  0  0  0  0  0  0  0  0
   -0.2596   -3.2214    3.8408 H   0  0  0  0  0  0  0  0  0  0  0  0
    2.9533   -4.2633    2.5486 H   0  0  0  0  0  0  0  0  0  0  0  0
    3.8608   -3.8665    4.1358 H   0  0  0  0  0  0  0  0  0  0  0  0
    2.9078   -2.1667    6.8517 H   0  0  0  0  0  0  0  0  0  0  0  0
  1  2  2  0
  1  3  1  0
  1  4  1  0
  3 15  1  0
  4  5  1  1
  4  6  1  0
  4  7  1  0
  6 16  1  0
  6 17  1  0
  7  8  1  0
  7 18  1  0
  7 19  1  0
  8  9  1  0
  8 20  1  0
  8 21  1  0
  9 10  1  0
  9 22  1  0
  9 23  1  0
 10 11  2  3
 10 12  1  0
 11 24  1  0
 11 25  1  0
 12 13  2  0
 12 14  1  0
 14 26  1  0
M  END

