rmsd196.gzmat
 OpenBabel08211713423D

 26 25  0  0  1  0  0  0  0  0999 V2000
    0.0000    0.0000    0.0000 C   0  0  0  0  0  0  0  0  0  0  0  0
    1.2019    0.0000    0.0000 O   0  0  0  0  0  0  0  0  0  0  0  0
   -0.7094    0.0000   -1.1531 O   0  0  0  0  0  0  0  0  0  0  0  0
   -0.9293   -0.0342    1.2102 C   0  0  1  0  0  0  0  0  0  0  0  0
   -1.8624   -0.6082    0.9551 H   0  0  0  0  0  0  0  0  0  0  0  0
   -0.2798   -0.6881    2.3521 N   0  0  0  0  0  0  0  0  0  0  0  0
   -1.2936    1.4145    1.5916 C   0  0  0  0  0  0  0  0  0  0  0  0
   -2.2267    2.0408    0.5541 C   0  0  0  0  0  0  0  0  0  0  0  0
   -2.5654    3.4890    0.9413 C   0  0  0  0  0  0  0  0  0  0  0  0
   -3.4873    4.0853   -0.0709 C   0  0  0  0  0  0  0  0  0  0  0  0
   -4.7834    4.3254    0.1436 C   0  0  0  0  0  0  0  0  0  0  0  0
   -2.9191    4.4134   -1.3958 C   0  0  0  0  0  0  0  0  0  0  0  0
   -3.5112    4.6201   -2.4247 O   0  0  0  0  0  0  0  0  0  0  0  0
   -1.5616    4.4814   -1.3649 O   0  0  0  0  0  0  0  0  0  0  0  0
   -0.1532    0.0380   -1.9708 H   0  0  0  0  0  0  0  0  0  0  0  0
    0.5771   -0.2274    2.6240 H   0  0  0  0  0  0  0  0  0  0  0  0
   -0.0901   -1.6635    2.1834 H   0  0  0  0  0  0  0  0  0  0  0  0
   -0.3788    2.0263    1.7130 H   0  0  0  0  0  0  0  0  0  0  0  0
   -1.7798    1.4025    2.5905 H   0  0  0  0  0  0  0  0  0  0  0  0
   -3.1552    1.4461    0.4596 H   0  0  0  0  0  0  0  0  0  0  0  0
   -1.7547    2.0247   -0.4509 H   0  0  0  0  0  0  0  0  0  0  0  0
   -1.6311    4.0905    1.0117 H   0  0  0  0  0  0  0  0  0  0  0  0
   -3.0129    3.5170    1.9551 H   0  0  0  0  0  0  0  0  0  0  0  0
   -5.2855    4.1172    1.0778 H   0  0  0  0  0  0  0  0  0  0  0  0
   -5.4419    4.7465   -0.6089 H   0  0  0  0  0  0  0  0  0  0  0  0
   -1.1647    4.7181   -2.2408 H   0  0  0  0  0  0  0  0  0  0  0  0
  1  2  2  0  0  0  0
  1  4  1  0  0  0  0
  3  1  1  0  0  0  0
  4  5  1  6  0  0  0
  4  7  1  0  0  0  0
  4  6  1  0  0  0  0
  6 16  1  0  0  0  0
  7 18  1  0  0  0  0
  7 19  1  0  0  0  0
  8  9  1  0  0  0  0
  8  7  1  0  0  0  0
  9 22  1  0  0  0  0
  9 23  1  0  0  0  0
 10 11  2  0  0  0  0
 10  9  1  0  0  0  0
 11 24  1  0  0  0  0
 12 14  1  0  0  0  0
 12 10  1  0  0  0  0
 13 12  2  0  0  0  0
 15  3  1  0  0  0  0
 17  6  1  0  0  0  0
 20  8  1  0  0  0  0
 21  8  1  0  0  0  0
 25 11  1  0  0  0  0
 26 14  1  0  0  0  0
M  END
$$$$
