26
rmsd96.gzmat
C          0.00000        0.00000        0.00000
O          1.20240        0.00000        0.00000
O         -0.70270        0.00000       -1.15710
C         -0.92500       -0.03330        1.21330
H         -1.81020       -0.69250        0.99410
N         -0.22460       -0.57530        2.38370
C         -1.40030        1.40080        1.51960
C         -2.52260        1.83070        0.57210
C         -2.92640        3.28580        0.85930
C         -4.14140        3.65280        0.06980
C         -4.11890        4.26330       -1.11610
C         -5.41800        3.30100        0.72570
O         -5.67200        3.26470        1.90210
O         -6.37530        2.99480       -0.19160
H         -0.13740        0.01280       -1.96960
H          0.58320       -0.02560        2.63900
H          0.06150       -1.53340        2.25430
H         -0.55340        2.11100        1.47450
H         -1.76200        1.43350        2.57240
H         -3.39860        1.16230        0.69000
H         -2.20920        1.72460       -0.48590
H         -2.08360        3.96770        0.62690
H         -3.12020        3.41740        1.94860
H         -3.20750        4.55830       -1.61740
H         -5.01240        4.50940       -1.67830
H         -7.24510        2.75640        0.21430
