26

C         -0.01280        0.05340       -0.00350
O          1.19460        0.00870        0.03110
O         -0.70080        0.21470       -1.14950
C         -0.91770        0.00140        1.22300
H         -1.80970       -0.59040        0.95590
N         -0.26580       -0.61130        2.36680
C         -1.38000        1.42920        1.60600
C         -2.37380        2.12940        0.64880
C         -1.90510        3.45640        0.00500
C         -0.95210        3.30630       -1.15510
C         -1.31480        3.44670       -2.43870
C          0.46760        3.00580       -0.80730
O          0.96910        3.24140        0.26660
O          1.16000        2.40300       -1.80350
H         -0.05640        0.43150       -1.84840
H          0.61100       -0.11590        2.54240
H          0.01360       -1.56510        2.13590
H         -0.48300        2.05030        1.75410
H         -1.83750        1.30930        2.59890
H         -3.28820        2.36250        1.21690
H         -2.68290        1.44320       -0.15460
H         -1.43410        4.08840        0.77530
H         -2.79450        3.99360       -0.35790
H         -2.34300        3.70670       -2.70520
H         -0.59820        3.31670       -3.25170
H          2.02750        2.17020       -1.42710
