26
rmsd196.gzmat
C          0.00000        0.00000        0.00000
O          1.20190        0.00000        0.00000
O         -0.70940        0.00000       -1.15310
C         -0.92930       -0.03420        1.21020
H         -1.86240       -0.60820        0.95510
N         -0.27980       -0.68810        2.35210
C         -1.29360        1.41450        1.59160
C         -2.22670        2.04080        0.55410
C         -2.56540        3.48900        0.94130
C         -3.48730        4.08530       -0.07090
C         -4.78340        4.32540        0.14360
C         -2.91910        4.41340       -1.39580
O         -3.51120        4.62010       -2.42470
O         -1.56160        4.48140       -1.36490
H         -0.15320        0.03800       -1.97080
H          0.57710       -0.22740        2.62400
H         -0.09010       -1.66350        2.18340
H         -0.37880        2.02630        1.71300
H         -1.77980        1.40250        2.59050
H         -3.15520        1.44610        0.45960
H         -1.75470        2.02470       -0.45090
H         -1.63110        4.09050        1.01170
H         -3.01290        3.51700        1.95510
H         -5.28550        4.11720        1.07780
H         -5.44190        4.74650       -0.60890
H         -1.16470        4.71810       -2.24080
