
     RDKit          3D

 26 25  0  0  0  0  0  0  0  0999 V2000
   -0.1503   -0.1003   -0.0485 C   0  0  0  0  0  0  0  0  0  0  0  0
    1.0275    0.0772   -0.2439 O   0  0  0  0  0  0  0  0  0  0  0  0
   -1.0220   -0.3593   -1.0428 O   0  0  0  0  0  0  0  0  0  0  0  0
   -0.8146   -0.0307    1.3259 C   0  0  1  0  0  0  0  0  0  0  0  0
   -1.6699   -0.7263    1.3216 H   0  0  0  0  0  0  0  0  0  0  0  0
    0.0964   -0.4017    2.3964 N   0  0  0  0  0  0  0  0  0  0  0  0
   -1.3483    1.3942    1.5727 C   0  0  0  0  0  0  0  0  0  0  0  0
   -2.5014    1.8296    0.6711 C   0  0  0  0  0  0  0  0  0  0  0  0
   -2.9769    3.2551    0.9892 C   0  0  0  0  0  0  0  0  0  0  0  0
   -4.1138    3.7109    0.1119 C   0  0  0  0  0  0  0  0  0  0  0  0
   -5.3801    3.8426    0.5354 C   0  0  0  0  0  0  0  0  0  0  0  0
   -3.7515    4.0052   -1.3075 C   0  0  0  0  0  0  0  0  0  0  0  0
   -2.6265    3.9264   -1.7487 O   0  0  0  0  0  0  0  0  0  0  0  0
   -4.7950    4.3771   -2.0773 O   0  0  0  0  0  0  0  0  0  0  0  0
   -0.5209   -0.3240   -1.8768 H   0  0  0  0  0  0  0  0  0  0  0  0
    0.9507    0.1515    2.2985 H   0  0  0  0  0  0  0  0  0  0  0  0
    0.3941   -1.3706    2.2782 H   0  0  0  0  0  0  0  0  0  0  0  0
   -0.5054    2.1016    1.4697 H   0  0  0  0  0  0  0  0  0  0  0  0
   -1.6531    1.4255    2.6313 H   0  0  0  0  0  0  0  0  0  0  0  0
   -3.3472    1.1297    0.7878 H   0  0  0  0  0  0  0  0  0  0  0  0
   -2.2004    1.7826   -0.3847 H   0  0  0  0  0  0  0  0  0  0  0  0
   -2.1273    3.9458    0.8588 H   0  0  0  0  0  0  0  0  0  0  0  0
   -3.2906    3.3165    2.0437 H   0  0  0  0  0  0  0  0  0  0  0  0
   -5.6459    3.6332    1.5754 H   0  0  0  0  0  0  0  0  0  0  0  0
   -6.1756    4.1624   -0.1392 H   0  0  0  0  0  0  0  0  0  0  0  0
   -4.4325    4.5441   -2.9633 H   0  0  0  0  0  0  0  0  0  0  0  0
  1  2  2  0
  1  3  1  0
  1  4  1  0
  3 15  1  0
  4  5  1  6
  4  6  1  0
  4  7  1  0
  6 16  1  0
  6 17  1  0
  7  8  1  0
  7 18  1  0
  7 19  1  0
  8  9  1  0
  8 20  1  0
  8 21  1  0
  9 10  1  0
  9 22  1  0
  9 23  1  0
 10 11  2  3
 10 12  1  0
 11 24  1  0
 11 25  1  0
 12 13  2  0
 12 14  1  0
 14 26  1  0
M  END

