26
rmsd10.gzmat
C          0.00000        0.00000        0.00000
O          1.20260        0.00000        0.00000
O         -0.69740        0.00000       -1.16200
C         -0.94310       -0.05150        1.19950
H         -2.00570       -0.16630        0.84940
N         -0.61050       -1.19800        2.05300
C         -0.78900        1.24870        2.01380
C         -1.56860        2.42160        1.41680
C         -0.83860        3.11580        0.25570
C          0.41220        3.79280        0.71850
C          1.64170        3.31040        0.52480
C          0.18740        5.05960        1.44300
O         -0.79930        5.43060        2.02710
O          1.28650        5.86170        1.39370
H         -0.13500        0.00630       -1.97480
H          0.33920       -1.17170        2.39210
H         -0.79240       -2.08420        1.61300
H          0.28120        1.51000        2.13170
H         -1.15600        1.05190        3.04660
H         -1.77120        3.17210        2.21360
H         -2.56800        2.08800        1.07710
H         -1.52430        3.85950       -0.20850
H         -0.62140        2.38820       -0.55160
H          1.84600        2.37500        0.01500
H          2.54200        3.81130        0.86240
H          1.16610        6.71990        1.86970
