
     RDKit          3D

 26 25  0  0  0  0  0  0  0  0999 V2000
   -0.0128    0.0534   -0.0035 C   0  0  0  0  0  0  0  0  0  0  0  0
    1.1946    0.0087    0.0311 O   0  0  0  0  0  0  0  0  0  0  0  0
   -0.7008    0.2147   -1.1495 O   0  0  0  0  0  0  0  0  0  0  0  0
   -0.9177    0.0014    1.2230 C   0  0  1  0  0  0  0  0  0  0  0  0
   -1.8097   -0.5904    0.9559 H   0  0  0  0  0  0  0  0  0  0  0  0
   -0.2658   -0.6113    2.3668 N   0  0  0  0  0  0  0  0  0  0  0  0
   -1.3800    1.4292    1.6060 C   0  0  0  0  0  0  0  0  0  0  0  0
   -2.3738    2.1294    0.6488 C   0  0  0  0  0  0  0  0  0  0  0  0
   -1.9051    3.4564    0.0050 C   0  0  0  0  0  0  0  0  0  0  0  0
   -0.9521    3.3063   -1.1551 C   0  0  0  0  0  0  0  0  0  0  0  0
   -1.3148    3.4467   -2.4387 C   0  0  0  0  0  0  0  0  0  0  0  0
    0.4676    3.0058   -0.8073 C   0  0  0  0  0  0  0  0  0  0  0  0
    0.9691    3.2414    0.2666 O   0  0  0  0  0  0  0  0  0  0  0  0
    1.1600    2.4030   -1.8035 O   0  0  0  0  0  0  0  0  0  0  0  0
   -0.0564    0.4315   -1.8484 H   0  0  0  0  0  0  0  0  0  0  0  0
    0.6110   -0.1159    2.5424 H   0  0  0  0  0  0  0  0  0  0  0  0
    0.0136   -1.5651    2.1359 H   0  0  0  0  0  0  0  0  0  0  0  0
   -0.4830    2.0503    1.7541 H   0  0  0  0  0  0  0  0  0  0  0  0
   -1.8375    1.3093    2.5989 H   0  0  0  0  0  0  0  0  0  0  0  0
   -3.2882    2.3625    1.2169 H   0  0  0  0  0  0  0  0  0  0  0  0
   -2.6829    1.4432   -0.1546 H   0  0  0  0  0  0  0  0  0  0  0  0
   -1.4341    4.0884    0.7753 H   0  0  0  0  0  0  0  0  0  0  0  0
   -2.7945    3.9936   -0.3579 H   0  0  0  0  0  0  0  0  0  0  0  0
   -2.3430    3.7067   -2.7052 H   0  0  0  0  0  0  0  0  0  0  0  0
   -0.5982    3.3167   -3.2517 H   0  0  0  0  0  0  0  0  0  0  0  0
    2.0275    2.1702   -1.4271 H   0  0  0  0  0  0  0  0  0  0  0  0
  1  2  2  0
  1  3  1  0
  1  4  1  0
  3 15  1  0
  4  5  1  6
  4  6  1  0
  4  7  1  0
  6 16  1  0
  6 17  1  0
  7  8  1  0
  7 18  1  0
  7 19  1  0
  8  9  1  0
  8 20  1  0
  8 21  1  0
  9 10  1  0
  9 22  1  0
  9 23  1  0
 10 11  2  3
 10 12  1  0
 11 24  1  0
 11 25  1  0
 12 13  2  0
 12 14  1  0
 14 26  1  0
M  END

