rmsd74.gzmat
 OpenBabel08211713423D

 26 25  0  0  1  0  0  0  0  0999 V2000
    0.0000    0.0000    0.0000 C   0  0  0  0  0  0  0  0  0  0  0  0
    1.2022    0.0000    0.0000 O   0  0  0  0  0  0  0  0  0  0  0  0
   -0.7045    0.0000   -1.1565 O   0  0  0  0  0  0  0  0  0  0  0  0
   -0.9250   -0.0271    1.2135 C   0  0  1  0  0  0  0  0  0  0  0  0
   -1.8202   -0.6695    0.9886 H   0  0  0  0  0  0  0  0  0  0  0  0
   -0.2373   -0.5879    2.3824 N   0  0  0  0  0  0  0  0  0  0  0  0
   -1.3747    1.4166    1.5196 C   0  0  0  0  0  0  0  0  0  0  0  0
   -2.5212    1.8570    0.6079 C   0  0  0  0  0  0  0  0  0  0  0  0
   -3.8743    1.3318    1.1167 C   0  0  0  0  0  0  0  0  0  0  0  0
   -4.9454    1.5877    0.1048 C   0  0  0  0  0  0  0  0  0  0  0  0
   -5.5040    0.6333   -0.6433 C   0  0  0  0  0  0  0  0  0  0  0  0
   -5.3427    3.0049   -0.0143 C   0  0  0  0  0  0  0  0  0  0  0  0
   -4.8849    3.9633    0.5541 O   0  0  0  0  0  0  0  0  0  0  0  0
   -6.3659    3.1698   -0.8979 O   0  0  0  0  0  0  0  0  0  0  0  0
   -0.1421    0.0344   -1.9702 H   0  0  0  0  0  0  0  0  0  0  0  0
    0.5727   -0.0465    2.6498 H   0  0  0  0  0  0  0  0  0  0  0  0
    0.0447   -1.5458    2.2432 H   0  0  0  0  0  0  0  0  0  0  0  0
   -0.5212    2.1161    1.4303 H   0  0  0  0  0  0  0  0  0  0  0  0
   -1.6862    1.4768    2.5855 H   0  0  0  0  0  0  0  0  0  0  0  0
   -2.3467    1.5170   -0.4330 H   0  0  0  0  0  0  0  0  0  0  0  0
   -2.5551    2.9662    0.5567 H   0  0  0  0  0  0  0  0  0  0  0  0
   -4.1278    1.8277    2.0797 H   0  0  0  0  0  0  0  0  0  0  0  0
   -3.8032    0.2510    1.3538 H   0  0  0  0  0  0  0  0  0  0  0  0
   -5.2275   -0.4105   -0.5813 H   0  0  0  0  0  0  0  0  0  0  0  0
   -6.2781    0.8247   -1.3779 H   0  0  0  0  0  0  0  0  0  0  0  0
   -6.6478    4.1125   -0.9963 H   0  0  0  0  0  0  0  0  0  0  0  0
  1  2  2  0  0  0  0
  1  4  1  0  0  0  0
  3  1  1  0  0  0  0
  4  5  1  6  0  0  0
  4  7  1  0  0  0  0
  4  6  1  0  0  0  0
  6 16  1  0  0  0  0
  7 19  1  0  0  0  0
  8  9  1  0  0  0  0
  8  7  1  0  0  0  0
  9 23  1  0  0  0  0
  9 22  1  0  0  0  0
 10  9  1  0  0  0  0
 11 24  1  0  0  0  0
 11 10  2  0  0  0  0
 12 10  1  0  0  0  0
 12 13  2  0  0  0  0
 14 12  1  0  0  0  0
 15  3  1  0  0  0  0
 17  6  1  0  0  0  0
 18  7  1  0  0  0  0
 20  8  1  0  0  0  0
 21  8  1  0  0  0  0
 25 11  1  0  0  0  0
 26 14  1  0  0  0  0
M  END
$$$$
