
     RDKit          3D

 26 25  0  0  0  0  0  0  0  0999 V2000
   -0.4059   -0.2894    0.1184 C   0  0  0  0  0  0  0  0  0  0  0  0
    0.7290   -0.1684   -0.2729 O   0  0  0  0  0  0  0  0  0  0  0  0
   -1.3998   -0.7450   -0.6750 O   0  0  0  0  0  0  0  0  0  0  0  0
   -0.8786    0.0675    1.5259 C   0  0  1  0  0  0  0  0  0  0  0  0
   -1.7324   -0.5844    1.7681 H   0  0  0  0  0  0  0  0  0  0  0  0
    0.1574   -0.1304    2.5251 N   0  0  0  0  0  0  0  0  0  0  0  0
   -1.3435    1.5387    1.5623 C   0  0  0  0  0  0  0  0  0  0  0  0
   -2.4528    1.9354    0.5867 C   0  0  0  0  0  0  0  0  0  0  0  0
   -3.7552    1.1392    0.7670 C   0  0  0  0  0  0  0  0  0  0  0  0
   -4.8494    1.5975   -0.1613 C   0  0  0  0  0  0  0  0  0  0  0  0
   -5.2130    0.9286   -1.2662 C   0  0  0  0  0  0  0  0  0  0  0  0
   -5.5068    2.8881    0.2030 C   0  0  0  0  0  0  0  0  0  0  0  0
   -5.2230    3.5364    1.1855 O   0  0  0  0  0  0  0  0  0  0  0  0
   -6.4625    3.2848   -0.6629 O   0  0  0  0  0  0  0  0  0  0  0  0
   -1.0091   -0.9034   -1.5526 H   0  0  0  0  0  0  0  0  0  0  0  0
    1.0021    0.3581    2.2211 H   0  0  0  0  0  0  0  0  0  0  0  0
    0.4162   -1.1160    2.5727 H   0  0  0  0  0  0  0  0  0  0  0  0
   -0.4570    2.1703    1.3785 H   0  0  0  0  0  0  0  0  0  0  0  0
   -1.6571    1.7353    2.5999 H   0  0  0  0  0  0  0  0  0  0  0  0
   -2.1102    1.8220   -0.4554 H   0  0  0  0  0  0  0  0  0  0  0  0
   -2.6693    3.0048    0.7313 H   0  0  0  0  0  0  0  0  0  0  0  0
   -4.0959    1.2494    1.8096 H   0  0  0  0  0  0  0  0  0  0  0  0
   -3.5676    0.0727    0.5805 H   0  0  0  0  0  0  0  0  0  0  0  0
   -4.7251   -0.0141   -1.5294 H   0  0  0  0  0  0  0  0  0  0  0  0
   -5.9966    1.3022   -1.9271 H   0  0  0  0  0  0  0  0  0  0  0  0
   -6.8103    4.1236   -0.3170 H   0  0  0  0  0  0  0  0  0  0  0  0
  1  2  2  0
  1  3  1  0
  1  4  1  0
  3 15  1  0
  4  5  1  1
  4  6  1  0
  4  7  1  0
  6 16  1  0
  6 17  1  0
  7  8  1  0
  7 18  1  0
  7 19  1  0
  8  9  1  0
  8 20  1  0
  8 21  1  0
  9 10  1  0
  9 22  1  0
  9 23  1  0
 10 11  2  3
 10 12  1  0
 11 24  1  0
 11 25  1  0
 12 13  2  0
 12 14  1  0
 14 26  1  0
M  END

