26

C         -0.24310       -0.15800       -0.04020
O          0.90710        0.07250       -0.32630
O         -1.15200       -0.55750       -0.95140
C         -0.82750       -0.00770        1.36300
H         -1.67980       -0.70080        1.44930
N          0.14570       -0.31510        2.39890
C         -1.34810        1.42890        1.55660
C         -2.49930        1.84080        0.64140
C         -3.00930        3.25490        0.95810
C         -4.14970        3.68580        0.07250
C         -4.02990        4.57920       -0.92110
C         -5.46350        3.03300        0.35620
O         -5.64460        2.24230        1.25510
O         -6.45500        3.40200       -0.48080
H         -0.69740       -0.58420       -1.81190
H          0.99590        0.22150        2.21360
H          0.42620       -1.29410        2.33500
H         -0.49670        2.12240        1.43020
H         -1.65630        1.50260        2.61160
H         -3.33030        1.12620        0.75090
H         -2.18910        1.79950       -0.41530
H         -2.18310        3.97660        0.85460
H         -3.34170        3.28360        2.00870
H         -3.07060        5.06300       -1.12510
H         -4.88050        4.85010       -1.54840
H         -7.24750        2.91990       -0.19150
