26
rmsd109.gzmat
C          0.00000        0.00000        0.00000
O          1.20200        0.00000        0.00000
O         -0.70900        0.00000       -1.15160
C         -0.92330       -0.02710        1.21480
H         -1.83340       -0.64700        0.98600
N         -0.24380       -0.61470        2.37570
C         -1.34310        1.41960        1.54580
C         -2.43810        1.90590        0.59440
C         -2.83560        3.35190        0.93120
C         -4.05210        3.75240        0.16020
C         -5.25630        3.95110        0.69940
C         -3.81890        3.94130       -1.28700
O         -2.81360        4.29370       -1.84670
O         -4.94040        3.65890       -2.00500
H         -0.15060        0.04590       -1.96870
H          0.59950       -0.11570        2.62200
H         -0.01920       -1.58810        2.24020
H         -0.46850        2.09730        1.51630
H         -1.70790        1.44800        2.59540
H         -3.32320        1.24400        0.65760
H         -2.09210        1.84510       -0.45900
H         -1.99140        4.03910        0.69550
H         -3.00860        3.45520        2.02150
H         -5.46530        3.84000        1.75420
H         -6.12910        4.23600        0.12330
H         -4.81850        3.76580       -2.98060
