
     RDKit          3D

 26 25  0  0  0  0  0  0  0  0999 V2000
   -0.0981   -0.1114   -0.0741 C   0  0  0  0  0  0  0  0  0  0  0  0
    1.0980   -0.0139   -0.2050 O   0  0  0  0  0  0  0  0  0  0  0  0
   -0.9309   -0.2887   -1.1193 O   0  0  0  0  0  0  0  0  0  0  0  0
   -0.8283   -0.0225    1.2645 C   0  0  1  0  0  0  0  0  0  0  0  0
   -1.7531   -0.6165    1.1832 H   0  0  0  0  0  0  0  0  0  0  0  0
   -0.0263   -0.5365    2.3629 N   0  0  0  0  0  0  0  0  0  0  0  0
   -1.2159    1.4404    1.5516 C   0  0  0  0  0  0  0  0  0  0  0  0
   -2.2186    2.0589    0.5798 C   0  0  0  0  0  0  0  0  0  0  0  0
   -2.6267    3.4931    0.9651 C   0  0  0  0  0  0  0  0  0  0  0  0
   -3.3678    3.5906    2.2761 C   0  0  0  0  0  0  0  0  0  0  0  0
   -2.8272    4.0628    3.4090 C   0  0  0  0  0  0  0  0  0  0  0  0
   -4.7893    3.1213    2.3517 C   0  0  0  0  0  0  0  0  0  0  0  0
   -5.4690    3.0879    3.3498 O   0  0  0  0  0  0  0  0  0  0  0  0
   -5.2673    2.7288    1.1482 O   0  0  0  0  0  0  0  0  0  0  0  0
   -0.3805   -0.2927   -1.9223 H   0  0  0  0  0  0  0  0  0  0  0  0
    0.8900   -0.0843    2.3343 H   0  0  0  0  0  0  0  0  0  0  0  0
    0.1605   -1.5299    2.2240 H   0  0  0  0  0  0  0  0  0  0  0  0
   -0.2903    2.0449    1.5724 H   0  0  0  0  0  0  0  0  0  0  0  0
   -1.6156    1.4516    2.5770 H   0  0  0  0  0  0  0  0  0  0  0  0
   -3.1201    1.4278    0.5195 H   0  0  0  0  0  0  0  0  0  0  0  0
   -1.7998    2.0817   -0.4386 H   0  0  0  0  0  0  0  0  0  0  0  0
   -3.2576    3.9055    0.1629 H   0  0  0  0  0  0  0  0  0  0  0  0
   -1.7240    4.1226    1.0249 H   0  0  0  0  0  0  0  0  0  0  0  0
   -1.7970    4.4267    3.4348 H   0  0  0  0  0  0  0  0  0  0  0  0
   -3.4139    4.0919    4.3298 H   0  0  0  0  0  0  0  0  0  0  0  0
   -6.1859    2.4480    1.2978 H   0  0  0  0  0  0  0  0  0  0  0  0
  1  2  2  0
  1  3  1  0
  1  4  1  0
  3 15  1  0
  4  5  1  6
  4  6  1  0
  4  7  1  0
  6 16  1  0
  6 17  1  0
  7  8  1  0
  7 18  1  0
  7 19  1  0
  8  9  1  0
  8 20  1  0
  8 21  1  0
  9 10  1  0
  9 22  1  0
  9 23  1  0
 10 11  2  3
 10 12  1  0
 11 24  1  0
 11 25  1  0
 12 13  2  0
 12 14  1  0
 14 26  1  0
M  END

