31

O         -0.21860        0.25690        0.24960
C          1.09930       -0.08200        0.02810
C          1.74180       -0.33150        1.21300
C          0.77430       -0.13800        2.25610
C          0.77380       -0.22790        3.66080
C         -0.40930        0.04550        4.34010
C         -1.58650        0.40530        3.64840
C         -1.61350        0.50170        2.25720
C         -0.42070        0.22490        1.59360
C          1.69340       -0.16310       -1.32960
O          2.86530       -0.51650       -1.38980
C          0.92890        0.15950       -2.56860
C          1.60920       -0.02830       -3.78440
C          1.00880        0.24240       -5.00940
C         -0.31330        0.72080       -5.04160
C         -1.00560        0.91720       -3.83380
C         -0.39660        0.64070       -2.61780
O         -0.98930        1.01520       -6.17230
C         -0.35470        0.84350       -7.42140
H          2.78600       -0.61920        1.29580
H          1.68080       -0.50590        4.20160
H         -0.43290       -0.01810        5.43020
H         -2.49670        0.61280        4.21560
H         -2.51630        0.77830        1.71080
H          2.63520       -0.39670       -3.74070
H          1.57090        0.08080       -5.92870
H         -2.02970        1.29150       -3.88140
H         -0.95450        0.80160       -1.69920
H         -1.08450        1.14100       -8.18550
H         -0.06490       -0.20860       -7.59040
H          0.54300        1.47980       -7.51370
