31
rmsd28.gzmat
O          0.00000        0.00000        0.00000
C          1.39880        0.00000        0.00000
C          1.91410        0.00000        1.26400
C          0.78340        0.00440        2.16370
C          0.61050        0.00460        3.54610
C         -0.68730        0.00510        4.04300
C         -1.80540        0.00280        3.18930
C         -1.66710        0.00090        1.80630
C         -0.36340        0.00210        1.32930
C          2.03170       -0.03120       -1.32590
O          3.21140       -0.29340       -1.41250
C          1.20190        0.23510       -2.51300
C          1.51750       -0.44070       -3.69420
C          0.78070       -0.22080       -4.85370
C         -0.26760        0.70080       -4.81180
C         -0.59520        1.39610       -3.63330
C          0.14590        1.15550       -2.48830
O         -1.06510        1.03390       -5.85540
C         -0.81060        0.40310       -7.10400
H          2.94770       -0.00390        1.55370
H          1.46950        0.00270        4.21340
H         -0.85010        0.00630        5.11980
H         -2.80320        0.00090        3.62860
H         -2.52050       -0.00360        1.13650
H          2.35260       -1.14730       -3.70310
H          1.02880       -0.75690       -5.76220
H         -1.41680        2.10780       -3.63980
H         -0.09130        1.69680       -1.56840
H         -1.57570        0.85450       -7.75120
H         -0.96050       -0.67850       -7.03200
H          0.19140        0.64850       -7.47000
