31

O         -0.15430       -0.32200        0.23110
C          1.13280        0.13300        0.03630
C          1.71170        0.47640        1.23030
C          0.73290        0.22680        2.25080
C          0.67930        0.36000        3.65100
C         -0.49410       -0.00250        4.30500
C         -1.60990       -0.49320        3.59250
C         -1.58330       -0.63510        2.20520
C         -0.40120       -0.26740        1.56690
C          1.76680        0.21300       -1.30390
O          2.92890        0.60010       -1.33260
C          1.05450       -0.15250       -2.56120
C         -0.28930       -0.54840       -2.65510
C         -0.86540       -0.86180       -3.88760
C         -0.09760       -0.78530       -5.05980
C          1.25180       -0.38860       -4.97870
C          1.81050       -0.07830       -3.75230
O         -0.56070       -1.06880       -6.29560
C         -1.90320       -1.47360       -6.45420
H          2.72290        0.85950        1.33380
H          1.53890        0.73870        4.20790
H         -0.55810        0.09250        5.39120
H         -2.51430       -0.76800        4.14010
H         -2.43830       -1.01320        1.64300
H         -0.90290       -0.61470       -1.76040
H         -1.91170       -1.16340       -3.92120
H          1.83140       -0.33490       -5.90200
H          2.85300        0.23320       -3.67510
H         -2.05190       -1.64810       -7.52770
H         -2.60710       -0.69310       -6.11510
H         -2.11500       -2.40770       -5.90460
