rmsd34.gzmat
 OpenBabel08211713393D

 31 33  0  0  0  0  0  0  0  0999 V2000
    0.0000    0.0000    0.0000 O   0  0  0  0  0  0  0  0  0  0  0  0
    1.3985    0.0000    0.0000 C   0  0  0  0  0  0  0  0  0  0  0  0
    1.9141    0.0000    1.2640 C   0  0  0  0  0  0  0  0  0  0  0  0
    0.7836    0.0041    2.1639 C   0  0  0  0  0  0  0  0  0  0  0  0
    0.6121    0.0024    3.5466 C   0  0  0  0  0  0  0  0  0  0  0  0
   -0.6852   -0.0064    4.0445 C   0  0  0  0  0  0  0  0  0  0  0  0
   -1.8037   -0.0116    3.1912 C   0  0  0  0  0  0  0  0  0  0  0  0
   -1.6664   -0.0088    1.8080 C   0  0  0  0  0  0  0  0  0  0  0  0
   -0.3633   -0.0007    1.3299 C   0  0  0  0  0  0  0  0  0  0  0  0
    2.0333   -0.0349   -1.3256 C   0  0  0  0  0  0  0  0  0  0  0  0
    3.2009   -0.3471   -1.4110 O   0  0  0  0  0  0  0  0  0  0  0  0
    1.2249    0.2929   -2.5118 C   0  0  0  0  0  0  0  0  0  0  0  0
    1.5470   -0.3371   -3.7169 C   0  0  0  0  0  0  0  0  0  0  0  0
    0.8280   -0.0604   -4.8756 C   0  0  0  0  0  0  0  0  0  0  0  0
   -0.2111    0.8702   -4.8075 C   0  0  0  0  0  0  0  0  0  0  0  0
   -0.5419    1.5240   -3.6061 C   0  0  0  0  0  0  0  0  0  0  0  0
    0.1827    1.2279   -2.4636 C   0  0  0  0  0  0  0  0  0  0  0  0
   -0.9975    1.2502   -5.8434 O   0  0  0  0  0  0  0  0  0  0  0  0
   -0.7521    0.6501   -7.1086 C   0  0  0  0  0  0  0  0  0  0  0  0
    2.9476   -0.0056    1.5537 H   0  0  0  0  0  0  0  0  0  0  0  0
    1.4718    0.0052    4.2127 H   0  0  0  0  0  0  0  0  0  0  0  0
   -0.8469   -0.0116    5.1215 H   0  0  0  0  0  0  0  0  0  0  0  0
   -2.8012   -0.0202    3.6305 H   0  0  0  0  0  0  0  0  0  0  0  0
   -2.5215   -0.0161    1.1403 H   0  0  0  0  0  0  0  0  0  0  0  0
    2.3735   -1.0536   -3.7447 H   0  0  0  0  0  0  0  0  0  0  0  0
    1.0821   -0.5608   -5.8027 H   0  0  0  0  0  0  0  0  0  0  0  0
   -1.3547    2.2459   -3.5927 H   0  0  0  0  0  0  0  0  0  0  0  0
   -0.0567    1.7365   -1.5260 H   0  0  0  0  0  0  0  0  0  0  0  0
   -1.5102    1.1311   -7.7424 H   0  0  0  0  0  0  0  0  0  0  0  0
   -0.9180   -0.4310   -7.0670 H   0  0  0  0  0  0  0  0  0  0  0  0
    0.2537    0.8892   -7.4684 H   0  0  0  0  0  0  0  0  0  0  0  0
  1  9  1  0  0  0  0
  2  1  1  0  0  0  0
  2  3  2  0  0  0  0
  3 20  1  0  0  0  0
  3  4  1  0  0  0  0
  4  5  2  0  0  0  0
  5  6  1  0  0  0  0
  5 21  1  0  0  0  0
  6 22  1  0  0  0  0
  7 23  1  0  0  0  0
  7  6  2  0  0  0  0
  8  7  1  0  0  0  0
  9  8  2  0  0  0  0
  9  4  1  0  0  0  0
 10  2  1  0  0  0  0
 11 10  2  0  0  0  0
 12 17  1  0  0  0  0
 12 10  1  0  0  0  0
 13 12  2  0  0  0  0
 14 15  2  0  0  0  0
 14 13  1  0  0  0  0
 15 16  1  0  0  0  0
 16 27  1  0  0  0  0
 16 17  2  0  0  0  0
 17 28  1  0  0  0  0
 18 15  1  0  0  0  0
 19 30  1  0  0  0  0
 19 18  1  0  0  0  0
 24  8  1  0  0  0  0
 25 13  1  0  0  0  0
 26 14  1  0  0  0  0
 29 19  1  0  0  0  0
 31 19  1  0  0  0  0
M  END
$$$$
