31
rmsd45.gzmat
O          0.00000        0.00000        0.00000
C          1.39880        0.00000        0.00000
C          1.91330        0.00000        1.26450
C          0.78240       -0.00530        2.16370
C          0.61000       -0.00740        3.54590
C         -0.68780       -0.00610        4.04280
C         -1.80640       -0.00110        3.18950
C         -1.66790        0.00170        1.80640
C         -0.36420       -0.00160        1.32940
C          2.03680        0.03260       -1.32410
O          3.22140        0.27570       -1.40000
C          1.21210       -0.20850       -2.52020
C          0.13240       -1.09110       -2.51130
C         -0.61280       -1.30550       -3.66780
C         -0.25750       -0.61820       -4.83020
C          0.83330        0.27000       -4.86070
C          1.56630        0.46030       -3.70240
O         -0.88740       -0.71260       -6.02610
C         -1.96460       -1.63420       -6.13110
H          2.94620        0.00530        1.55660
H          1.46940       -0.00820        4.21280
H         -0.84970       -0.00710        5.11950
H         -2.80390        0.00240        3.62910
H         -2.52100        0.01100        1.13680
H         -0.13270       -1.63230       -1.59920
H         -1.44970       -1.99390       -3.65140
H          1.08460        0.78320       -5.78540
H          2.43060        1.13200       -3.70030
H         -2.26050       -1.52400       -7.18410
H         -2.78880       -1.34900       -5.47080
H         -1.62550       -2.65560       -5.93380
