31
rmsd38.gzmat
O          0.00000        0.00000        0.00000
C          1.39840        0.00000        0.00000
C          1.91400        0.00000        1.26400
C          0.78330       -0.00940        2.16370
C          0.61160       -0.01970        3.54620
C         -0.68580       -0.02670        4.04400
C         -1.80410       -0.01930        3.19030
C         -1.66680       -0.00900        1.80710
C         -0.36350       -0.00560        1.32970
C          2.03480        0.02780       -1.32490
O          3.20580        0.32740       -1.40780
C          1.22640       -0.29180       -2.51340
C          1.56570        0.32710       -3.71970
C          0.84020        0.06590       -4.87780
C         -0.22120       -0.83910       -4.80930
C         -0.56220       -1.49020       -3.60980
C          0.16690       -1.20800       -2.46660
O         -1.02040       -1.19520       -5.84390
C         -0.77740       -0.58150       -7.10360
H          2.94740        0.00690        1.55450
H          1.47210       -0.02110        4.21120
H         -0.84810       -0.03790        5.12090
H         -2.80200       -0.02050        3.62860
H         -2.52120       -0.00220        1.13850
H          2.41080        1.02200       -3.75040
H          1.10620        0.55740       -5.80620
H         -1.38630       -2.19890       -3.59840
H         -0.08320       -1.71310       -1.52980
H         -1.56420       -1.02310       -7.73090
H          0.21200       -0.85180       -7.48470
H         -0.90270        0.50370       -7.04180
