rmsd7.gzmat
 OpenBabel08211713393D

 31 33  0  0  0  0  0  0  0  0999 V2000
    0.0000    0.0000    0.0000 O   0  0  0  0  0  0  0  0  0  0  0  0
    1.3987    0.0000    0.0000 C   0  0  0  0  0  0  0  0  0  0  0  0
    1.9138    0.0000    1.2641 C   0  0  0  0  0  0  0  0  0  0  0  0
    0.7830   -0.0027    2.1639 C   0  0  0  0  0  0  0  0  0  0  0  0
    0.6091    0.0003    3.5460 C   0  0  0  0  0  0  0  0  0  0  0  0
   -0.6894    0.0067    4.0413 C   0  0  0  0  0  0  0  0  0  0  0  0
   -1.8079    0.0089    3.1880 C   0  0  0  0  0  0  0  0  0  0  0  0
   -1.6676    0.0088    1.8052 C   0  0  0  0  0  0  0  0  0  0  0  0
   -0.3637    0.0014    1.3294 C   0  0  0  0  0  0  0  0  0  0  0  0
    2.0294    0.0329   -1.3278 C   0  0  0  0  0  0  0  0  0  0  0  0
    3.2051    0.3089   -1.4175 O   0  0  0  0  0  0  0  0  0  0  0  0
    1.1987   -0.2504   -2.5105 C   0  0  0  0  0  0  0  0  0  0  0  0
    1.5002    0.4293   -3.7005 C   0  0  0  0  0  0  0  0  0  0  0  0
    0.7558    0.1999   -4.8444 C   0  0  0  0  0  0  0  0  0  0  0  0
   -0.2914   -0.7379   -4.7917 C   0  0  0  0  0  0  0  0  0  0  0  0
   -0.5937   -1.4360   -3.6209 C   0  0  0  0  0  0  0  0  0  0  0  0
    0.1613   -1.1816   -2.4788 C   0  0  0  0  0  0  0  0  0  0  0  0
   -0.9344   -0.8693   -5.9770 O   0  0  0  0  0  0  0  0  0  0  0  0
   -2.0043   -1.8030   -6.0438 C   0  0  0  0  0  0  0  0  0  0  0  0
    2.9469    0.0046    1.5557 H   0  0  0  0  0  0  0  0  0  0  0  0
    1.4667   -0.0003    4.2148 H   0  0  0  0  0  0  0  0  0  0  0  0
   -0.8520    0.0134    5.1176 H   0  0  0  0  0  0  0  0  0  0  0  0
   -2.8062    0.0125    3.6264 H   0  0  0  0  0  0  0  0  0  0  0  0
   -2.5196    0.0188    1.1340 H   0  0  0  0  0  0  0  0  0  0  0  0
    2.3314    1.1410   -3.7157 H   0  0  0  0  0  0  0  0  0  0  0  0
    0.9654    0.7210   -5.7748 H   0  0  0  0  0  0  0  0  0  0  0  0
   -1.3965   -2.1631   -3.5863 H   0  0  0  0  0  0  0  0  0  0  0  0
   -0.0626   -1.7278   -1.5591 H   0  0  0  0  0  0  0  0  0  0  0  0
   -2.3292   -1.7081   -7.0895 H   0  0  0  0  0  0  0  0  0  0  0  0
   -2.8129   -1.5174   -5.3640 H   0  0  0  0  0  0  0  0  0  0  0  0
   -1.6497   -2.8192   -5.8451 H   0  0  0  0  0  0  0  0  0  0  0  0
  1  9  1  0  0  0  0
  2  1  1  0  0  0  0
  2  3  2  0  0  0  0
  3 20  1  0  0  0  0
  3  4  1  0  0  0  0
  4  5  2  0  0  0  0
  5  6  1  0  0  0  0
  5 21  1  0  0  0  0
  6 22  1  0  0  0  0
  7 23  1  0  0  0  0
  7  6  2  0  0  0  0
  8  7  1  0  0  0  0
  9  8  2  0  0  0  0
  9  4  1  0  0  0  0
 10  2  1  0  0  0  0
 11 10  2  0  0  0  0
 12 17  1  0  0  0  0
 12 10  1  0  0  0  0
 13 12  2  0  0  0  0
 14 15  2  0  0  0  0
 14 13  1  0  0  0  0
 15 16  1  0  0  0  0
 16 27  1  0  0  0  0
 16 17  2  0  0  0  0
 17 28  1  0  0  0  0
 18 15  1  0  0  0  0
 19 18  1  0  0  0  0
 19 31  1  0  0  0  0
 19 30  1  0  0  0  0
 24  8  1  0  0  0  0
 25 13  1  0  0  0  0
 26 14  1  0  0  0  0
 29 19  1  0  0  0  0
M  END
$$$$
