rmsd15.gzmat
 OpenBabel08211713393D

 31 33  0  0  0  0  0  0  0  0999 V2000
    0.0000    0.0000    0.0000 O   0  0  0  0  0  0  0  0  0  0  0  0
    1.3986    0.0000    0.0000 C   0  0  0  0  0  0  0  0  0  0  0  0
    1.9143    0.0000    1.2643 C   0  0  0  0  0  0  0  0  0  0  0  0
    0.7839   -0.0039    2.1641 C   0  0  0  0  0  0  0  0  0  0  0  0
    0.6114   -0.0010    3.5466 C   0  0  0  0  0  0  0  0  0  0  0  0
   -0.6863    0.0048    4.0437 C   0  0  0  0  0  0  0  0  0  0  0  0
   -1.8048    0.0078    3.1906 C   0  0  0  0  0  0  0  0  0  0  0  0
   -1.6668    0.0062    1.8076 C   0  0  0  0  0  0  0  0  0  0  0  0
   -0.3631   -0.0007    1.3300 C   0  0  0  0  0  0  0  0  0  0  0  0
    2.0415    0.0387   -1.3211 C   0  0  0  0  0  0  0  0  0  0  0  0
    3.2245    0.2929   -1.3895 O   0  0  0  0  0  0  0  0  0  0  0  0
    1.2276   -0.2036   -2.5238 C   0  0  0  0  0  0  0  0  0  0  0  0
    0.1428   -1.0896   -2.5231 C   0  0  0  0  0  0  0  0  0  0  0  0
   -0.5927   -1.2919   -3.6791 C   0  0  0  0  0  0  0  0  0  0  0  0
   -0.2271   -0.5970   -4.8463 C   0  0  0  0  0  0  0  0  0  0  0  0
    0.8596    0.2800   -4.8691 C   0  0  0  0  0  0  0  0  0  0  0  0
    1.5877    0.4638   -3.6977 C   0  0  0  0  0  0  0  0  0  0  0  0
   -1.0320   -0.8827   -5.8981 O   0  0  0  0  0  0  0  0  0  0  0  0
   -0.7348   -0.2594   -7.1411 C   0  0  0  0  0  0  0  0  0  0  0  0
    2.9484    0.0064    1.5520 H   0  0  0  0  0  0  0  0  0  0  0  0
    1.4712   -0.0009    4.2125 H   0  0  0  0  0  0  0  0  0  0  0  0
   -0.8487    0.0088    5.1202 H   0  0  0  0  0  0  0  0  0  0  0  0
   -2.8025    0.0147    3.6300 H   0  0  0  0  0  0  0  0  0  0  0  0
   -2.5208    0.0153    1.1384 H   0  0  0  0  0  0  0  0  0  0  0  0
   -0.1227   -1.6351   -1.6140 H   0  0  0  0  0  0  0  0  0  0  0  0
   -1.4401   -1.9724   -3.7021 H   0  0  0  0  0  0  0  0  0  0  0  0
    1.1422    0.8095   -5.7714 H   0  0  0  0  0  0  0  0  0  0  0  0
    2.4520    1.1352   -3.6899 H   0  0  0  0  0  0  0  0  0  0  0  0
   -1.5070   -0.6799   -7.8008 H   0  0  0  0  0  0  0  0  0  0  0  0
    0.2628   -0.5413   -7.4922 H   0  0  0  0  0  0  0  0  0  0  0  0
   -0.8446    0.8272   -7.0682 H   0  0  0  0  0  0  0  0  0  0  0  0
  1  2  1  0  0  0  0
  1  9  1  0  0  0  0
  2  3  2  0  0  0  0
  3 20  1  0  0  0  0
  3  4  1  0  0  0  0
  4  5  2  0  0  0  0
  5  6  1  0  0  0  0
  5 21  1  0  0  0  0
  6 22  1  0  0  0  0
  7 23  1  0  0  0  0
  7  6  2  0  0  0  0
  8  7  1  0  0  0  0
  9  8  2  0  0  0  0
  9  4  1  0  0  0  0
 10  2  1  0  0  0  0
 11 10  2  0  0  0  0
 12 13  1  0  0  0  0
 12 10  1  0  0  0  0
 13 25  1  0  0  0  0
 14 13  2  0  0  0  0
 15 14  1  0  0  0  0
 16 15  2  0  0  0  0
 16 17  1  0  0  0  0
 17 28  1  0  0  0  0
 17 12  2  0  0  0  0
 18 15  1  0  0  0  0
 19 31  1  0  0  0  0
 19 18  1  0  0  0  0
 24  8  1  0  0  0  0
 26 14  1  0  0  0  0
 27 16  1  0  0  0  0
 29 19  1  0  0  0  0
 30 19  1  0  0  0  0
M  END
$$$$
