rmsd45.gzmat
 OpenBabel08211713393D

 31 33  0  0  0  0  0  0  0  0999 V2000
    0.0000    0.0000    0.0000 O   0  0  0  0  0  0  0  0  0  0  0  0
    1.3988    0.0000    0.0000 C   0  0  0  0  0  0  0  0  0  0  0  0
    1.9133    0.0000    1.2645 C   0  0  0  0  0  0  0  0  0  0  0  0
    0.7824   -0.0053    2.1637 C   0  0  0  0  0  0  0  0  0  0  0  0
    0.6100   -0.0074    3.5459 C   0  0  0  0  0  0  0  0  0  0  0  0
   -0.6878   -0.0061    4.0428 C   0  0  0  0  0  0  0  0  0  0  0  0
   -1.8064   -0.0011    3.1895 C   0  0  0  0  0  0  0  0  0  0  0  0
   -1.6679    0.0017    1.8064 C   0  0  0  0  0  0  0  0  0  0  0  0
   -0.3642   -0.0016    1.3294 C   0  0  0  0  0  0  0  0  0  0  0  0
    2.0368    0.0326   -1.3241 C   0  0  0  0  0  0  0  0  0  0  0  0
    3.2214    0.2757   -1.4000 O   0  0  0  0  0  0  0  0  0  0  0  0
    1.2121   -0.2085   -2.5202 C   0  0  0  0  0  0  0  0  0  0  0  0
    0.1324   -1.0911   -2.5113 C   0  0  0  0  0  0  0  0  0  0  0  0
   -0.6128   -1.3055   -3.6678 C   0  0  0  0  0  0  0  0  0  0  0  0
   -0.2575   -0.6182   -4.8302 C   0  0  0  0  0  0  0  0  0  0  0  0
    0.8333    0.2700   -4.8607 C   0  0  0  0  0  0  0  0  0  0  0  0
    1.5663    0.4603   -3.7024 C   0  0  0  0  0  0  0  0  0  0  0  0
   -0.8874   -0.7126   -6.0261 O   0  0  0  0  0  0  0  0  0  0  0  0
   -1.9646   -1.6342   -6.1311 C   0  0  0  0  0  0  0  0  0  0  0  0
    2.9462    0.0053    1.5566 H   0  0  0  0  0  0  0  0  0  0  0  0
    1.4694   -0.0082    4.2128 H   0  0  0  0  0  0  0  0  0  0  0  0
   -0.8497   -0.0071    5.1195 H   0  0  0  0  0  0  0  0  0  0  0  0
   -2.8039    0.0024    3.6291 H   0  0  0  0  0  0  0  0  0  0  0  0
   -2.5210    0.0110    1.1368 H   0  0  0  0  0  0  0  0  0  0  0  0
   -0.1327   -1.6323   -1.5992 H   0  0  0  0  0  0  0  0  0  0  0  0
   -1.4497   -1.9939   -3.6514 H   0  0  0  0  0  0  0  0  0  0  0  0
    1.0846    0.7832   -5.7854 H   0  0  0  0  0  0  0  0  0  0  0  0
    2.4306    1.1320   -3.7003 H   0  0  0  0  0  0  0  0  0  0  0  0
   -2.2605   -1.5240   -7.1841 H   0  0  0  0  0  0  0  0  0  0  0  0
   -2.7888   -1.3490   -5.4708 H   0  0  0  0  0  0  0  0  0  0  0  0
   -1.6255   -2.6556   -5.9338 H   0  0  0  0  0  0  0  0  0  0  0  0
  1  2  1  0  0  0  0
  1  9  1  0  0  0  0
  2  3  2  0  0  0  0
  3 20  1  0  0  0  0
  3  4  1  0  0  0  0
  4  5  2  0  0  0  0
  5  6  1  0  0  0  0
  5 21  1  0  0  0  0
  6 22  1  0  0  0  0
  7 23  1  0  0  0  0
  7  6  2  0  0  0  0
  8  7  1  0  0  0  0
  9  8  2  0  0  0  0
  9  4  1  0  0  0  0
 10  2  1  0  0  0  0
 11 10  2  0  0  0  0
 12 13  1  0  0  0  0
 12 10  1  0  0  0  0
 13 25  1  0  0  0  0
 14 26  1  0  0  0  0
 14 13  2  0  0  0  0
 15 14  1  0  0  0  0
 16 15  2  0  0  0  0
 16 17  1  0  0  0  0
 17 28  1  0  0  0  0
 17 12  2  0  0  0  0
 18 15  1  0  0  0  0
 19 18  1  0  0  0  0
 19 31  1  0  0  0  0
 19 30  1  0  0  0  0
 24  8  1  0  0  0  0
 27 16  1  0  0  0  0
 29 19  1  0  0  0  0
M  END
$$$$
