57

N         -0.03390        0.10080        0.17420
C          1.34590        0.09520        0.10300
C          2.06570        0.04910        1.26090
C          1.36530        0.21510        2.60370
H          1.87720       -0.39070        3.35750
C         -0.09280       -0.21720        2.51680
C         -0.75240       -0.16610        1.32350
C         -2.21970       -0.41090        1.11250
C         -0.80600       -0.57930        3.74750
O         -1.98460       -0.87060        3.84080
O          0.01990       -0.55630        4.82230
C         -0.55170       -0.88630        6.09370
C         -0.60340       -2.38870        6.31300
C          1.47000        1.63670        3.07420
O          0.89950        2.58150        2.27470
C          1.09150        3.80940        2.84140
C          1.79170        3.65040        4.01640
C          2.03380        2.24690        4.16250
C          0.55290        4.96170        2.13390
C         -0.13670        4.80590        0.91840
C         -0.65030        5.91350        0.24430
C         -0.49920        7.21210        0.74930
C          0.19080        7.36270        1.96470
C          0.70710        6.26530        2.64530
C         -1.05240        8.41210        0.02460
C          3.53170       -0.01790        1.22630
O          4.23120       -0.04020        0.23010
O          4.05210       -0.05150        2.47740
C          5.47930       -0.01270        2.59510
C          5.99930        1.41230        2.50810
C          1.91050        0.11020       -1.28930
H         -0.54470        0.12700       -0.69830
H         -2.49980       -0.22690        0.06350
H         -2.82330        0.22930        1.76880
H         -2.48580       -1.44400        1.37840
H         -1.55870       -0.44830        6.15820
H          0.10170       -0.39600        6.83000
H         -1.28320       -2.85910        5.58810
H         -0.97270       -2.61060        7.32710
H          0.39750       -2.83490        6.20400
H          2.09700        4.44250        4.69560
H          2.55850        1.74150        4.96910
H         -0.26560        3.80360        0.50730
H         -1.18270        5.76560       -0.69950
H          0.32500        8.36370        2.38460
H          1.23800        6.41810        3.58730
H         -1.77790        8.95890        0.65010
H         -1.56210        8.12230       -0.90590
H         -0.25330        9.12590       -0.23710
H          5.92410       -0.64190        1.81000
H          5.69270       -0.45780        3.57780
H          5.80900        1.82970        1.50870
H          7.08590        1.43190        2.68930
H          5.50720        2.05230        3.25650
H          1.10740        0.21020       -2.03610
H          2.47680       -0.80970       -1.49280
H          2.62710        0.93290       -1.41220
