57
rmsd206.gzmat
N          0.00000        0.00000        0.00000
C          1.39490        0.00000        0.00000
C          2.09030        0.00000        1.16980
C          1.40690        0.11930        2.50320
H          1.83470       -0.65210        3.21280
C         -0.07980       -0.07470        2.39130
C         -0.72180       -0.07190        1.19280
C         -2.20040       -0.14970        1.04200
C         -0.82940       -0.16550        3.63990
O         -2.03090       -0.10190        3.77640
O          0.00660       -0.35090        4.69340
C         -0.55010       -0.21010        6.00100
C         -0.61040        1.26810        6.35250
C          1.67070        1.47550        3.05670
O          0.83220        2.45490        2.55610
C          1.20900        3.64130        3.17120
C          2.25900        3.41710        4.02780
C          2.55400        2.01170        3.95580
C          0.41520        4.78410        2.79660
C         -0.88700        4.60680        2.31510
C         -1.65800        5.71140        1.96820
C         -1.13750        7.00130        2.09880
C          0.16580        7.17710        2.57340
C          0.93990        6.07560        2.92030
C         -1.95900        8.18910        1.72780
C          3.54670       -0.05150        1.16500
O          4.27590       -0.03580        0.19780
O          4.03770       -0.13890        2.42890
C          5.45290       -0.02400        2.58140
C          5.85750        1.43690        2.46100
C          2.03270       -0.01100       -1.34430
H         -0.49610        0.04140       -0.87880
H         -2.55800       -0.20160        0.00900
H         -2.68760        0.72120        1.52600
H         -2.61030       -1.02500        1.58210
H          0.18460       -0.76610        6.61250
H         -1.53840       -0.69970        6.05270
H          0.34790        1.76400        6.13960
H         -0.84560        1.42340        7.40920
H         -1.37590        1.78560        5.75750
H          2.76790        4.12510        4.64390
H          3.31760        1.50210        4.50300
H         -1.29710        3.60120        2.21960
H         -2.67030        5.56730        1.59840
H          0.57700        8.17900        2.67230
H          1.95640        6.21510        3.28470
H         -1.85920        9.00170        2.46130
H         -3.02980        7.95730        1.65270
H         -1.64610        8.59190        0.75250
H          5.96590       -0.66670        1.84430
H          5.59420       -0.42600        3.60200
H          5.78220        1.78250        1.41990
H          6.88610        1.60010        2.79440
H          5.19710        2.08110        3.05910
H          1.33510       -0.02620       -2.18750
H          2.71280       -0.87840       -1.45520
H          2.69440        0.87000       -1.46890
