57
rmsd233.gzmat
N          0.00000        0.00000        0.00000
C          1.39580        0.00000        0.00000
C          2.08800        0.00000        1.17150
C          1.39940        0.13880        2.50060
H          1.85750       -0.58340        3.24160
C         -0.07540       -0.12700        2.39030
C         -0.71780       -0.12650        1.19090
C         -2.19070       -0.26650        1.03590
C         -0.81350       -0.33400        3.62980
O         -1.99520       -0.57490        3.74580
O          0.00560       -0.21980        4.70670
C         -0.57470       -0.43730        5.99270
C         -0.63010       -1.93130        6.27140
C          1.60560        1.52680        2.99540
O          0.93450        2.48190        2.25550
C          1.23280        3.70780        2.83720
C          2.07150        3.52720        3.91040
C          2.31180        2.11320        4.01200
C          0.60560        4.83530        2.19650
C         -0.02260        4.67760        0.95500
C         -0.63830        5.76270        0.34130
C         -0.63360        7.01610        0.95850
C         -0.00270        7.17480        2.19570
C          0.61300        6.09160        2.81300
C         -1.28520        8.18430        0.29970
C          3.54410       -0.05870        1.17880
O          4.28440       -0.01340        0.22140
O          4.01690       -0.19650        2.44510
C          5.42870       -0.08690        2.62660
C          5.81740        1.38320        2.63030
C          2.03650       -0.01620       -1.34260
H         -0.49790        0.03220       -0.87840
H         -2.55210       -0.23760        0.00330
H         -2.72080        0.52630        1.60070
H         -2.54820       -1.21070        1.49310
H         -1.56960        0.04000        6.04880
H          0.13900        0.09670        6.64800
H         -1.34630       -2.42700        5.60090
H         -0.94050       -2.13670        7.30040
H          0.34730       -2.40250        6.10950
H          2.48290        4.26940        4.55840
H          2.92230        1.63530        4.74700
H         -0.02770        3.70190        0.46950
H         -1.12370        5.63270       -0.62260
H          0.00470        8.14960        2.67790
H          1.09840        6.21770        3.77960
H         -1.85390        8.79510        1.01500
H         -1.98510        7.88730       -0.49260
H         -0.53340        8.84170       -0.16340
H          5.95760       -0.66390        1.84750
H          5.56020       -0.56850        3.61320
H          5.71120        1.82120        1.62750
H          6.85330        1.52600        2.95140
H          5.16730        1.96280        3.30140
H          1.34110        0.00260       -2.18740
H          2.68640       -0.90500       -1.45960
H          2.72880        0.84330       -1.45650
