57

N          0.01360        0.00010        0.01770
C          1.39370       -0.01620       -0.02550
C          2.10050       -0.03890        1.14000
C          1.41270        0.05010        2.49850
H          1.81220       -0.72850        3.16190
C         -0.09980       -0.10940        2.38230
C         -0.73390       -0.08440        1.17580
C         -2.22130       -0.14370        0.96380
C         -0.87660       -0.19220        3.62970
O         -2.08740       -0.13790        3.73650
O         -0.05370       -0.33260        4.69400
C         -0.62030       -0.21950        6.00420
C         -0.63980        1.23180        6.45360
C          1.74740        1.35870        3.16690
O          2.41790        1.32870        4.34560
C          2.61600        2.61090        4.77240
C          2.06380        3.47510        3.85320
C          1.50370        2.66310        2.81750
C          3.32550        2.78860        6.03060
C          3.78240        1.67870        6.76380
C          4.46240        1.85390        7.96900
C          4.71310        3.13100        8.48880
C          4.25400        4.23690        7.75190
C          3.57500        4.07460        6.54930
C          5.44810        3.32520        9.79010
C          3.57210       -0.05020        1.11750
O          4.28460        0.06630        0.13810
O          4.06580       -0.20240        2.36750
C          5.47330       -0.02620        2.56310
C          5.79690        1.43580        2.82130
C          1.98160       -0.00920       -1.40940
H         -0.48340       -0.00440       -0.86270
H         -2.46090       -0.20210       -0.10940
H         -2.71220        0.73960        1.39630
H         -2.66060       -1.00740        1.47970
H          0.02870       -0.82850        6.65000
H         -1.63220       -0.64980        5.99830
H          0.37210        1.66270        6.42480
H         -1.02290        1.30580        7.48390
H         -1.29440        1.82790        5.80020
H          2.05900        4.56070        3.91080
H          0.98360        2.99620        1.92250
H          3.59750        0.67580        6.37680
H          4.80740        0.97470        8.52020
H          4.43440        5.24650        8.13200
H          3.23200        4.95510        6.00210
H          6.36980        3.91370        9.64570
H          5.73100        2.36300       10.24140
H          4.83030        3.87240       10.52170
H          6.01070       -0.40500        1.68170
H          5.72130       -0.64950        3.43440
H          5.54740        2.04640        1.94050
H          6.87190        1.55640        3.02990
H          5.22840        1.81440        3.68380
H          1.18970       -0.08520       -2.17070
H          2.69130       -0.83600       -1.54230
H          2.56180        0.90850       -1.58170
