57
rmsd28.gzmat
N          0.00000        0.00000        0.00000
C          1.39570        0.00000        0.00000
C          2.08820        0.00000        1.17150
C          1.39990        0.14230        2.50070
H          1.85100       -0.58600        3.23980
C         -0.07770       -0.10720        2.39120
C         -0.72000       -0.10580        1.19150
C         -2.19550       -0.22300        1.03800
C         -0.82150       -0.28670        3.63190
O         -2.01980       -0.42020        3.75130
O          0.01120       -0.28720        4.70420
C         -0.58690       -0.43800        5.99180
C         -0.92090       -1.90090        6.23720
C          1.62390        1.52820        2.99440
O          0.82780        2.47440        2.37600
C          1.17600        3.69940        2.93050
C          2.16620        3.52840        3.86730
C          2.45270        2.12020        3.91020
C          0.42830        4.81940        2.41840
C         -0.77440        4.61040        1.73300
C         -1.49700        5.69380        1.24380
C         -1.02530        6.99510        1.43160
C          0.17460        7.20380        2.11870
C          0.89930        6.12360        2.60900
C         -1.78240        8.16260        0.89620
C          3.54410       -0.06120        1.17450
O          4.27840       -0.03570        0.21170
O          4.02560       -0.17370        2.44030
C          5.44100       -0.08060        2.60630
C          5.86010        1.37950        2.53860
C          2.03390       -0.01130       -1.34390
H         -0.49630        0.04510       -0.87850
H         -2.55470       -0.22290        0.00450
H         -2.71060        0.59790        1.57640
H         -2.57370       -1.14370        1.52510
H         -1.47370        0.21660        6.07200
H          0.22180       -0.06520        6.64920
H         -1.73730       -2.23120        5.57800
H         -1.23820       -2.07310        7.27040
H         -0.05700       -2.54650        6.03630
H          2.64200        4.27300        4.46660
H          3.17380        1.64760        4.54120
H         -1.14670        3.59650        1.58720
H         -2.43250        5.52350        0.71660
H          0.54270        8.21620        2.26840
H          1.83640        6.28890        3.13910
H         -1.96200        8.91950        1.67330
H         -2.76250        7.88460        0.48710
H         -1.22380        8.65510        0.08580
H          5.95270       -0.70360        1.85160
H          5.57100       -0.51850        3.61370
H          5.77910        1.76510        1.51210
H          6.89320        1.51950        2.86940
H          5.21210        2.00680        3.16720
H          1.33600       -0.04240       -2.18680
H          2.72680       -0.86940       -1.44910
H          2.68210        0.87890       -1.47540
