rmsd106.gzmat
 OpenBabel08211713403D

 57 59  0  0  1  0  0  0  0  0999 V2000
    0.0000    0.0000    0.0000 N   0  0  0  0  0  0  0  0  0  0  0  0
    1.3961    0.0000    0.0000 C   0  0  0  0  0  0  0  0  0  0  0  0
    2.0894    0.0000    1.1699 C   0  0  0  0  0  0  0  0  0  0  0  0
    1.4086    0.1137    2.5055 C   0  0  2  0  0  0  0  0  0  0  0  0
    1.8238   -0.6755    3.2035 H   0  0  0  0  0  0  0  0  0  0  0  0
   -0.0800   -0.0601    2.3932 C   0  0  0  0  0  0  0  0  0  0  0  0
   -0.7208   -0.0643    1.1927 C   0  0  0  0  0  0  0  0  0  0  0  0
   -2.1987   -0.1498    1.0398 C   0  0  0  0  0  0  0  0  0  0  0  0
   -0.8381   -0.1705    3.6331 C   0  0  0  0  0  0  0  0  0  0  0  0
   -2.0436   -0.2031    3.7502 O   0  0  0  0  0  0  0  0  0  0  0  0
   -0.0131   -0.2537    4.7092 O   0  0  0  0  0  0  0  0  0  0  0  0
   -0.6284   -0.1896    5.9969 C   0  0  0  0  0  0  0  0  0  0  0  0
   -1.0130    1.2495    6.3018 C   0  0  0  0  0  0  0  0  0  0  0  0
    1.6985    1.4537    3.0852 C   0  0  0  0  0  0  0  0  0  0  0  0
    1.6711    2.4843    2.1640 O   0  0  0  0  0  0  0  0  0  0  0  0
    1.9755    3.6430    2.8672 C   0  0  0  0  0  0  0  0  0  0  0  0
    2.1736    3.3510    4.1950 C   0  0  0  0  0  0  0  0  0  0  0  0
    1.9990    1.9312    4.3337 C   0  0  0  0  0  0  0  0  0  0  0  0
    2.0394    4.8363    2.0628 C   0  0  0  0  0  0  0  0  0  0  0  0
    2.0323    6.0940    2.6762 C   0  0  0  0  0  0  0  0  0  0  0  0
    2.1056    7.2477    1.9025 C   0  0  0  0  0  0  0  0  0  0  0  0
    2.1863    7.1580    0.5107 C   0  0  0  0  0  0  0  0  0  0  0  0
    2.1921    5.9015   -0.1024 C   0  0  0  0  0  0  0  0  0  0  0  0
    2.1202    4.7463    0.6674 C   0  0  0  0  0  0  0  0  0  0  0  0
    2.2530    8.3923   -0.3233 C   0  0  0  0  0  0  0  0  0  0  0  0
    3.5481   -0.0149    1.1687 C   0  0  0  0  0  0  0  0  0  0  0  0
    4.2774    0.0133    0.2021 O   0  0  0  0  0  0  0  0  0  0  0  0
    4.0336   -0.0719    2.4352 O   0  0  0  0  0  0  0  0  0  0  0  0
    5.4294    0.1796    2.6055 C   0  0  0  0  0  0  0  0  0  0  0  0
    5.6760    1.6777    2.5168 C   0  0  0  0  0  0  0  0  0  0  0  0
    2.0332   -0.0070   -1.3447 C   0  0  0  0  0  0  0  0  0  0  0  0
   -0.4967    0.0315   -0.8791 H   0  0  0  0  0  0  0  0  0  0  0  0
   -2.5582   -0.1410    0.0060 H   0  0  0  0  0  0  0  0  0  0  0  0
   -2.6976    0.6829    1.5771 H   0  0  0  0  0  0  0  0  0  0  0  0
   -2.5964   -1.0621    1.5263 H   0  0  0  0  0  0  0  0  0  0  0  0
    0.1848   -0.5640    6.6458 H   0  0  0  0  0  0  0  0  0  0  0  0
   -1.4922   -0.8766    6.0356 H   0  0  0  0  0  0  0  0  0  0  0  0
   -0.1840    1.9360    6.0762 H   0  0  0  0  0  0  0  0  0  0  0  0
   -1.2894    1.3812    7.3515 H   0  0  0  0  0  0  0  0  0  0  0  0
   -1.8676    1.5680    5.6871 H   0  0  0  0  0  0  0  0  0  0  0  0
    2.4177    4.0232    4.9878 H   0  0  0  0  0  0  0  0  0  0  0  0
    2.0928    1.3733    5.2406 H   0  0  0  0  0  0  0  0  0  0  0  0
    1.9667    6.1675    3.7607 H   0  0  0  0  0  0  0  0  0  0  0  0
    2.0985    8.2222    2.3850 H   0  0  0  0  0  0  0  0  0  0  0  0
    2.2556    5.8267   -1.1855 H   0  0  0  0  0  0  0  0  0  0  0  0
    2.1312    3.7677    0.1874 H   0  0  0  0  0  0  0  0  0  0  0  0
    2.9510    8.2834   -1.1652 H   0  0  0  0  0  0  0  0  0  0  0  0
    2.5769    9.2724    0.2479 H   0  0  0  0  0  0  0  0  0  0  0  0
    1.2659    8.6300   -0.7487 H   0  0  0  0  0  0  0  0  0  0  0  0
    6.0124   -0.3938    1.8636 H   0  0  0  0  0  0  0  0  0  0  0  0
    5.6008   -0.2236    3.6210 H   0  0  0  0  0  0  0  0  0  0  0  0
    5.5572    2.0388    1.4855 H   0  0  0  0  0  0  0  0  0  0  0  0
    6.6824    1.9437    2.8521 H   0  0  0  0  0  0  0  0  0  0  0  0
    4.9534    2.2321    3.1343 H   0  0  0  0  0  0  0  0  0  0  0  0
    1.3347    0.0296   -2.1864 H   0  0  0  0  0  0  0  0  0  0  0  0
    2.6732   -0.9006   -1.4762 H   0  0  0  0  0  0  0  0  0  0  0  0
    2.7344    0.8462   -1.4515 H   0  0  0  0  0  0  0  0  0  0  0  0
  1  2  1  0  0  0  0
  1  7  1  0  0  0  0
  2  3  2  0  0  0  0
  3  4  1  0  0  0  0
  4 14  1  0  0  0  0
  4  5  1  1  0  0  0
  6  4  1  0  0  0  0
  6  9  1  0  0  0  0
  7  6  2  0  0  0  0
  8  7  1  0  0  0  0
  8 35  1  0  0  0  0
  8 34  1  0  0  0  0
  9 10  2  0  0  0  0
  9 11  1  0  0  0  0
 11 12  1  0  0  0  0
 12 37  1  0  0  0  0
 12 13  1  0  0  0  0
 12 36  1  0  0  0  0
 13 39  1  0  0  0  0
 14 18  2  0  0  0  0
 15 16  1  0  0  0  0
 15 14  1  0  0  0  0
 16 17  2  0  0  0  0
 17 18  1  0  0  0  0
 17 41  1  0  0  0  0
 18 42  1  0  0  0  0
 19 20  1  0  0  0  0
 19 16  1  0  0  0  0
 20 43  1  0  0  0  0
 21 44  1  0  0  0  0
 21 20  2  0  0  0  0
 22 21  1  0  0  0  0
 23 22  2  0  0  0  0
 23 24  1  0  0  0  0
 24 19  2  0  0  0  0
 25 48  1  0  0  0  0
 25 22  1  0  0  0  0
 26  3  1  0  0  0  0
 26 28  1  0  0  0  0
 27 26  2  0  0  0  0
 28 29  1  0  0  0  0
 29 51  1  0  0  0  0
 30 29  1  0  0  0  0
 30 53  1  0  0  0  0
 30 54  1  0  0  0  0
 31  2  1  0  0  0  0
 32  1  1  0  0  0  0
 33  8  1  0  0  0  0
 38 13  1  0  0  0  0
 40 13  1  0  0  0  0
 45 23  1  0  0  0  0
 46 24  1  0  0  0  0
 47 25  1  0  0  0  0
 49 25  1  0  0  0  0
 50 29  1  0  0  0  0
 52 30  1  0  0  0  0
 55 31  1  0  0  0  0
 56 31  1  0  0  0  0
 57 31  1  0  0  0  0
M  END
$$$$
