57
rmsd167.gzmat
N          0.00000        0.00000        0.00000
C          1.39450        0.00000        0.00000
C          2.09020        0.00000        1.17030
C          1.40740        0.11830        2.50360
H          1.83940       -0.65160        3.21340
C         -0.07850       -0.08690        2.39120
C         -0.72080       -0.08560        1.19310
C         -2.19830       -0.17410        1.04050
C         -0.83140       -0.17270        3.63840
O         -2.03570       -0.15440        3.76620
O          0.00520       -0.28970        4.70070
C         -0.56330       -0.11360        5.99920
C         -0.71190        1.37420        6.27550
C          1.65840        1.47240        3.06930
O          0.66760        2.38990        2.77290
C          1.02420        3.57160        3.40990
C          2.21860        3.40780        4.06910
C          2.62630        2.04660        3.85010
C          0.06640        4.63720        3.26040
C         -1.21190        4.36820        2.75620
C         -2.14080        5.39470        2.62250
C         -1.80440        6.69940        2.99160
C         -0.52900        6.96770        3.49750
C          0.40280        5.94440        3.63110
C         -2.79190        7.80690        2.84520
C          3.54460       -0.08610        1.16320
O          4.27070       -0.10340        0.19340
O          4.03800       -0.17650        2.42610
C          5.45860       -0.22090        2.56490
C          6.04430        1.16740        2.36380
C          2.02950       -0.02000       -1.34570
H         -0.49780        0.03190       -0.87850
H         -2.55420       -0.20740        0.00600
H         -2.69300        0.68270        1.54150
H         -2.60050       -1.06330        1.56370
H          0.20030       -0.59410        6.63870
H         -1.52130       -0.65790        6.07320
H          0.20520        1.91940        6.00620
H         -0.92420        1.57090        7.33040
H         -1.52710        1.80900        5.68030
H          2.75730        4.12680        4.64590
H          3.51240        1.58720        4.23340
H         -1.48090        3.35050        2.47240
H         -3.13180        5.17720        2.23060
H         -0.26450        7.98170        3.78850
H          1.39620        6.15750        4.02280
H         -2.91980        8.36200        3.78580
H         -3.78720        7.45280        2.54610
H         -2.46510        8.52990        2.08260
H          5.87810       -0.96050        1.86000
H          5.56270       -0.58390        3.60490
H          5.98440        1.46920        1.30780
H          7.09580        1.20800        2.66330
H          5.49500        1.92110        2.94360
H          1.32890       -0.01340       -2.18690
H          2.68740       -0.90430       -1.45990
H          2.71390        0.84350       -1.46990
