rmsd233.gzmat
 OpenBabel08211713403D

 57 59  0  0  1  0  0  0  0  0999 V2000
    0.0000    0.0000    0.0000 N   0  0  0  0  0  0  0  0  0  0  0  0
    1.3958    0.0000    0.0000 C   0  0  0  0  0  0  0  0  0  0  0  0
    2.0880    0.0000    1.1715 C   0  0  0  0  0  0  0  0  0  0  0  0
    1.3994    0.1388    2.5006 C   0  0  2  0  0  0  0  0  0  0  0  0
    1.8575   -0.5834    3.2416 H   0  0  0  0  0  0  0  0  0  0  0  0
   -0.0754   -0.1270    2.3903 C   0  0  0  0  0  0  0  0  0  0  0  0
   -0.7178   -0.1265    1.1909 C   0  0  0  0  0  0  0  0  0  0  0  0
   -2.1907   -0.2665    1.0359 C   0  0  0  0  0  0  0  0  0  0  0  0
   -0.8135   -0.3340    3.6298 C   0  0  0  0  0  0  0  0  0  0  0  0
   -1.9952   -0.5749    3.7458 O   0  0  0  0  0  0  0  0  0  0  0  0
    0.0056   -0.2198    4.7067 O   0  0  0  0  0  0  0  0  0  0  0  0
   -0.5747   -0.4373    5.9927 C   0  0  0  0  0  0  0  0  0  0  0  0
   -0.6301   -1.9313    6.2714 C   0  0  0  0  0  0  0  0  0  0  0  0
    1.6056    1.5268    2.9954 C   0  0  0  0  0  0  0  0  0  0  0  0
    0.9345    2.4819    2.2555 O   0  0  0  0  0  0  0  0  0  0  0  0
    1.2328    3.7078    2.8372 C   0  0  0  0  0  0  0  0  0  0  0  0
    2.0715    3.5272    3.9104 C   0  0  0  0  0  0  0  0  0  0  0  0
    2.3118    2.1132    4.0120 C   0  0  0  0  0  0  0  0  0  0  0  0
    0.6056    4.8353    2.1965 C   0  0  0  0  0  0  0  0  0  0  0  0
   -0.0226    4.6776    0.9550 C   0  0  0  0  0  0  0  0  0  0  0  0
   -0.6383    5.7627    0.3413 C   0  0  0  0  0  0  0  0  0  0  0  0
   -0.6336    7.0161    0.9585 C   0  0  0  0  0  0  0  0  0  0  0  0
   -0.0027    7.1748    2.1957 C   0  0  0  0  0  0  0  0  0  0  0  0
    0.6130    6.0916    2.8130 C   0  0  0  0  0  0  0  0  0  0  0  0
   -1.2852    8.1843    0.2997 C   0  0  0  0  0  0  0  0  0  0  0  0
    3.5441   -0.0587    1.1788 C   0  0  0  0  0  0  0  0  0  0  0  0
    4.2844   -0.0134    0.2214 O   0  0  0  0  0  0  0  0  0  0  0  0
    4.0169   -0.1965    2.4451 O   0  0  0  0  0  0  0  0  0  0  0  0
    5.4287   -0.0869    2.6266 C   0  0  0  0  0  0  0  0  0  0  0  0
    5.8174    1.3832    2.6303 C   0  0  0  0  0  0  0  0  0  0  0  0
    2.0365   -0.0162   -1.3426 C   0  0  0  0  0  0  0  0  0  0  0  0
   -0.4979    0.0322   -0.8784 H   0  0  0  0  0  0  0  0  0  0  0  0
   -2.5521   -0.2376    0.0033 H   0  0  0  0  0  0  0  0  0  0  0  0
   -2.7208    0.5263    1.6007 H   0  0  0  0  0  0  0  0  0  0  0  0
   -2.5482   -1.2107    1.4931 H   0  0  0  0  0  0  0  0  0  0  0  0
   -1.5696    0.0400    6.0488 H   0  0  0  0  0  0  0  0  0  0  0  0
    0.1390    0.0967    6.6480 H   0  0  0  0  0  0  0  0  0  0  0  0
   -1.3463   -2.4270    5.6009 H   0  0  0  0  0  0  0  0  0  0  0  0
   -0.9405   -2.1367    7.3004 H   0  0  0  0  0  0  0  0  0  0  0  0
    0.3473   -2.4025    6.1095 H   0  0  0  0  0  0  0  0  0  0  0  0
    2.4829    4.2694    4.5584 H   0  0  0  0  0  0  0  0  0  0  0  0
    2.9223    1.6353    4.7470 H   0  0  0  0  0  0  0  0  0  0  0  0
   -0.0277    3.7019    0.4695 H   0  0  0  0  0  0  0  0  0  0  0  0
   -1.1237    5.6327   -0.6226 H   0  0  0  0  0  0  0  0  0  0  0  0
    0.0047    8.1496    2.6779 H   0  0  0  0  0  0  0  0  0  0  0  0
    1.0984    6.2177    3.7796 H   0  0  0  0  0  0  0  0  0  0  0  0
   -1.8539    8.7951    1.0150 H   0  0  0  0  0  0  0  0  0  0  0  0
   -1.9851    7.8873   -0.4926 H   0  0  0  0  0  0  0  0  0  0  0  0
   -0.5334    8.8417   -0.1634 H   0  0  0  0  0  0  0  0  0  0  0  0
    5.9576   -0.6639    1.8475 H   0  0  0  0  0  0  0  0  0  0  0  0
    5.5602   -0.5685    3.6132 H   0  0  0  0  0  0  0  0  0  0  0  0
    5.7112    1.8212    1.6275 H   0  0  0  0  0  0  0  0  0  0  0  0
    6.8533    1.5260    2.9514 H   0  0  0  0  0  0  0  0  0  0  0  0
    5.1673    1.9628    3.3014 H   0  0  0  0  0  0  0  0  0  0  0  0
    1.3411    0.0026   -2.1874 H   0  0  0  0  0  0  0  0  0  0  0  0
    2.6864   -0.9050   -1.4596 H   0  0  0  0  0  0  0  0  0  0  0  0
    2.7288    0.8433   -1.4565 H   0  0  0  0  0  0  0  0  0  0  0  0
  1  2  1  0  0  0  0
  1  7  1  0  0  0  0
  2  3  2  0  0  0  0
  3 26  1  0  0  0  0
  3  4  1  0  0  0  0
  4 14  1  0  0  0  0
  4  5  1  1  0  0  0
  6  4  1  0  0  0  0
  6  9  1  0  0  0  0
  7  6  2  0  0  0  0
  8  7  1  0  0  0  0
  8 35  1  0  0  0  0
  8 34  1  0  0  0  0
  9 10  2  0  0  0  0
  9 11  1  0  0  0  0
 11 12  1  0  0  0  0
 12 36  1  0  0  0  0
 12 13  1  0  0  0  0
 12 37  1  0  0  0  0
 13 39  1  0  0  0  0
 14 18  2  0  0  0  0
 15 16  1  0  0  0  0
 15 14  1  0  0  0  0
 16 17  2  0  0  0  0
 17 18  1  0  0  0  0
 17 41  1  0  0  0  0
 18 42  1  0  0  0  0
 19 24  2  0  0  0  0
 19 16  1  0  0  0  0
 20 19  1  0  0  0  0
 21 20  2  0  0  0  0
 21 22  1  0  0  0  0
 22 23  2  0  0  0  0
 23 45  1  0  0  0  0
 23 24  1  0  0  0  0
 24 46  1  0  0  0  0
 25 22  1  0  0  0  0
 25 47  1  0  0  0  0
 26 28  1  0  0  0  0
 27 26  2  0  0  0  0
 28 29  1  0  0  0  0
 29 30  1  0  0  0  0
 29 51  1  0  0  0  0
 30 53  1  0  0  0  0
 30 54  1  0  0  0  0
 31  2  1  0  0  0  0
 32  1  1  0  0  0  0
 33  8  1  0  0  0  0
 38 13  1  0  0  0  0
 40 13  1  0  0  0  0
 43 20  1  0  0  0  0
 44 21  1  0  0  0  0
 48 25  1  0  0  0  0
 49 25  1  0  0  0  0
 50 29  1  0  0  0  0
 52 30  1  0  0  0  0
 55 31  1  0  0  0  0
 56 31  1  0  0  0  0
 57 31  1  0  0  0  0
M  END
$$$$
