rmsd131.gzmat
 OpenBabel08211713403D

 57 59  0  0  1  0  0  0  0  0999 V2000
    0.0000    0.0000    0.0000 N   0  0  0  0  0  0  0  0  0  0  0  0
    1.3956    0.0000    0.0000 C   0  0  0  0  0  0  0  0  0  0  0  0
    2.0868    0.0000    1.1729 C   0  0  0  0  0  0  0  0  0  0  0  0
    1.3942    0.1626    2.4977 C   0  0  2  0  0  0  0  0  0  0  0  0
    1.8647   -0.5260    3.2618 H   0  0  0  0  0  0  0  0  0  0  0  0
   -0.0752   -0.1334    2.3898 C   0  0  0  0  0  0  0  0  0  0  0  0
   -0.7178   -0.1376    1.1899 C   0  0  0  0  0  0  0  0  0  0  0  0
   -2.1886   -0.2962    1.0330 C   0  0  0  0  0  0  0  0  0  0  0  0
   -0.8150   -0.3534    3.6256 C   0  0  0  0  0  0  0  0  0  0  0  0
   -2.0020   -0.5711    3.7347 O   0  0  0  0  0  0  0  0  0  0  0  0
    0.0030   -0.2843    4.7072 O   0  0  0  0  0  0  0  0  0  0  0  0
   -0.5986   -0.4772    5.9878 C   0  0  0  0  0  0  0  0  0  0  0  0
   -0.7816   -1.9632    6.2502 C   0  0  0  0  0  0  0  0  0  0  0  0
    1.5695    1.5708    2.9454 C   0  0  0  0  0  0  0  0  0  0  0  0
    0.8996    2.4866    2.1554 O   0  0  0  0  0  0  0  0  0  0  0  0
    1.1747    3.7391    2.6893 C   0  0  0  0  0  0  0  0  0  0  0  0
    1.9938    3.6123    3.7854 C   0  0  0  0  0  0  0  0  0  0  0  0
    2.2489    2.2067    3.9501 C   0  0  0  0  0  0  0  0  0  0  0  0
    0.5581    4.8360    1.9880 C   0  0  0  0  0  0  0  0  0  0  0  0
    0.7007    6.1436    2.4649 C   0  0  0  0  0  0  0  0  0  0  0  0
    0.1066    7.2038    1.7871 C   0  0  0  0  0  0  0  0  0  0  0  0
   -0.6349    6.9698    0.6274 C   0  0  0  0  0  0  0  0  0  0  0  0
   -0.7788    5.6628    0.1506 C   0  0  0  0  0  0  0  0  0  0  0  0
   -0.1873    4.6019    0.8251 C   0  0  0  0  0  0  0  0  0  0  0  0
   -1.2776    8.0978   -0.1060 C   0  0  0  0  0  0  0  0  0  0  0  0
    3.5402   -0.0955    1.1765 C   0  0  0  0  0  0  0  0  0  0  0  0
    4.2716   -0.1399    0.2117 O   0  0  0  0  0  0  0  0  0  0  0  0
    4.0242   -0.1368    2.4452 O   0  0  0  0  0  0  0  0  0  0  0  0
    5.4385   -0.2548    2.5976 C   0  0  0  0  0  0  0  0  0  0  0  0
    5.8665   -1.6927    2.3512 C   0  0  0  0  0  0  0  0  0  0  0  0
    2.0347   -0.0145   -1.3435 C   0  0  0  0  0  0  0  0  0  0  0  0
   -0.4967    0.0361   -0.8787 H   0  0  0  0  0  0  0  0  0  0  0  0
   -2.5519   -0.2517    0.0017 H   0  0  0  0  0  0  0  0  0  0  0  0
   -2.7302    0.4773    1.6145 H   0  0  0  0  0  0  0  0  0  0  0  0
   -2.5324   -1.2545    1.4706 H   0  0  0  0  0  0  0  0  0  0  0  0
   -1.5500    0.0815    6.0455 H   0  0  0  0  0  0  0  0  0  0  0  0
    0.1537   -0.0124    6.6527 H   0  0  0  0  0  0  0  0  0  0  0  0
   -1.4950   -2.4007    5.5367 H   0  0  0  0  0  0  0  0  0  0  0  0
   -1.1677   -2.1477    7.2575 H   0  0  0  0  0  0  0  0  0  0  0  0
    0.1634   -2.5082    6.1420 H   0  0  0  0  0  0  0  0  0  0  0  0
    2.3834    4.3851    4.4106 H   0  0  0  0  0  0  0  0  0  0  0  0
    2.8552    1.7683    4.7124 H   0  0  0  0  0  0  0  0  0  0  0  0
    1.2767    6.3313    3.3697 H   0  0  0  0  0  0  0  0  0  0  0  0
    0.2224    8.2167    2.1658 H   0  0  0  0  0  0  0  0  0  0  0  0
   -1.3558    5.4767   -0.7519 H   0  0  0  0  0  0  0  0  0  0  0  0
   -0.3025    3.5852    0.4508 H   0  0  0  0  0  0  0  0  0  0  0  0
   -0.9661    8.1197   -1.1605 H   0  0  0  0  0  0  0  0  0  0  0  0
   -1.0316    9.0788    0.3212 H   0  0  0  0  0  0  0  0  0  0  0  0
   -2.3741    8.0069   -0.0915 H   0  0  0  0  0  0  0  0  0  0  0  0
    5.5684    0.0568    3.6513 H   0  0  0  0  0  0  0  0  0  0  0  0
    5.9483    0.4581    1.9251 H   0  0  0  0  0  0  0  0  0  0  0  0
    5.2670   -2.3950    2.9432 H   0  0  0  0  0  0  0  0  0  0  0  0
    6.9196   -1.8471    2.6049 H   0  0  0  0  0  0  0  0  0  0  0  0
    5.7362   -1.9648    1.2938 H   0  0  0  0  0  0  0  0  0  0  0  0
    1.3392    0.0173   -2.1881 H   0  0  0  0  0  0  0  0  0  0  0  0
    2.6775   -0.9081   -1.4676 H   0  0  0  0  0  0  0  0  0  0  0  0
    2.7346    0.8392   -1.4522 H   0  0  0  0  0  0  0  0  0  0  0  0
  1  2  1  0  0  0  0
  1  7  1  0  0  0  0
  2  3  2  0  0  0  0
  3 26  1  0  0  0  0
  3  4  1  0  0  0  0
  4 14  1  0  0  0  0
  4  5  1  1  0  0  0
  6  4  1  0  0  0  0
  6  9  1  0  0  0  0
  7  6  2  0  0  0  0
  8  7  1  0  0  0  0
  8 35  1  0  0  0  0
  8 34  1  0  0  0  0
  9 10  2  0  0  0  0
  9 11  1  0  0  0  0
 11 12  1  0  0  0  0
 12 36  1  0  0  0  0
 12 13  1  0  0  0  0
 12 37  1  0  0  0  0
 13 39  1  0  0  0  0
 14 18  2  0  0  0  0
 15 16  1  0  0  0  0
 15 14  1  0  0  0  0
 16 17  2  0  0  0  0
 17 18  1  0  0  0  0
 17 41  1  0  0  0  0
 18 42  1  0  0  0  0
 19 20  1  0  0  0  0
 19 16  1  0  0  0  0
 20 43  1  0  0  0  0
 21 44  1  0  0  0  0
 21 20  2  0  0  0  0
 22 21  1  0  0  0  0
 23 22  2  0  0  0  0
 23 24  1  0  0  0  0
 24 19  2  0  0  0  0
 25 49  1  0  0  0  0
 25 48  1  0  0  0  0
 25 22  1  0  0  0  0
 26 28  1  0  0  0  0
 27 26  2  0  0  0  0
 28 29  1  0  0  0  0
 29 50  1  0  0  0  0
 30 29  1  0  0  0  0
 30 53  1  0  0  0  0
 30 52  1  0  0  0  0
 31  2  1  0  0  0  0
 32  1  1  0  0  0  0
 33  8  1  0  0  0  0
 38 13  1  0  0  0  0
 40 13  1  0  0  0  0
 45 23  1  0  0  0  0
 46 24  1  0  0  0  0
 47 25  1  0  0  0  0
 51 29  1  0  0  0  0
 54 30  1  0  0  0  0
 55 31  1  0  0  0  0
 56 31  1  0  0  0  0
 57 31  1  0  0  0  0
M  END
$$$$
