31
rmsd177.gzmat
Cl         0.00000        0.00000        0.00000
C          1.70770        0.00000        0.00000
C          2.37630        0.00000        1.21720
C          3.76880        0.00830        1.21940
C          4.45790        0.02900        0.00030
N          5.87200        0.03620       -0.06270
C          6.69560        0.54290        0.87620
C          8.09030        0.58760        0.84220
C          8.55580        1.22420        2.05390
O          9.64890        1.48140        2.46490
C          7.25550        1.56550        2.82390
O          6.15560        1.09030        1.99960
C          8.83770        0.07490       -0.26760
O          8.31390       -0.38270       -1.27480
O         10.17140        0.12310       -0.09730
C         10.97590       -0.32000       -1.19700
C         11.11700        0.81170       -2.20110
C          3.76460        0.01090       -1.22200
C          2.37500       -0.00230       -1.22050
H          1.83020       -0.00780        2.16270
H          4.30260       -0.01440        2.17090
H          6.34310       -0.32080       -0.92480
H          7.09840        2.64610        2.94570
H          7.16890        1.03470        3.78160
H         10.54460       -1.23290       -1.64500
H         11.92540       -0.55940       -0.68160
H         10.15460        1.02950       -2.68500
H         11.83660        0.56420       -2.98810
H         11.45160        1.73600       -1.71210
H          4.30820        0.01390       -2.16770
H          1.82500       -0.01060       -2.16340
