31
rmsd152.gzmat
Cl         0.00000        0.00000        0.00000
C          1.70750        0.00000        0.00000
C          2.37400        0.00000        1.21800
C          3.76670       -0.00060        1.22350
C          4.45950       -0.01320        0.00660
N          5.87270       -0.00020       -0.06350
C          6.72110       -0.41120        0.90030
C          8.11610       -0.41190        0.85090
C          8.61660       -0.93520        2.10230
O          9.72310       -1.11770        2.51790
C          7.33780       -1.26050        2.91370
O          6.21320       -0.89290        2.06780
C          8.83790        0.04060       -0.30180
O          8.29020        0.41810       -1.32930
O         10.17510        0.00540       -0.15610
C         10.95840        0.46360       -1.26440
C         10.91970        1.98040       -1.34300
C          3.76620       -0.00490       -1.21710
C          2.37690        0.00210       -1.21870
H          1.82500        0.00370        2.16170
H          4.29330        0.02200        2.17870
H          6.33070        0.31030       -0.95210
H          7.24120       -0.65690        3.82610
H          7.22150       -2.33270        3.12420
H         10.60570       -0.01710       -2.19390
H         11.95710        0.07390       -0.98560
H          9.91880        2.33350       -1.63340
H         11.63280        2.36220       -2.08110
H         11.15830        2.43640       -0.37380
H          4.31240       -0.00830       -2.16140
H          1.82810        0.00750       -2.16260
