rmsd233.gzmat
 OpenBabel08211713383D

 31 32  0  0  0  0  0  0  0  0999 V2000
    0.0000    0.0000    0.0000 Cl  0  0  0  0  0  0  0  0  0  0  0  0
    1.7075    0.0000    0.0000 C   0  0  0  0  0  0  0  0  0  0  0  0
    2.3772    0.0000    1.2186 C   0  0  0  0  0  0  0  0  0  0  0  0
    3.7670   -0.0002    1.2174 C   0  0  0  0  0  0  0  0  0  0  0  0
    4.4594   -0.0021   -0.0060 C   0  0  0  0  0  0  0  0  0  0  0  0
    5.8736   -0.0313    0.0564 N   0  0  0  0  0  0  0  0  0  0  0  0
    6.7125    0.3981   -0.9082 C   0  0  0  0  0  0  0  0  0  0  0  0
    8.1064    0.3629   -0.8999 C   0  0  0  0  0  0  0  0  0  0  0  0
    8.5853    0.9333   -2.1399 C   0  0  0  0  0  0  0  0  0  0  0  0
    9.6842    1.1046   -2.5793 O   0  0  0  0  0  0  0  0  0  0  0  0
    7.2939    1.3340   -2.8941 C   0  0  0  0  0  0  0  0  0  0  0  0
    6.1852    0.9444   -2.0389 O   0  0  0  0  0  0  0  0  0  0  0  0
    8.8596   -0.1675    0.1986 C   0  0  0  0  0  0  0  0  0  0  0  0
    8.3499   -0.5767    1.2318 O   0  0  0  0  0  0  0  0  0  0  0  0
   10.1862   -0.1881   -0.0275 O   0  0  0  0  0  0  0  0  0  0  0  0
   11.0202   -0.6845    1.0244 C   0  0  0  0  0  0  0  0  0  0  0  0
   11.1956    0.3835    2.0902 C   0  0  0  0  0  0  0  0  0  0  0  0
    3.7663   -0.0105   -1.2232 C   0  0  0  0  0  0  0  0  0  0  0  0
    2.3739   -0.0049   -1.2181 C   0  0  0  0  0  0  0  0  0  0  0  0
    1.8286    0.0024    2.1627 H   0  0  0  0  0  0  0  0  0  0  0  0
    4.3115    0.0056    2.1624 H   0  0  0  0  0  0  0  0  0  0  0  0
    6.3342   -0.3878    0.9226 H   0  0  0  0  0  0  0  0  0  0  0  0
    7.1569    0.7886   -3.8371 H   0  0  0  0  0  0  0  0  0  0  0  0
    7.1992    2.4193   -3.0368 H   0  0  0  0  0  0  0  0  0  0  0  0
   11.9547   -0.8919    0.4674 H   0  0  0  0  0  0  0  0  0  0  0  0
   10.6001   -1.6228    1.4272 H   0  0  0  0  0  0  0  0  0  0  0  0
   11.4737    1.3474    1.6439 H   0  0  0  0  0  0  0  0  0  0  0  0
   11.9721    0.1076    2.8111 H   0  0  0  0  0  0  0  0  0  0  0  0
   10.2605    0.5409    2.6467 H   0  0  0  0  0  0  0  0  0  0  0  0
    4.2941   -0.0368   -2.1778 H   0  0  0  0  0  0  0  0  0  0  0  0
    1.8248   -0.0080   -2.1618 H   0  0  0  0  0  0  0  0  0  0  0  0
  1  2  1  0  0  0  0
  2  3  2  0  0  0  0
  3 20  1  0  0  0  0
  4  3  1  0  0  0  0
  4 21  1  0  0  0  0
  5  6  1  0  0  0  0
  5  4  2  0  0  0  0
  6 22  1  0  0  0  0
  7  8  2  0  0  0  0
  7  6  1  0  0  0  0
  8 13  1  0  0  0  0
  9  8  1  0  0  0  0
 10  9  2  0  0  0  0
 11  9  1  0  0  0  0
 11 12  1  0  0  0  0
 12  7  1  0  0  0  0
 13 14  2  0  0  0  0
 15 13  1  0  0  0  0
 15 16  1  0  0  0  0
 16 26  1  0  0  0  0
 16 17  1  0  0  0  0
 17 29  1  0  0  0  0
 17 28  1  0  0  0  0
 18 19  2  0  0  0  0
 18  5  1  0  0  0  0
 19  2  1  0  0  0  0
 23 11  1  0  0  0  0
 24 11  1  0  0  0  0
 25 16  1  0  0  0  0
 27 17  1  0  0  0  0
 30 18  1  0  0  0  0
 31 19  1  0  0  0  0
M  END
$$$$
