31
rmsd230.gzmat
Cl         0.00000        0.00000        0.00000
C          1.70750        0.00000        0.00000
C          2.37590        0.00000        1.21930
C          3.76580        0.00530        1.21860
C          4.45680        0.00950       -0.00470
N          5.87210       -0.00960        0.05170
C          6.69570        0.53180       -0.86730
C          8.09070        0.55000       -0.84970
C          8.55270        1.24910       -2.02780
O          9.64530        1.50890       -2.43850
C          7.24940        1.65810       -2.75860
O          6.15140        1.15170       -1.95110
C          8.84800       -0.05230        0.20750
O          8.33520       -0.59370        1.17720
O         10.17990        0.03870        0.03930
C         11.00050       -0.58390        1.03420
C         11.01590       -2.08880        0.82600
C          3.76620       -0.00280       -1.22340
C          2.37410       -0.00190       -1.21850
H          1.82690       -0.00080        2.16300
H          4.31180        0.01350        2.16290
H          6.34210       -0.42830        0.88530
H          7.14230        1.18840       -3.74530
H          7.11010        2.74670       -2.81270
H         10.64980       -0.29960        2.04180
H         11.97870       -0.11120        0.82040
H         10.04650       -2.53320        1.09390
H         11.78360       -2.57120        1.43920
H         11.21190       -2.34250       -0.22370
H          4.30050       -0.02520       -2.17490
H          1.82480       -0.00600       -2.16190
