31
rmsd233.gzmat
Cl         0.00000        0.00000        0.00000
C          1.70750        0.00000        0.00000
C          2.37720        0.00000        1.21860
C          3.76700       -0.00020        1.21740
C          4.45940       -0.00210       -0.00600
N          5.87360       -0.03130        0.05640
C          6.71250        0.39810       -0.90820
C          8.10640        0.36290       -0.89990
C          8.58530        0.93330       -2.13990
O          9.68420        1.10460       -2.57930
C          7.29390        1.33400       -2.89410
O          6.18520        0.94440       -2.03890
C          8.85960       -0.16750        0.19860
O          8.34990       -0.57670        1.23180
O         10.18620       -0.18810       -0.02750
C         11.02020       -0.68450        1.02440
C         11.19560        0.38350        2.09020
C          3.76630       -0.01050       -1.22320
C          2.37390       -0.00490       -1.21810
H          1.82860        0.00240        2.16270
H          4.31150        0.00560        2.16240
H          6.33420       -0.38780        0.92260
H          7.15690        0.78860       -3.83710
H          7.19920        2.41930       -3.03680
H         11.95470       -0.89190        0.46740
H         10.60010       -1.62280        1.42720
H         11.47370        1.34740        1.64390
H         11.97210        0.10760        2.81110
H         10.26050        0.54090        2.64670
H          4.29410       -0.03680       -2.17780
H          1.82480       -0.00800       -2.16180
