31
rmsd242.gzmat
Cl         0.00000        0.00000        0.00000
C          1.70760        0.00000        0.00000
C          2.37630        0.00000        1.21930
C          3.76620       -0.01340        1.21790
C          4.45600       -0.02950       -0.00600
N          5.87130       -0.03110        0.04850
C          6.68720       -0.57100       -0.87800
C          8.08200       -0.61520       -0.85610
C          8.53500       -1.30230       -2.04440
O          9.62450       -1.56830       -2.45920
C          7.22680       -1.68330       -2.78160
O          6.13570       -1.16640       -1.97160
C          8.84170       -0.05040        0.21960
O          8.32930        0.50770        1.18100
O         10.17170       -0.20710        0.09010
C         10.99150        0.37350        1.11170
C         11.21340        1.84400        0.80130
C          3.76500       -0.01240       -1.22400
C          2.37330       -0.00150       -1.21890
H          1.82730        0.00690        2.16290
H          4.31240       -0.01910        2.16210
H          6.34860        0.37170        0.88620
H          7.06980       -2.76920       -2.84410
H          7.12890       -1.20390       -3.76450
H         11.91310       -0.23130        1.01260
H         10.53650        0.21460        2.10560
H         11.60560        1.98200       -0.21450
H         11.91890        2.30140        1.50300
H         10.27020        2.40510        0.86420
H          4.29900        0.00470       -2.17560
H          1.82400        0.00630       -2.16230
