31
rmsd120.gzmat
Cl         0.00000        0.00000        0.00000
C          1.70740        0.00000        0.00000
C          2.37500        0.00000        1.22000
C          3.76470        0.00600        1.22020
C          4.45730        0.01460       -0.00290
N          5.87170        0.00010        0.05970
C          6.70440        0.48760       -0.88160
C          8.09970        0.49590       -0.85490
C          8.57480        1.12870       -2.06500
O          9.67180        1.36460       -2.47780
C          7.27980        1.50410       -2.82780
O          6.17290        1.05410       -2.00000
C          8.84490       -0.04430        0.24380
O          8.32150       -0.50060        1.25130
O         10.17750       -0.02040        0.05840
C         10.98940       -0.50260        1.13530
C         11.15340        0.59250        2.17630
C          3.76690        0.00260       -1.22140
C          2.37450       -0.00110       -1.21800
H          1.82460       -0.00130        2.16310
H          4.31090        0.00990        2.16430
H          6.33730       -0.37230        0.91800
H          7.17530        0.97840       -3.78640
H          7.14880        2.58870       -2.94600
H         11.93210       -0.73050        0.60080
H         10.55580       -1.42690        1.55640
H         11.47730        1.53410        1.71280
H         11.89300        0.31720        2.93550
H         10.20330        0.79280        2.69250
H          4.29890       -0.01720       -2.17380
H          1.82620       -0.00740       -2.16220
