rmsd248.gzmat
 OpenBabel08211713383D

 31 32  0  0  0  0  0  0  0  0999 V2000
    0.0000    0.0000    0.0000 Cl  0  0  0  0  0  0  0  0  0  0  0  0
    1.7077    0.0000    0.0000 C   0  0  0  0  0  0  0  0  0  0  0  0
    2.3753    0.0000    1.2174 C   0  0  0  0  0  0  0  0  0  0  0  0
    3.7678   -0.0028    1.2201 C   0  0  0  0  0  0  0  0  0  0  0  0
    4.4578   -0.0136    0.0016 C   0  0  0  0  0  0  0  0  0  0  0  0
    5.8717   -0.0002   -0.0648 N   0  0  0  0  0  0  0  0  0  0  0  0
    6.7106   -0.4777    0.8757 C   0  0  0  0  0  0  0  0  0  0  0  0
    8.1059   -0.4954    0.8306 C   0  0  0  0  0  0  0  0  0  0  0  0
    8.5932   -1.1091    2.0453 C   0  0  0  0  0  0  0  0  0  0  0  0
    9.6945   -1.3410    2.4494 O   0  0  0  0  0  0  0  0  0  0  0  0
    7.3062   -1.4643    2.8313 C   0  0  0  0  0  0  0  0  0  0  0  0
    6.1904   -1.0223    2.0097 O   0  0  0  0  0  0  0  0  0  0  0  0
    8.8352    0.0256   -0.2875 C   0  0  0  0  0  0  0  0  0  0  0  0
    8.2938    0.4926   -1.2812 O   0  0  0  0  0  0  0  0  0  0  0  0
   10.1718   -0.0532   -0.1549 O   0  0  0  0  0  0  0  0  0  0  0  0
   10.9567    0.4874   -1.2246 C   0  0  0  0  0  0  0  0  0  0  0  0
   10.9910    2.0028   -1.1258 C   0  0  0  0  0  0  0  0  0  0  0  0
    3.7645   -0.0031   -1.2212 C   0  0  0  0  0  0  0  0  0  0  0  0
    2.3749    0.0024   -1.2201 C   0  0  0  0  0  0  0  0  0  0  0  0
    1.8275    0.0052    2.1621 H   0  0  0  0  0  0  0  0  0  0  0  0
    4.3002    0.0176    2.1720 H   0  0  0  0  0  0  0  0  0  0  0  0
    6.3342    0.3632   -0.9300 H   0  0  0  0  0  0  0  0  0  0  0  0
    7.2174   -0.9212    3.7819 H   0  0  0  0  0  0  0  0  0  0  0  0
    7.1710   -2.5458    2.9701 H   0  0  0  0  0  0  0  0  0  0  0  0
   10.5632    0.1360   -2.1945 H   0  0  0  0  0  0  0  0  0  0  0  0
   11.9390    0.0211   -1.0181 H   0  0  0  0  0  0  0  0  0  0  0  0
   10.0061    2.4346   -1.3561 H   0  0  0  0  0  0  0  0  0  0  0  0
   11.7144    2.4344   -1.8253 H   0  0  0  0  0  0  0  0  0  0  0  0
   11.2610    2.3290   -0.1135 H   0  0  0  0  0  0  0  0  0  0  0  0
    4.3093   -0.0060   -2.1662 H   0  0  0  0  0  0  0  0  0  0  0  0
    1.8246    0.0066   -2.1632 H   0  0  0  0  0  0  0  0  0  0  0  0
  2  1  1  0  0  0  0
  2  3  2  0  0  0  0
  3  4  1  0  0  0  0
  3 20  1  0  0  0  0
  4 21  1  0  0  0  0
  5  4  2  0  0  0  0
  6  5  1  0  0  0  0
  6  7  1  0  0  0  0
  7 12  1  0  0  0  0
  8  7  2  0  0  0  0
  8  9  1  0  0  0  0
  9 10  2  0  0  0  0
  9 11  1  0  0  0  0
 11 24  1  0  0  0  0
 11 23  1  0  0  0  0
 12 11  1  0  0  0  0
 13 15  1  0  0  0  0
 13  8  1  0  0  0  0
 14 13  2  0  0  0  0
 16 17  1  0  0  0  0
 16 26  1  0  0  0  0
 16 15  1  0  0  0  0
 17 29  1  0  0  0  0
 18 19  2  0  0  0  0
 18  5  1  0  0  0  0
 19  2  1  0  0  0  0
 22  6  1  0  0  0  0
 25 16  1  0  0  0  0
 27 17  1  0  0  0  0
 28 17  1  0  0  0  0
 30 18  1  0  0  0  0
 31 19  1  0  0  0  0
M  END
$$$$
