31
rmsd207.gzmat
Cl         0.00000        0.00000        0.00000
C          1.70780        0.00000        0.00000
C          2.37510        0.00000        1.21790
C          3.76760       -0.00190        1.22100
C          4.45770       -0.01290        0.00230
N          5.87230       -0.00290       -0.06040
C          6.70320       -0.50380        0.87550
C          8.09760       -0.53880        0.83810
C          8.57110       -1.16790        2.05080
O          9.66760       -1.41020        2.46170
C          7.27550       -1.52090        2.82310
O          6.17030       -1.05670        2.00000
C          8.84470       -0.02050       -0.26970
O          8.32250        0.46760       -1.26300
O         10.17800       -0.13230       -0.12410
C         10.98980        0.39530       -1.17950
C         11.10210        1.90340       -1.03330
C          3.76490       -0.00130       -1.22070
C          2.37520        0.00390       -1.22010
H          1.82670        0.00370        2.16200
H          4.30020        0.01800        2.17330
H          6.33850        0.36610       -0.91960
H          7.18520       -0.99070        3.78070
H          7.12930       -2.60320        2.94510
H         10.57980        0.09460       -2.15990
H         11.94670       -0.12710       -0.98710
H         10.14150        2.39230       -1.25000
H         11.84880        2.31870       -1.71770
H         11.38600        2.18290       -0.01040
H          4.30890       -0.00140       -2.16610
H          1.82460        0.00750       -2.16320
