rmsd78.gzmat
 OpenBabel08211713413D

 62 65  0  0  1  0  0  0  0  0999 V2000
    0.0000    0.0000    0.0000 C   0  0  0  0  0  0  0  0  0  0  0  0
    1.3373    0.0000    0.0000 C   0  0  0  0  0  0  0  0  0  0  0  0
    2.1661    0.0000    1.2665 C   0  0  2  0  0  0  0  0  0  0  0  0
    3.0159   -0.7339    1.1518 H   0  0  0  0  0  0  0  0  0  0  0  0
    1.3179   -0.4144    2.4900 C   0  0  0  0  0  0  0  0  0  0  0  0
   -0.0231    0.3216    2.4992 C   0  0  0  0  0  0  0  0  0  0  0  0
   -0.8304   -0.0219    1.2393 C   0  0  0  0  0  0  0  0  0  0  0  0
    2.7188    1.3484    1.4508 N   0  0  0  0  0  0  0  0  0  0  0  0
    3.9781    1.5756    1.9487 C   0  0  0  0  0  0  0  0  0  0  0  0
    4.4461    2.6835    2.1197 O   0  0  0  0  0  0  0  0  0  0  0  0
    4.6151    0.4085    2.2350 O   0  0  0  0  0  0  0  0  0  0  0  0
    5.9967    0.5380    2.6351 C   0  0  1  0  0  0  0  0  0  0  0  0
    6.0623    1.4100    3.3282 H   0  0  0  0  0  0  0  0  0  0  0  0
    6.2489   -0.7899    3.3752 C   0  0  1  0  0  0  0  0  0  0  0  0
    5.4094   -0.9457    4.0979 H   0  0  0  0  0  0  0  0  0  0  0  0
    6.2225   -1.9391    2.3556 C   0  0  0  0  0  0  0  0  0  0  0  0
    7.2489   -1.7348    1.2380 C   0  0  0  0  0  0  0  0  0  0  0  0
    6.9939   -0.4341    0.4559 C   0  0  2  0  0  0  0  0  0  0  0  0
    7.8775   -0.2550   -0.2089 H   0  0  0  0  0  0  0  0  0  0  0  0
    6.8772    0.7677    1.4077 C   0  0  0  0  0  0  0  0  0  0  0  0
    5.7579   -0.5607   -0.4386 C   0  0  0  0  0  0  0  0  0  0  0  0
    7.5708   -0.7204    4.1752 C   0  0  0  0  0  0  0  0  0  0  0  0
    7.5324    0.4145    5.2080 C   0  0  0  0  0  0  0  0  0  0  0  0
    7.8340   -2.0442    4.9057 C   0  0  0  0  0  0  0  0  0  0  0  0
    2.1151   -0.0159   -1.2466 C   0  0  0  0  0  0  0  0  0  0  0  0
    2.5716    1.1788   -1.7974 C   0  0  0  0  0  0  0  0  0  0  0  0
    3.3424    1.2066   -2.9744 C   0  0  0  0  0  0  0  0  0  0  0  0
    3.6118   -0.0117   -3.5474 C   0  0  0  0  0  0  0  0  0  0  0  0
    4.3370   -0.2623   -4.6865 O   0  0  0  0  0  0  0  0  0  0  0  0
    4.3150   -1.6981   -4.8420 C   0  0  0  0  0  0  0  0  0  0  0  0
    3.5506   -2.2854   -3.7649 O   0  0  0  0  0  0  0  0  0  0  0  0
    3.1419   -1.2259   -2.9929 C   0  0  0  0  0  0  0  0  0  0  0  0
    2.3935   -1.2653   -1.8434 C   0  0  0  0  0  0  0  0  0  0  0  0
   -0.5652   -0.0093   -0.9328 H   0  0  0  0  0  0  0  0  0  0  0  0
    1.1537   -1.5078    2.4653 H   0  0  0  0  0  0  0  0  0  0  0  0
    1.8812   -0.2105    3.4202 H   0  0  0  0  0  0  0  0  0  0  0  0
    0.1432    1.4139    2.5586 H   0  0  0  0  0  0  0  0  0  0  0  0
   -0.5990    0.0582    3.4049 H   0  0  0  0  0  0  0  0  0  0  0  0
   -1.6871    0.6760    1.1416 H   0  0  0  0  0  0  0  0  0  0  0  0
   -1.2840   -1.0314    1.3482 H   0  0  0  0  0  0  0  0  0  0  0  0
    2.1104    2.1356    1.2820 H   0  0  0  0  0  0  0  0  0  0  0  0
    6.3917   -2.9075    2.8581 H   0  0  0  0  0  0  0  0  0  0  0  0
    5.2055   -2.0034    1.9164 H   0  0  0  0  0  0  0  0  0  0  0  0
    8.2700   -1.7193    1.6619 H   0  0  0  0  0  0  0  0  0  0  0  0
    7.2238   -2.5965    0.5458 H   0  0  0  0  0  0  0  0  0  0  0  0
    7.8883    1.0586    1.7544 H   0  0  0  0  0  0  0  0  0  0  0  0
    6.4894    1.6464    0.8492 H   0  0  0  0  0  0  0  0  0  0  0  0
    4.8422   -0.6687    0.1552 H   0  0  0  0  0  0  0  0  0  0  0  0
    5.8271   -1.4302   -1.0984 H   0  0  0  0  0  0  0  0  0  0  0  0
    5.6270    0.3258   -1.0689 H   0  0  0  0  0  0  0  0  0  0  0  0
    8.4108   -0.5311    3.4643 H   0  0  0  0  0  0  0  0  0  0  0  0
    6.6541    0.3376    5.8575 H   0  0  0  0  0  0  0  0  0  0  0  0
    7.5117    1.4015    4.7327 H   0  0  0  0  0  0  0  0  0  0  0  0
    8.4186    0.3910    5.8518 H   0  0  0  0  0  0  0  0  0  0  0  0
    6.9924   -2.3213    5.5487 H   0  0  0  0  0  0  0  0  0  0  0  0
    8.7243   -1.9751    5.5403 H   0  0  0  0  0  0  0  0  0  0  0  0
    8.0035   -2.8672    4.2033 H   0  0  0  0  0  0  0  0  0  0  0  0
    2.3375    2.1224   -1.3046 H   0  0  0  0  0  0  0  0  0  0  0  0
    3.7010    2.1398   -3.3961 H   0  0  0  0  0  0  0  0  0  0  0  0
    3.7974   -1.9254   -5.7835 H   0  0  0  0  0  0  0  0  0  0  0  0
    5.3482   -2.0614   -4.7561 H   0  0  0  0  0  0  0  0  0  0  0  0
    2.0339   -2.1925   -1.4109 H   0  0  0  0  0  0  0  0  0  0  0  0
  1  7  1  0  0  0  0
  2  1  2  0  0  0  0
  2  3  1  0  0  0  0
  3  4  1  6  0  0  0
  3  8  1  0  0  0  0
  3  5  1  0  0  0  0
  5  6  1  0  0  0  0
  5 36  1  0  0  0  0
  6 37  1  0  0  0  0
  6 38  1  0  0  0  0
  7 40  1  0  0  0  0
  7  6  1  0  0  0  0
  8  9  1  0  0  0  0
  9 10  2  0  0  0  0
  9 11  1  0  0  0  0
 11 12  1  0  0  0  0
 12 13  1  1  0  0  0
 12 14  1  0  0  0  0
 14 15  1  1  0  0  0
 14 22  1  0  0  0  0
 16 42  1  0  0  0  0
 16 14  1  0  0  0  0
 17 44  1  0  0  0  0
 17 16  1  0  0  0  0
 18 19  1  6  0  0  0
 18 17  1  0  0  0  0
 18 20  1  0  0  0  0
 20 46  1  0  0  0  0
 20 12  1  0  0  0  0
 21 48  1  0  0  0  0
 21 18  1  0  0  0  0
 22 24  1  0  0  0  0
 22 23  1  0  0  0  0
 23 54  1  0  0  0  0
 23 52  1  0  0  0  0
 24 56  1  0  0  0  0
 24 55  1  0  0  0  0
 25  2  1  0  0  0  0
 26 58  1  0  0  0  0
 26 25  1  0  0  0  0
 27 26  2  0  0  0  0
 28 32  2  0  0  0  0
 28 27  1  0  0  0  0
 29 28  1  0  0  0  0
 30 61  1  0  0  0  0
 30 29  1  0  0  0  0
 30 31  1  0  0  0  0
 31 32  1  0  0  0  0
 32 33  1  0  0  0  0
 33 62  1  0  0  0  0
 33 25  2  0  0  0  0
 34  1  1  0  0  0  0
 35  5  1  0  0  0  0
 39  7  1  0  0  0  0
 41  8  1  0  0  0  0
 43 16  1  0  0  0  0
 45 17  1  0  0  0  0
 47 20  1  0  0  0  0
 49 21  1  0  0  0  0
 50 21  1  0  0  0  0
 51 22  1  0  0  0  0
 53 23  1  0  0  0  0
 57 24  1  0  0  0  0
 59 27  1  0  0  0  0
 60 30  1  0  0  0  0
M  END
$$$$
