
     RDKit          3D

 62 65  0  0  0  0  0  0  0  0999 V2000
    0.0142   -0.2509   -0.1203 C   0  0  0  0  0  0  0  0  0  0  0  0
    1.3386   -0.0558    0.0544 C   0  0  0  0  0  0  0  0  0  0  0  0
    1.9436   -0.1275    1.4503 C   0  0  2  0  0  0  0  0  0  0  0  0
    2.8391   -0.7620    1.4271 H   0  0  0  0  0  0  0  0  0  0  0  0
    0.9860   -0.7296    2.4892 C   0  0  0  0  0  0  0  0  0  0  0  0
   -0.4166   -0.1449    2.3607 C   0  0  0  0  0  0  0  0  0  0  0  0
   -0.9816   -0.4831    0.9817 C   0  0  0  0  0  0  0  0  0  0  0  0
    2.4306    1.1894    1.8467 N   0  0  0  0  0  0  0  0  0  0  0  0
    3.7277    1.4092    2.1924 C   0  0  0  0  0  0  0  0  0  0  0  0
    4.5773    0.5464    2.3130 O   0  0  0  0  0  0  0  0  0  0  0  0
    3.9425    2.7278    2.3883 O   0  0  0  0  0  0  0  0  0  0  0  0
    5.2562    3.1188    2.8520 C   0  0  1  0  0  0  0  0  0  0  0  0
    5.9787    2.4900    2.3183 H   0  0  0  0  0  0  0  0  0  0  0  0
    5.4133    4.5988    2.4728 C   0  0  1  0  0  0  0  0  0  0  0  0
    5.1247    4.6817    1.4098 H   0  0  0  0  0  0  0  0  0  0  0  0
    4.4170    5.4267    3.3082 C   0  0  0  0  0  0  0  0  0  0  0  0
    4.6201    5.2337    4.8153 C   0  0  0  0  0  0  0  0  0  0  0  0
    4.5017    3.7566    5.2422 C   0  0  2  0  0  0  0  0  0  0  0  0
    4.8907    3.6754    6.2724 H   0  0  0  0  0  0  0  0  0  0  0  0
    5.3996    2.8712    4.3556 C   0  0  0  0  0  0  0  0  0  0  0  0
    3.0436    3.2783    5.2840 C   0  0  0  0  0  0  0  0  0  0  0  0
    6.8845    5.0799    2.5731 C   0  0  0  0  0  0  0  0  0  0  0  0
    7.8167    4.2653    1.6658 C   0  0  0  0  0  0  0  0  0  0  0  0
    7.0152    6.5713    2.2404 C   0  0  0  0  0  0  0  0  0  0  0  0
    2.2554    0.2662   -1.0722 C   0  0  0  0  0  0  0  0  0  0  0  0
    3.6472    0.0984   -0.9514 C   0  0  0  0  0  0  0  0  0  0  0  0
    4.5378    0.3895   -2.0024 C   0  0  0  0  0  0  0  0  0  0  0  0
    3.9946    0.8607   -3.1810 C   0  0  0  0  0  0  0  0  0  0  0  0
    4.6168    1.2098   -4.3472 O   0  0  0  0  0  0  0  0  0  0  0  0
    3.6084    1.7697   -5.1842 C   0  0  0  0  0  0  0  0  0  0  0  0
    2.3465    1.5203   -4.5726 O   0  0  0  0  0  0  0  0  0  0  0  0
    2.6159    1.0466   -3.3163 C   0  0  0  0  0  0  0  0  0  0  0  0
    1.7339    0.7721   -2.2943 C   0  0  0  0  0  0  0  0  0  0  0  0
   -0.3913   -0.2562   -1.1361 H   0  0  0  0  0  0  0  0  0  0  0  0
    0.9404   -1.8216    2.3332 H   0  0  0  0  0  0  0  0  0  0  0  0
    1.4099   -0.5622    3.4906 H   0  0  0  0  0  0  0  0  0  0  0  0
   -0.3682    0.9519    2.4853 H   0  0  0  0  0  0  0  0  0  0  0  0
   -1.0794   -0.5211    3.1557 H   0  0  0  0  0  0  0  0  0  0  0  0
   -1.8959    0.1009    0.7759 H   0  0  0  0  0  0  0  0  0  0  0  0
   -1.3054   -1.5425    0.9590 H   0  0  0  0  0  0  0  0  0  0  0  0
    1.8565    2.0037    1.6648 H   0  0  0  0  0  0  0  0  0  0  0  0
    4.4841    6.4926    3.0466 H   0  0  0  0  0  0  0  0  0  0  0  0
    3.3993    5.1116    3.0312 H   0  0  0  0  0  0  0  0  0  0  0  0
    5.6156    5.6135    5.1028 H   0  0  0  0  0  0  0  0  0  0  0  0
    3.8893    5.8414    5.3750 H   0  0  0  0  0  0  0  0  0  0  0  0
    6.4563    3.0571    4.6115 H   0  0  0  0  0  0  0  0  0  0  0  0
    5.2214    1.8038    4.5551 H   0  0  0  0  0  0  0  0  0  0  0  0
    2.5511    3.3648    4.3059 H   0  0  0  0  0  0  0  0  0  0  0  0
    2.4631    3.8652    6.0143 H   0  0  0  0  0  0  0  0  0  0  0  0
    2.9881    2.2192    5.5833 H   0  0  0  0  0  0  0  0  0  0  0  0
    7.2307    4.9435    3.6127 H   0  0  0  0  0  0  0  0  0  0  0  0
    7.4790    4.3110    0.6163 H   0  0  0  0  0  0  0  0  0  0  0  0
    7.8707    3.2051    1.9523 H   0  0  0  0  0  0  0  0  0  0  0  0
    8.8420    4.6655    1.7030 H   0  0  0  0  0  0  0  0  0  0  0  0
    6.6086    6.7870    1.2374 H   0  0  0  0  0  0  0  0  0  0  0  0
    8.0730    6.8776    2.2434 H   0  0  0  0  0  0  0  0  0  0  0  0
    6.4866    7.2114    2.9613 H   0  0  0  0  0  0  0  0  0  0  0  0
    4.0796   -0.2579   -0.0174 H   0  0  0  0  0  0  0  0  0  0  0  0
    5.6134    0.2515   -1.8872 H   0  0  0  0  0  0  0  0  0  0  0  0
    3.7682    2.8619   -5.2782 H   0  0  0  0  0  0  0  0  0  0  0  0
    3.6419    1.2916   -6.1770 H   0  0  0  0  0  0  0  0  0  0  0  0
    0.6700    0.9621   -2.4288 H   0  0  0  0  0  0  0  0  0  0  0  0
  1  2  2  0
  1  7  1  0
  1 34  1  0
  2  3  1  0
  2 25  1  0
  3  4  1  6
  3  5  1  0
  3  8  1  0
  5  6  1  0
  5 35  1  0
  5 36  1  0
  6  7  1  0
  6 37  1  0
  6 38  1  0
  7 39  1  0
  7 40  1  0
  8  9  1  0
  8 41  1  0
  9 10  2  0
  9 11  1  0
 11 12  1  0
 12 13  1  6
 12 14  1  0
 12 20  1  0
 14 15  1  6
 14 16  1  0
 14 22  1  0
 16 17  1  0
 16 42  1  0
 16 43  1  0
 17 18  1  0
 17 44  1  0
 17 45  1  0
 18 19  1  1
 18 20  1  0
 18 21  1  0
 20 46  1  0
 20 47  1  0
 21 48  1  0
 21 49  1  0
 21 50  1  0
 22 23  1  0
 22 24  1  0
 22 51  1  0
 23 52  1  0
 23 53  1  0
 23 54  1  0
 24 55  1  0
 24 56  1  0
 24 57  1  0
 25 26  2  0
 25 33  1  0
 26 27  1  0
 26 58  1  0
 27 28  2  0
 27 59  1  0
 28 29  1  0
 28 32  1  0
 29 30  1  0
 30 31  1  0
 30 60  1  0
 30 61  1  0
 31 32  1  0
 32 33  2  0
 33 62  1  0
M  END

