62

C          0.04080       -0.15470        0.01490
C          1.37720       -0.19490       -0.16750
C          2.30340       -0.18240        1.04300
H          3.16430       -0.83150        0.83240
C          1.59730       -0.70240        2.30420
C          0.28380        0.04060        2.53080
C         -0.65990       -0.17340        1.34490
N          2.82780        1.17390        1.23000
C          3.94470        1.51440        1.93680
O          4.28150        2.65390        2.18320
O          4.63430        0.41320        2.31340
C          5.86240        0.62900        3.04780
H          5.68430        1.48420        3.71040
C          6.10970       -0.65880        3.84810
H          5.15730       -0.90440        4.35110
C          6.43910       -1.79550        2.86130
C          7.65630       -1.47110        1.98810
C          7.46860       -0.17230        1.17860
H          8.45490        0.11510        0.77430
C          7.01590        0.97520        2.10350
C          6.54010       -0.37420       -0.02560
C          7.16400       -0.45960        4.96890
C          6.72630        0.60800        5.98080
C          7.46720       -1.77150        5.70280
C          1.99500       -0.26490       -1.51690
C          3.30340        0.20090       -1.73760
C          3.92490        0.13980       -2.99850
C          3.19180       -0.40040       -4.03730
O          3.55650       -0.61560       -5.33730
C          2.38240       -1.07040       -6.00440
O          1.41970       -1.40120       -5.00850
C          1.89160       -0.87390       -3.83610
C          1.27570       -0.83080       -2.60350
H         -0.61010       -0.13870       -0.86480
H          1.40570       -1.78250        2.17960
H          2.27840       -0.59120        3.16100
H          0.50050        1.11660        2.64460
H         -0.19730       -0.28040        3.46780
H         -1.47120        0.57530        1.34860
H         -1.17320       -1.15060        1.44420
H          2.24720        1.95820        0.95960
H          6.59470       -2.74200        3.39890
H          5.55820       -1.95500        2.22050
H          8.55070       -1.37360        2.62710
H          7.86220       -2.30940        1.30160
H          7.86460        1.28130        2.73800
H          6.73650        1.86590        1.52080
H          5.54620       -0.73240        0.27300
H          6.96530       -1.10830       -0.72870
H          6.39710        0.57090       -0.57380
H          8.10670       -0.11460        4.50930
H          5.75840        0.33960        6.43770
H          6.61640        1.60440        5.52900
H          7.46370        0.69810        6.79390
H          6.54380       -2.21490        6.11330
H          8.15360       -1.59370        6.54550
H          7.93730       -2.52070        5.04970
H          3.85370        0.64850       -0.91320
H          4.94250        0.50210       -3.14840
H          1.98660       -0.26290       -6.65220
H          2.61880       -1.96330       -6.60480
H          0.27910       -1.25090       -2.47270
