rmsd248.gzmat
 OpenBabel08211713413D

 62 65  0  0  1  0  0  0  0  0999 V2000
    0.0000    0.0000    0.0000 C   0  0  0  0  0  0  0  0  0  0  0  0
    1.3401    0.0000    0.0000 C   0  0  0  0  0  0  0  0  0  0  0  0
    2.1414    0.0000    1.2829 C   0  0  2  0  0  0  0  0  0  0  0  0
    3.0683   -0.6290    1.1534 H   0  0  0  0  0  0  0  0  0  0  0  0
    1.3011   -0.5797    2.4432 C   0  0  0  0  0  0  0  0  0  0  0  0
   -0.0527    0.1270    2.5300 C   0  0  0  0  0  0  0  0  0  0  0  0
   -0.8453   -0.0530    1.2279 C   0  0  0  0  0  0  0  0  0  0  0  0
    2.5577    1.3842    1.5681 N   0  0  0  0  0  0  0  0  0  0  0  0
    3.5767    1.6556    2.4558 C   0  0  0  0  0  0  0  0  0  0  0  0
    3.8718    2.7716    2.8308 O   0  0  0  0  0  0  0  0  0  0  0  0
    4.2115    0.5135    2.8294 O   0  0  0  0  0  0  0  0  0  0  0  0
    5.4069    0.6853    3.6194 C   0  0  1  0  0  0  0  0  0  0  0  0
    5.1705    1.4305    4.4149 H   0  0  0  0  0  0  0  0  0  0  0  0
    5.6077   -0.7273    4.2038 C   0  0  1  0  0  0  0  0  0  0  0  0
    4.6304   -1.0702    4.6268 H   0  0  0  0  0  0  0  0  0  0  0  0
    5.9946   -1.6838    3.0649 C   0  0  0  0  0  0  0  0  0  0  0  0
    7.2525   -1.2167    2.3277 C   0  0  0  0  0  0  0  0  0  0  0  0
    7.0634    0.1764    1.7017 C   0  0  2  0  0  0  0  0  0  0  0  0
    8.0641    0.5309    1.3452 H   0  0  0  0  0  0  0  0  0  0  0  0
    6.5594    1.1839    2.7491 C   0  0  0  0  0  0  0  0  0  0  0  0
    6.1299    0.1157    0.4888 C   0  0  0  0  0  0  0  0  0  0  0  0
    6.6440   -0.6866    5.3508 C   0  0  0  0  0  0  0  0  0  0  0  0
    6.1402    0.1868    6.5087 C   0  0  0  0  0  0  0  0  0  0  0  0
    6.9275   -2.0978    5.8812 C   0  0  0  0  0  0  0  0  0  0  0  0
    2.1081   -0.0478   -1.2504 C   0  0  0  0  0  0  0  0  0  0  0  0
    3.1104    0.8842   -1.5127 C   0  0  0  0  0  0  0  0  0  0  0  0
    3.8663    0.8554   -2.6991 C   0  0  0  0  0  0  0  0  0  0  0  0
    3.5587   -0.1443   -3.5888 C   0  0  0  0  0  0  0  0  0  0  0  0
    4.1374   -0.3967   -4.8087 O   0  0  0  0  0  0  0  0  0  0  0  0
    3.4428   -1.5531   -5.3272 C   0  0  0  0  0  0  0  0  0  0  0  0
    2.4401   -1.9750   -4.3760 O   0  0  0  0  0  0  0  0  0  0  0  0
    2.5415   -1.0920   -3.3287 C   0  0  0  0  0  0  0  0  0  0  0  0
    1.8013   -1.0742   -2.1742 C   0  0  0  0  0  0  0  0  0  0  0  0
   -0.5623    0.0047   -0.9358 H   0  0  0  0  0  0  0  0  0  0  0  0
    1.1611   -1.6651    2.2857 H   0  0  0  0  0  0  0  0  0  0  0  0
    1.8565   -0.4773    3.3949 H   0  0  0  0  0  0  0  0  0  0  0  0
    0.0948    1.2034    2.7407 H   0  0  0  0  0  0  0  0  0  0  0  0
   -0.6339   -0.2636    3.3855 H   0  0  0  0  0  0  0  0  0  0  0  0
   -1.6491    0.7102    1.1721 H   0  0  0  0  0  0  0  0  0  0  0  0
   -1.3739   -1.0323    1.2475 H   0  0  0  0  0  0  0  0  0  0  0  0
    1.8989    2.1223    1.3543 H   0  0  0  0  0  0  0  0  0  0  0  0
    6.1345   -2.7092    3.4496 H   0  0  0  0  0  0  0  0  0  0  0  0
    5.1488   -1.7480    2.3491 H   0  0  0  0  0  0  0  0  0  0  0  0
    8.1121   -1.1993    3.0231 H   0  0  0  0  0  0  0  0  0  0  0  0
    7.5171   -1.9461    1.5398 H   0  0  0  0  0  0  0  0  0  0  0  0
    7.3985    1.4704    3.4140 H   0  0  0  0  0  0  0  0  0  0  0  0
    6.2481    2.1228    2.2431 H   0  0  0  0  0  0  0  0  0  0  0  0
    5.1226   -0.2111    0.7758 H   0  0  0  0  0  0  0  0  0  0  0  0
    6.4992   -0.5830   -0.2681 H   0  0  0  0  0  0  0  0  0  0  0  0
    6.0273    1.0973    0.0142 H   0  0  0  0  0  0  0  0  0  0  0  0
    7.5961   -0.2533    4.9603 H   0  0  0  0  0  0  0  0  0  0  0  0
    5.1590   -0.1455    6.8644 H   0  0  0  0  0  0  0  0  0  0  0  0
    6.0512    1.2399    6.2208 H   0  0  0  0  0  0  0  0  0  0  0  0
    6.8285    0.1472    7.3601 H   0  0  0  0  0  0  0  0  0  0  0  0
    6.0071   -2.5998    6.1969 H   0  0  0  0  0  0  0  0  0  0  0  0
    7.6000   -2.0676    6.7452 H   0  0  0  0  0  0  0  0  0  0  0  0
    7.4079   -2.7246    5.1216 H   0  0  0  0  0  0  0  0  0  0  0  0
    3.3260    1.6649   -0.7797 H   0  0  0  0  0  0  0  0  0  0  0  0
    4.6470    1.5843   -2.8917 H   0  0  0  0  0  0  0  0  0  0  0  0
    2.9253   -1.2499   -6.2477 H   0  0  0  0  0  0  0  0  0  0  0  0
    4.1737   -2.3675   -5.4266 H   0  0  0  0  0  0  0  0  0  0  0  0
    1.0270   -1.8057   -1.9705 H   0  0  0  0  0  0  0  0  0  0  0  0
  1  2  2  0  0  0  0
  1  7  1  0  0  0  0
  2  3  1  0  0  0  0
  3  4  1  6  0  0  0
  3  8  1  0  0  0  0
  3  5  1  0  0  0  0
  5  6  1  0  0  0  0
  5 36  1  0  0  0  0
  6 37  1  0  0  0  0
  6 38  1  0  0  0  0
  7 40  1  0  0  0  0
  7  6  1  0  0  0  0
  8  9  1  0  0  0  0
  9 11  1  0  0  0  0
  9 10  2  0  0  0  0
 11 12  1  0  0  0  0
 12 14  1  0  0  0  0
 12 13  1  1  0  0  0
 14 15  1  1  0  0  0
 14 22  1  0  0  0  0
 16 42  1  0  0  0  0
 16 14  1  0  0  0  0
 17 44  1  0  0  0  0
 17 16  1  0  0  0  0
 18 19  1  6  0  0  0
 18 17  1  0  0  0  0
 18 20  1  0  0  0  0
 20 46  1  0  0  0  0
 20 12  1  0  0  0  0
 21 48  1  0  0  0  0
 21 18  1  0  0  0  0
 22 24  1  0  0  0  0
 22 23  1  0  0  0  0
 23 52  1  0  0  0  0
 23 54  1  0  0  0  0
 24 55  1  0  0  0  0
 24 56  1  0  0  0  0
 25  2  1  0  0  0  0
 26 25  1  0  0  0  0
 26 58  1  0  0  0  0
 27 26  2  0  0  0  0
 28 32  2  0  0  0  0
 28 27  1  0  0  0  0
 29 28  1  0  0  0  0
 30 29  1  0  0  0  0
 30 31  1  0  0  0  0
 31 32  1  0  0  0  0
 32 33  1  0  0  0  0
 33 62  1  0  0  0  0
 33 25  2  0  0  0  0
 34  1  1  0  0  0  0
 35  5  1  0  0  0  0
 39  7  1  0  0  0  0
 41  8  1  0  0  0  0
 43 16  1  0  0  0  0
 45 17  1  0  0  0  0
 47 20  1  0  0  0  0
 49 21  1  0  0  0  0
 50 21  1  0  0  0  0
 51 22  1  0  0  0  0
 53 23  1  0  0  0  0
 57 24  1  0  0  0  0
 59 27  1  0  0  0  0
 60 30  1  0  0  0  0
 61 30  1  0  0  0  0
M  END
$$$$
