
     RDKit          3D

 62 65  0  0  0  0  0  0  0  0999 V2000
   -0.1292    0.1574    0.1298 C   0  0  0  0  0  0  0  0  0  0  0  0
    1.2035    0.0294   -0.0173 C   0  0  0  0  0  0  0  0  0  0  0  0
    2.1249    0.0156    1.1925 C   0  0  2  0  0  0  0  0  0  0  0  0
    2.8842   -0.7660    1.0604 H   0  0  0  0  0  0  0  0  0  0  0  0
    1.3675   -0.2699    2.4980 C   0  0  0  0  0  0  0  0  0  0  0  0
    0.1176    0.6002    2.6051 C   0  0  0  0  0  0  0  0  0  0  0  0
   -0.8382    0.2953    1.4491 C   0  0  0  0  0  0  0  0  0  0  0  0
    2.8481    1.2860    1.2264 N   0  0  0  0  0  0  0  0  0  0  0  0
    4.0869    1.5058    1.7529 C   0  0  0  0  0  0  0  0  0  0  0  0
    4.5892    2.6025    1.8884 O   0  0  0  0  0  0  0  0  0  0  0  0
    4.6860    0.3427    2.0951 O   0  0  0  0  0  0  0  0  0  0  0  0
    6.0201    0.4246    2.6511 C   0  0  1  0  0  0  0  0  0  0  0  0
    6.0103    1.2577    3.3650 H   0  0  0  0  0  0  0  0  0  0  0  0
    6.2536   -0.9196    3.3578 C   0  0  1  0  0  0  0  0  0  0  0  0
    5.3595   -1.1074    3.9790 H   0  0  0  0  0  0  0  0  0  0  0  0
    6.3361   -2.0260    2.2876 C   0  0  0  0  0  0  0  0  0  0  0  0
    7.4499   -1.7662    1.2671 C   0  0  0  0  0  0  0  0  0  0  0  0
    7.2877   -0.4110    0.5496 C   0  0  2  0  0  0  0  0  0  0  0  0
    8.2375   -0.1939    0.0298 H   0  0  0  0  0  0  0  0  0  0  0  0
    7.0711    0.7182    1.5760 C   0  0  0  0  0  0  0  0  0  0  0  0
    6.1912   -0.4489   -0.5208 C   0  0  0  0  0  0  0  0  0  0  0  0
    7.4650   -0.8763    4.3255 C   0  0  0  0  0  0  0  0  0  0  0  0
    7.2797    0.1777    5.4256 C   0  0  0  0  0  0  0  0  0  0  0  0
    7.7305   -2.2455    4.9631 C   0  0  0  0  0  0  0  0  0  0  0  0
    1.8500   -0.0376   -1.3529 C   0  0  0  0  0  0  0  0  0  0  0  0
    1.4679    0.8399   -2.3800 C   0  0  0  0  0  0  0  0  0  0  0  0
    2.0716    0.8162   -3.6515 C   0  0  0  0  0  0  0  0  0  0  0  0
    3.0739   -0.1141   -3.8541 C   0  0  0  0  0  0  0  0  0  0  0  0
    3.8418   -0.3298   -4.9645 O   0  0  0  0  0  0  0  0  0  0  0  0
    4.6505   -1.4680   -4.6784 C   0  0  0  0  0  0  0  0  0  0  0  0
    4.4813   -1.7873   -3.2993 O   0  0  0  0  0  0  0  0  0  0  0  0
    3.4627   -0.9956   -2.8425 C   0  0  0  0  0  0  0  0  0  0  0  0
    2.8788   -0.9825   -1.5935 C   0  0  0  0  0  0  0  0  0  0  0  0
   -0.7564    0.1323   -0.7676 H   0  0  0  0  0  0  0  0  0  0  0  0
    1.0808   -1.3362    2.5115 H   0  0  0  0  0  0  0  0  0  0  0  0
    2.0506   -0.1078    3.3456 H   0  0  0  0  0  0  0  0  0  0  0  0
    0.4172    1.6623    2.5692 H   0  0  0  0  0  0  0  0  0  0  0  0
   -0.3872    0.4515    3.5723 H   0  0  0  0  0  0  0  0  0  0  0  0
   -1.6170    1.0739    1.3695 H   0  0  0  0  0  0  0  0  0  0  0  0
   -1.3899   -0.6434    1.6532 H   0  0  0  0  0  0  0  0  0  0  0  0
    2.3540    2.1292    0.9616 H   0  0  0  0  0  0  0  0  0  0  0  0
    6.4696   -3.0107    2.7586 H   0  0  0  0  0  0  0  0  0  0  0  0
    5.3661   -2.0696    1.7686 H   0  0  0  0  0  0  0  0  0  0  0  0
    8.4276   -1.7908    1.7787 H   0  0  0  0  0  0  0  0  0  0  0  0
    7.4752   -2.5789    0.5220 H   0  0  0  0  0  0  0  0  0  0  0  0
    8.0178    0.9097    2.1088 H   0  0  0  0  0  0  0  0  0  0  0  0
    6.8069    1.6607    1.0753 H   0  0  0  0  0  0  0  0  0  0  0  0
    5.2088   -0.6714   -0.0880 H   0  0  0  0  0  0  0  0  0  0  0  0
    6.4011   -1.2101   -1.2885 H   0  0  0  0  0  0  0  0  0  0  0  0
    6.1002    0.5248   -1.0281 H   0  0  0  0  0  0  0  0  0  0  0  0
    8.3664   -0.6010    3.7508 H   0  0  0  0  0  0  0  0  0  0  0  0
    6.3589   -0.0167    6.0019 H   0  0  0  0  0  0  0  0  0  0  0  0
    7.2144    1.2009    5.0285 H   0  0  0  0  0  0  0  0  0  0  0  0
    8.1245    0.1552    6.1318 H   0  0  0  0  0  0  0  0  0  0  0  0
    6.8315   -2.6176    5.4840 H   0  0  0  0  0  0  0  0  0  0  0  0
    8.5404   -2.1761    5.7061 H   0  0  0  0  0  0  0  0  0  0  0  0
    8.0276   -3.0034    4.2242 H   0  0  0  0  0  0  0  0  0  0  0  0
    0.6948    1.5826   -2.1754 H   0  0  0  0  0  0  0  0  0  0  0  0
    1.7787    1.5124   -4.4383 H   0  0  0  0  0  0  0  0  0  0  0  0
    4.3233   -2.3232   -5.3009 H   0  0  0  0  0  0  0  0  0  0  0  0
    5.7088   -1.2316   -4.8771 H   0  0  0  0  0  0  0  0  0  0  0  0
    3.1994   -1.6882   -0.8286 H   0  0  0  0  0  0  0  0  0  0  0  0
  1  2  2  0
  1  7  1  0
  1 34  1  0
  2  3  1  0
  2 25  1  0
  3  4  1  6
  3  5  1  0
  3  8  1  0
  5  6  1  0
  5 35  1  0
  5 36  1  0
  6  7  1  0
  6 37  1  0
  6 38  1  0
  7 39  1  0
  7 40  1  0
  8  9  1  0
  8 41  1  0
  9 10  2  0
  9 11  1  0
 11 12  1  0
 12 13  1  1
 12 14  1  0
 12 20  1  0
 14 15  1  1
 14 16  1  0
 14 22  1  0
 16 17  1  0
 16 42  1  0
 16 43  1  0
 17 18  1  0
 17 44  1  0
 17 45  1  0
 18 19  1  6
 18 20  1  0
 18 21  1  0
 20 46  1  0
 20 47  1  0
 21 48  1  0
 21 49  1  0
 21 50  1  0
 22 23  1  0
 22 24  1  0
 22 51  1  0
 23 52  1  0
 23 53  1  0
 23 54  1  0
 24 55  1  0
 24 56  1  0
 24 57  1  0
 25 26  2  0
 25 33  1  0
 26 27  1  0
 26 58  1  0
 27 28  2  0
 27 59  1  0
 28 29  1  0
 28 32  1  0
 29 30  1  0
 30 31  1  0
 30 60  1  0
 30 61  1  0
 31 32  1  0
 32 33  2  0
 33 62  1  0
M  END

