62

C         -0.14900       -0.66910       -0.01440
C          1.16540       -0.49350        0.23560
C          1.65310       -0.26690        1.66050
H          2.51010       -0.92090        1.84820
C          0.58650       -0.59940        2.71460
C         -0.77000       -0.01040        2.33980
C         -1.24120       -0.61470        1.01710
N          2.15620        1.09840        1.79540
C          3.40360        1.48140        2.18640
O          3.79270        2.63090        2.20530
O          4.15830        0.41580        2.55280
C          5.51320        0.69530        2.97170
H          5.84200        1.56860        2.39870
C          5.52240        1.01970        4.47630
H          4.74710        1.78960        4.62860
C          5.12230       -0.24770        5.25500
C          6.04340       -1.43580        4.95190
C          6.08060       -1.78520        3.45070
H          6.92980       -2.47160        3.28710
C          6.36860       -0.51810        2.61930
C          4.81740       -2.53430        3.00610
C          6.85720        1.65630        4.94420
C          7.25980        2.85690        4.07560
C          6.77720        2.08520        6.41470
C          2.18890       -0.47940       -0.84300
C          3.53990       -0.75660       -0.56740
C          4.53070       -0.76350       -1.56670
C          4.12950       -0.47530       -2.85630
O          4.86850       -0.42020       -4.00460
C          3.99460        0.07840       -5.01440
O          2.67070        0.06260       -4.48940
C          2.79370       -0.18460       -3.14870
C          1.81490       -0.17050       -2.17850
H         -0.46820       -0.88670       -1.03810
H          0.49860       -1.69730        2.79150
H          0.93530       -0.23110        3.69150
H         -0.67600        1.08550        2.23650
H         -1.51280       -0.18600        3.13360
H         -2.10000       -0.05150        0.61140
H         -1.62470       -1.64000        1.18880
H          1.58980        1.85750        1.43590
H          5.10350       -0.04890        6.33650
H          4.08750       -0.50530        4.97920
H          7.06610       -1.20330        5.29420
H          5.72290       -2.31900        5.52940
H          7.41930       -0.22240        2.77650
H          6.26530       -0.73010        1.54230
H          3.90400       -1.96370        3.22110
H          4.74190       -3.50330        3.52520
H          4.83450       -2.73520        1.92290
H          7.65940        0.90120        4.86420
H          6.42580        3.57180        3.98200
H          7.55540        2.56250        3.05790
H          8.11620        3.38710        4.52100
H          5.96920        2.82210        6.56160
H          7.71990        2.55610        6.73480
H          6.58660        1.23920        7.09090
H          3.85330       -0.96960        0.45220
H          5.57300       -0.98320       -1.33200
H          4.28110        1.11680       -5.27340
H          4.04950       -0.56820       -5.90520
H          0.79080        0.09390       -2.43860
