62

C          0.08150       -0.07560        0.04090
C          1.40370       -0.13960       -0.22040
C          2.40160       -0.11070        0.93160
H          3.23860       -0.77880        0.68670
C          1.76580       -0.58690        2.24640
C          0.47860        0.18170        2.53120
C         -0.53780       -0.04960        1.41060
N          2.95620        1.24120        1.05090
C          4.11840        1.58140        1.68070
O          4.48740        2.72110        1.87460
O          4.81160        0.47890        2.04690
C          6.08570        0.69260        2.69880
H          5.96230        1.56800        3.34730
C          6.36110       -0.57790        3.51720
H          5.43870       -0.79150        4.08650
C          6.60620       -1.74610        2.54260
C          7.77220       -1.46880        1.58700
C          7.55920       -0.18680        0.75700
H          8.52420        0.07080        0.28640
C          7.18460        0.99250        1.67680
C          6.55580       -0.40040       -0.38340
C          7.48900       -0.37120        4.56210
C          7.14290        0.73800        5.56490
C          7.80700       -1.66750        5.31710
C          1.93730       -0.25190       -1.60270
C          3.23480        0.19130       -1.91460
C          3.77840        0.08770       -3.20840
C          2.98090       -0.47790       -4.18410
O          3.24860       -0.69240       -5.50740
C          2.14590       -1.43450       -6.02160
O          1.12420       -1.44010       -5.02890
C          1.69010       -0.92850       -3.89230
C          1.14770       -0.83810       -2.62810
H         -0.62110       -0.07320       -0.79810
H          1.55230       -1.66680        2.16260
H          2.49880       -0.46380        3.05750
H          0.71620        1.25700        2.60210
H          0.05090       -0.10700        3.50400
H         -1.33790        0.71040        1.44280
H         -1.05650       -1.01650        1.56680
H          2.37300        2.02780        0.79270
H          6.77750       -2.68170        3.09440
H          5.68400       -1.90350        1.96230
H          8.70670       -1.37420        2.16630
H          7.91850       -2.32790        0.91110
H          8.07590        1.29860        2.25000
H          6.88540        1.87310        1.08860
H          5.57550       -0.73100       -0.01620
H          6.92390       -1.16020       -1.09140
H          6.39700        0.53330       -0.94670
H          8.40830       -0.06500        4.03300
H          6.19830        0.51080        6.08820
H          7.03170        1.72320        5.08960
H          7.93120        0.83130        6.32820
H          6.90150       -2.07320        5.80030
H          8.55100       -1.48240        6.10760
H          8.21470       -2.44870        4.65970
H          3.83980        0.65230       -1.13720
H          4.78620        0.43980       -3.43090
H          1.77010       -0.95360       -6.93960
H          2.46450       -2.47380       -6.23480
H          0.15290       -1.23450       -2.42820
