62
rmsd51.gzmat
C          0.00000        0.00000        0.00000
C          1.33850        0.00000        0.00000
C          2.15640        0.00000        1.27250
H          3.03860       -0.69300        1.14810
C          1.31090       -0.48220        2.47280
C         -0.03510        0.24400        2.51360
C         -0.83680       -0.03430        1.23450
N          2.65490        1.36480        1.49780
C          3.84190        1.61170        2.14710
O          4.25020        2.72450        2.41060
O          4.48810        0.45350        2.44720
C          5.83590        0.60190        2.94350
H          5.83190        1.44750        3.67190
C          6.07230       -0.74790        3.64980
H          5.17800       -0.96320        4.28770
C          6.17680       -1.85600        2.59090
C          7.27620       -1.56670        1.56560
C          7.01280       -0.25570        0.80390
H          7.92700       -0.01760        0.20200
C          6.78580        0.90680        1.78540
C          5.84080       -0.40580       -0.17010
C          7.31100       -0.65920        4.57220
C          7.07470        0.35370        5.70210
C          7.63350       -2.02500        5.19370
C          2.10850       -0.03470       -1.25070
C          2.85460        1.07020       -1.65360
C          3.60360        1.06850       -2.84510
C          3.55410       -0.08550       -3.58770
O          4.18040       -0.34620       -4.78190
C          3.78870       -1.69240       -5.13100
O          2.91810       -2.21890       -4.10450
C          2.79740       -1.20940       -3.18070
C          2.06680       -1.21930       -2.01960
H         -0.56360       -0.00440       -0.93440
H          1.15630       -1.57450        2.39540
H          1.87120       -0.31940        3.41280
H          0.12370        1.33270        2.63320
H         -0.61320       -0.07070        3.40160
H         -1.67320        0.68990        1.15220
H         -1.32090       -1.03350        1.30690
H          2.01110        2.13000        1.35340
H          6.34800       -2.83530        3.07090
H          5.20050       -1.94630        2.07090
H          8.25800       -1.51210        2.07130
H          7.35220       -2.40620        0.85020
H          7.76000        1.22300        2.20810
H          6.40130        1.79010        1.23170
H          4.89610       -0.56790        0.36330
H          5.98700       -1.25290       -0.84690
H          5.71170        0.49130       -0.78570
H          8.18750       -0.32680        3.96590
H          6.17520        0.10980        6.27760
H          6.96070        1.37500        5.32260
H          7.91750        0.36710        6.40180
H          6.75360       -2.46570        5.67450
H          8.41670       -1.93870        5.95500
H          7.99460       -2.73480        4.44140
H          2.86870        1.96650       -1.03120
H          4.18210        1.93390       -3.15190
H          3.21340       -1.64240       -6.06580
H          4.69590       -2.31160       -5.15110
H          1.48980       -2.08030       -1.70060
