rmsd133.gzmat
 OpenBabel08211713413D

 62 65  0  0  1  0  0  0  0  0999 V2000
    0.0000    0.0000    0.0000 C   0  0  0  0  0  0  0  0  0  0  0  0
    1.3380    0.0000    0.0000 C   0  0  0  0  0  0  0  0  0  0  0  0
    2.1599    0.0000    1.2715 C   0  0  2  0  0  0  0  0  0  0  0  0
    3.0282   -0.7105    1.1509 H   0  0  0  0  0  0  0  0  0  0  0  0
    1.3123   -0.4557    2.4807 C   0  0  0  0  0  0  0  0  0  0  0  0
   -0.0324    0.2733    2.5093 C   0  0  0  0  0  0  0  0  0  0  0  0
   -0.8356   -0.0252    1.2357 C   0  0  0  0  0  0  0  0  0  0  0  0
    2.6733    1.3592    1.4867 N   0  0  0  0  0  0  0  0  0  0  0  0
    3.9518    1.6188    1.9151 C   0  0  0  0  0  0  0  0  0  0  0  0
    4.3887    2.7395    2.0870 O   0  0  0  0  0  0  0  0  0  0  0  0
    4.6458    0.4701    2.1328 O   0  0  0  0  0  0  0  0  0  0  0  0
    6.0406    0.6393    2.4657 C   0  0  1  0  0  0  0  0  0  0  0  0
    6.1361    1.5622    3.0867 H   0  0  0  0  0  0  0  0  0  0  0  0
    6.3421   -0.6251    3.2933 C   0  0  1  0  0  0  0  0  0  0  0  0
    5.5409   -0.7318    4.0665 H   0  0  0  0  0  0  0  0  0  0  0  0
    6.2789   -1.8496    2.3677 C   0  0  0  0  0  0  0  0  0  0  0  0
    7.2519   -1.7267    1.1921 C   0  0  0  0  0  0  0  0  0  0  0  0
    6.9462   -0.4943    0.3224 C   0  0  2  0  0  0  0  0  0  0  0  0
    7.7960   -0.3602   -0.3947 H   0  0  0  0  0  0  0  0  0  0  0  0
    6.8556    0.7795    1.1803 C   0  0  0  0  0  0  0  0  0  0  0  0
    5.6736   -0.7052   -0.5018 C   0  0  0  0  0  0  0  0  0  0  0  0
    7.6989   -0.4761    4.0208 C   0  0  0  0  0  0  0  0  0  0  0  0
    7.6634    0.6983    5.0093 C   0  0  0  0  0  0  0  0  0  0  0  0
    8.0531   -1.7565    4.7887 C   0  0  0  0  0  0  0  0  0  0  0  0
    2.1100   -0.0190   -1.2499 C   0  0  0  0  0  0  0  0  0  0  0  0
    2.8068    1.1151   -1.6600 C   0  0  0  0  0  0  0  0  0  0  0  0
    3.5696    1.1329   -2.8423 C   0  0  0  0  0  0  0  0  0  0  0  0
    3.5818   -0.0316   -3.5701 C   0  0  0  0  0  0  0  0  0  0  0  0
    4.2392   -0.2798   -4.7501 O   0  0  0  0  0  0  0  0  0  0  0  0
    3.9213   -1.6495   -5.0813 C   0  0  0  0  0  0  0  0  0  0  0  0
    3.0510   -2.1980   -4.0663 O   0  0  0  0  0  0  0  0  0  0  0  0
    2.8701   -1.1829   -3.1588 C   0  0  0  0  0  0  0  0  0  0  0  0
    2.1263   -1.2115   -2.0062 C   0  0  0  0  0  0  0  0  0  0  0  0
   -0.5639   -0.0064   -0.9341 H   0  0  0  0  0  0  0  0  0  0  0  0
    1.1545   -1.5488    2.4243 H   0  0  0  0  0  0  0  0  0  0  0  0
    1.8729   -0.2749    3.4173 H   0  0  0  0  0  0  0  0  0  0  0  0
    0.1287    1.3635    2.6105 H   0  0  0  0  0  0  0  0  0  0  0  0
   -0.6110   -0.0258    3.4024 H   0  0  0  0  0  0  0  0  0  0  0  0
   -1.6748    0.6949    1.1459 H   0  0  0  0  0  0  0  0  0  0  0  0
   -1.3169   -1.0245    1.3208 H   0  0  0  0  0  0  0  0  0  0  0  0
    2.0275    2.1280    1.3802 H   0  0  0  0  0  0  0  0  0  0  0  0
    6.4788   -2.7754    2.9350 H   0  0  0  0  0  0  0  0  0  0  0  0
    5.2433   -1.9532    1.9824 H   0  0  0  0  0  0  0  0  0  0  0  0
    8.2904   -1.6700    1.5668 H   0  0  0  0  0  0  0  0  0  0  0  0
    7.2055   -2.6409    0.5717 H   0  0  0  0  0  0  0  0  0  0  0  0
    7.8778    1.1101    1.4506 H   0  0  0  0  0  0  0  0  0  0  0  0
    6.4253    1.6046    0.5740 H   0  0  0  0  0  0  0  0  0  0  0  0
    4.7906   -0.8008    0.1420 H   0  0  0  0  0  0  0  0  0  0  0  0
    5.7367   -1.6099   -1.1138 H   0  0  0  0  0  0  0  0  0  0  0  0
    5.4889    0.1391   -1.1761 H   0  0  0  0  0  0  0  0  0  0  0  0
    8.4944   -0.2837    3.2610 H   0  0  0  0  0  0  0  0  0  0  0  0
    6.8384    0.5988    5.7226 H   0  0  0  0  0  0  0  0  0  0  0  0
    7.5475    1.6615    4.5001 H   0  0  0  0  0  0  0  0  0  0  0  0
    8.5924    0.7536    5.5877 H   0  0  0  0  0  0  0  0  0  0  0  0
    7.2542   -2.0437    5.4801 H   0  0  0  0  0  0  0  0  0  0  0  0
    8.9672   -1.6235    5.3777 H   0  0  0  0  0  0  0  0  0  0  0  0
    8.2278   -2.5982    4.1100 H   0  0  0  0  0  0  0  0  0  0  0  0
    2.7722    2.0187   -1.0496 H   0  0  0  0  0  0  0  0  0  0  0  0
    4.1128    2.0197   -3.1517 H   0  0  0  0  0  0  0  0  0  0  0  0
    3.3694   -1.6456   -6.0309 H   0  0  0  0  0  0  0  0  0  0  0  0
    4.8579   -2.2239   -5.0663 H   0  0  0  0  0  0  0  0  0  0  0  0
    1.5807   -2.0916   -1.6850 H   0  0  0  0  0  0  0  0  0  0  0  0
  1  2  2  0  0  0  0
  1  7  1  0  0  0  0
  2  3  1  0  0  0  0
  3  4  1  6  0  0  0
  3  8  1  0  0  0  0
  3  5  1  0  0  0  0
  5  6  1  0  0  0  0
  5 36  1  0  0  0  0
  6 37  1  0  0  0  0
  6 38  1  0  0  0  0
  7 40  1  0  0  0  0
  7  6  1  0  0  0  0
  8  9  1  0  0  0  0
  9 10  2  0  0  0  0
  9 11  1  0  0  0  0
 11 12  1  0  0  0  0
 12 13  1  1  0  0  0
 12 14  1  0  0  0  0
 14 22  1  0  0  0  0
 14 15  1  1  0  0  0
 16 42  1  0  0  0  0
 16 14  1  0  0  0  0
 17 44  1  0  0  0  0
 17 16  1  0  0  0  0
 18 19  1  6  0  0  0
 18 20  1  0  0  0  0
 18 17  1  0  0  0  0
 20 46  1  0  0  0  0
 20 12  1  0  0  0  0
 21 48  1  0  0  0  0
 21 18  1  0  0  0  0
 22 24  1  0  0  0  0
 22 23  1  0  0  0  0
 23 54  1  0  0  0  0
 23 52  1  0  0  0  0
 24 56  1  0  0  0  0
 24 55  1  0  0  0  0
 25  2  1  0  0  0  0
 26 25  1  0  0  0  0
 26 58  1  0  0  0  0
 27 26  2  0  0  0  0
 28 32  2  0  0  0  0
 28 27  1  0  0  0  0
 29 28  1  0  0  0  0
 30 61  1  0  0  0  0
 30 29  1  0  0  0  0
 30 31  1  0  0  0  0
 31 32  1  0  0  0  0
 32 33  1  0  0  0  0
 33 62  1  0  0  0  0
 33 25  2  0  0  0  0
 34  1  1  0  0  0  0
 35  5  1  0  0  0  0
 39  7  1  0  0  0  0
 41  8  1  0  0  0  0
 43 16  1  0  0  0  0
 45 17  1  0  0  0  0
 47 20  1  0  0  0  0
 49 21  1  0  0  0  0
 50 21  1  0  0  0  0
 51 22  1  0  0  0  0
 53 23  1  0  0  0  0
 57 24  1  0  0  0  0
 59 27  1  0  0  0  0
 60 30  1  0  0  0  0
M  END
$$$$
