
     RDKit          3D

 62 65  0  0  0  0  0  0  0  0999 V2000
   -0.0796   -0.1312   -0.3700 C   0  0  0  0  0  0  0  0  0  0  0  0
    1.1354   -0.0176    0.2023 C   0  0  0  0  0  0  0  0  0  0  0  0
    1.3238   -0.2167    1.7019 C   0  0  2  0  0  0  0  0  0  0  0  0
    2.1468   -0.9228    1.8792 H   0  0  0  0  0  0  0  0  0  0  0  0
    0.0744   -0.7719    2.3978 C   0  0  0  0  0  0  0  0  0  0  0  0
   -1.2049   -0.1210    1.8783 C   0  0  0  0  0  0  0  0  0  0  0  0
   -1.3542   -0.3995    0.3820 C   0  0  0  0  0  0  0  0  0  0  0  0
    1.7915    1.0446    2.2836 N   0  0  0  0  0  0  0  0  0  0  0  0
    3.1159    1.1947    2.5967 C   0  0  0  0  0  0  0  0  0  0  0  0
    3.8858    0.2877    2.8398 O   0  0  0  0  0  0  0  0  0  0  0  0
    3.4525    2.5017    2.5873 O   0  0  0  0  0  0  0  0  0  0  0  0
    4.8614    2.8129    2.7065 C   0  0  1  0  0  0  0  0  0  0  0  0
    5.4063    1.9456    2.3150 H   0  0  0  0  0  0  0  0  0  0  0  0
    5.1011    4.0522    1.8292 C   0  0  1  0  0  0  0  0  0  0  0  0
    4.5746    3.8647    0.8770 H   0  0  0  0  0  0  0  0  0  0  0  0
    4.4480    5.2753    2.4980 C   0  0  0  0  0  0  0  0  0  0  0  0
    4.9469    5.4980    3.9293 C   0  0  0  0  0  0  0  0  0  0  0  0
    4.6879    4.2775    4.8338 C   0  0  2  0  0  0  0  0  0  0  0  0
    5.2512    4.4310    5.7711 H   0  0  0  0  0  0  0  0  0  0  0  0
    5.2555    3.0084    4.1715 C   0  0  0  0  0  0  0  0  0  0  0  0
    3.2098    4.1402    5.2222 C   0  0  0  0  0  0  0  0  0  0  0  0
    6.6057    4.2077    1.4798 C   0  0  0  0  0  0  0  0  0  0  0  0
    7.0490    3.1155    0.4961 C   0  0  0  0  0  0  0  0  0  0  0  0
    6.9408    5.5843    0.8956 C   0  0  0  0  0  0  0  0  0  0  0  0
    2.3344    0.4212   -0.5628 C   0  0  0  0  0  0  0  0  0  0  0  0
    2.2155    1.4182   -1.5476 C   0  0  0  0  0  0  0  0  0  0  0  0
    3.3213    1.9048   -2.2682 C   0  0  0  0  0  0  0  0  0  0  0  0
    4.5556    1.3615   -1.9636 C   0  0  0  0  0  0  0  0  0  0  0  0
    5.7903    1.6773   -2.4640 O   0  0  0  0  0  0  0  0  0  0  0  0
    6.6739    0.6812   -1.9510 C   0  0  0  0  0  0  0  0  0  0  0  0
    6.0192    0.0565   -0.8529 O   0  0  0  0  0  0  0  0  0  0  0  0
    4.6928    0.3772   -0.9819 C   0  0  0  0  0  0  0  0  0  0  0  0
    3.6168   -0.1101   -0.2689 C   0  0  0  0  0  0  0  0  0  0  0  0
   -0.1595   -0.0150   -1.4558 H   0  0  0  0  0  0  0  0  0  0  0  0
    0.0252   -1.8587    2.2104 H   0  0  0  0  0  0  0  0  0  0  0  0
    0.1908   -0.6342    3.4830 H   0  0  0  0  0  0  0  0  0  0  0  0
   -1.1576    0.9699    2.0477 H   0  0  0  0  0  0  0  0  0  0  0  0
   -2.0845   -0.4866    2.4311 H   0  0  0  0  0  0  0  0  0  0  0  0
   -2.1678    0.2079   -0.0510 H   0  0  0  0  0  0  0  0  0  0  0  0
   -1.6622   -1.4521    0.2248 H   0  0  0  0  0  0  0  0  0  0  0  0
    1.3487    1.8904    1.9401 H   0  0  0  0  0  0  0  0  0  0  0  0
    4.6054    6.1780    1.8902 H   0  0  0  0  0  0  0  0  0  0  0  0
    3.3592    5.1097    2.5129 H   0  0  0  0  0  0  0  0  0  0  0  0
    6.0304    5.7094    3.9121 H   0  0  0  0  0  0  0  0  0  0  0  0
    4.4668    6.3915    4.3628 H   0  0  0  0  0  0  0  0  0  0  0  0
    6.3573    3.0501    4.2045 H   0  0  0  0  0  0  0  0  0  0  0  0
    4.9684    2.1049    4.7315 H   0  0  0  0  0  0  0  0  0  0  0  0
    2.5634    3.9961    4.3456 H   0  0  0  0  0  0  0  0  0  0  0  0
    2.8643    5.0366    5.7626 H   0  0  0  0  0  0  0  0  0  0  0  0
    3.0599    3.2706    5.8821 H   0  0  0  0  0  0  0  0  0  0  0  0
    7.1957    4.0900    2.4060 H   0  0  0  0  0  0  0  0  0  0  0  0
    6.5453    3.2483   -0.4755 H   0  0  0  0  0  0  0  0  0  0  0  0
    6.8162    2.1003    0.8486 H   0  0  0  0  0  0  0  0  0  0  0  0
    8.1356    3.1658    0.3198 H   0  0  0  0  0  0  0  0  0  0  0  0
    6.3153    5.7992    0.0125 H   0  0  0  0  0  0  0  0  0  0  0  0
    7.9930    5.6187    0.5717 H   0  0  0  0  0  0  0  0  0  0  0  0
    6.7927    6.3984    1.6198 H   0  0  0  0  0  0  0  0  0  0  0  0
    1.2329    1.8520   -1.7391 H   0  0  0  0  0  0  0  0  0  0  0  0
    3.2165    2.6891   -3.0188 H   0  0  0  0  0  0  0  0  0  0  0  0
    6.8784   -0.0704   -2.7396 H   0  0  0  0  0  0  0  0  0  0  0  0
    7.6047    1.1548   -1.6079 H   0  0  0  0  0  0  0  0  0  0  0  0
    3.7719   -0.8552    0.5088 H   0  0  0  0  0  0  0  0  0  0  0  0
  1  2  2  0
  1  7  1  0
  1 34  1  0
  2  3  1  0
  2 25  1  0
  3  4  1  6
  3  5  1  0
  3  8  1  0
  5  6  1  0
  5 35  1  0
  5 36  1  0
  6  7  1  0
  6 37  1  0
  6 38  1  0
  7 39  1  0
  7 40  1  0
  8  9  1  0
  8 41  1  0
  9 10  2  0
  9 11  1  0
 11 12  1  0
 12 13  1  6
 12 14  1  0
 12 20  1  0
 14 15  1  6
 14 16  1  0
 14 22  1  0
 16 17  1  0
 16 42  1  0
 16 43  1  0
 17 18  1  0
 17 44  1  0
 17 45  1  0
 18 19  1  1
 18 20  1  0
 18 21  1  0
 20 46  1  0
 20 47  1  0
 21 48  1  0
 21 49  1  0
 21 50  1  0
 22 23  1  0
 22 24  1  0
 22 51  1  0
 23 52  1  0
 23 53  1  0
 23 54  1  0
 24 55  1  0
 24 56  1  0
 24 57  1  0
 25 26  2  0
 25 33  1  0
 26 27  1  0
 26 58  1  0
 27 28  2  0
 27 59  1  0
 28 29  1  0
 28 32  1  0
 29 30  1  0
 30 31  1  0
 30 60  1  0
 30 61  1  0
 31 32  1  0
 32 33  2  0
 33 62  1  0
M  END

