43
rmsd250.gzmat
S          0.00000        0.00000        0.00000
O          1.44690        0.00000        0.00000
O         -0.77370        0.00000       -1.21730
N         -0.53840        1.44880        0.84660
C          0.41220        2.37900        1.27070
C          1.50460        2.23670        2.08270
N          2.07900        3.52450        2.39710
N          1.40080        4.47180        1.54720
C          0.26140        3.82410        0.95960
O         -0.58370        4.39930        0.32720
C          1.32500        5.80950        2.02960
C          1.78580        6.17850        3.29980
C          1.74410        7.51720        3.67910
C          1.23740        8.48220        2.81190
C          0.76840        8.10680        1.55320
C          0.81160        6.77690        1.15050
C          3.54270        3.61100        2.17990
C          2.07860        1.02520        2.68970
C         -0.55000       -1.29020        1.03220
C         -1.91730       -1.54590        1.17190
C         -2.36470       -2.57590        1.98290
C         -1.42590       -3.37930        2.66850
N         -1.85870       -4.39900        3.48560
C         -0.04300       -3.12800        2.52150
C          0.37720       -2.08820        1.70810
H         -1.35870        1.90610        0.41860
H          2.15890        5.42570        3.99140
H          2.10560        7.80680        4.66410
H          1.20430        9.52520        3.11590
H          0.36390        8.85930        0.87690
H          0.44310        6.48510        0.16500
H          3.87300        4.66050        2.28540
H          3.86520        3.25280        1.18820
H          4.03990        3.01450        2.96220
H          2.67490        0.45980        1.94170
H          1.28860        0.34380        3.04840
H          2.72930        1.23620        3.54920
H         -2.65800       -0.93900        0.63650
H         -3.42630       -2.76650        2.09130
H         -1.21510       -5.00500        3.94190
H         -2.82660       -4.61540        3.57250
H          0.67950       -3.74720        3.04010
H          1.45490       -1.90630        1.59650
