43

S          0.58460       -0.02950        0.56220
O          1.99880       -0.36380        0.75760
O          0.09750        0.32560       -0.77360
N          0.25360        1.24870        1.68980
C          0.85180        2.47550        1.35220
C          2.14870        2.87960        1.48030
N          2.26540        4.21000        1.07400
N          0.99350        4.62000        0.64340
C          0.06080        3.58070        0.81950
O         -1.14410        3.64510        0.64370
C          0.68030        5.99430        0.58200
C         -0.40910        6.41550       -0.19680
C         -0.72960        7.77190       -0.25120
C          0.02990        8.71660        0.44620
C          1.11210        8.29050        1.22010
C          1.43480        6.93480        1.30090
C          3.34860        4.55560        0.15200
C          3.33920        2.10720        1.92860
C         -0.44140       -1.30490        1.23010
C         -1.68530       -1.56350        0.64520
C         -2.49990       -2.55490        1.17680
C         -2.08540       -3.30380        2.30140
N         -2.90430       -4.25840        2.84880
C         -0.81970       -3.02750        2.87010
C         -0.00490       -2.03790        2.33960
H         -0.76390        1.37530        1.70810
H         -1.00020        5.67500       -0.73230
H         -1.58170        8.09350       -0.85470
H         -0.22280        9.77770        0.38950
H          1.70630        9.01670        1.78020
H          2.25560        6.59390        1.93260
H          3.36540        5.64160       -0.00330
H          3.22480        4.05000       -0.82230
H          4.30250        4.25550        0.60310
H          3.91460        1.71940        1.07290
H          3.00490        1.23060        2.49660
H          4.00020        2.73040        2.55000
H         -1.99500       -0.98970       -0.22980
H         -3.47160       -2.76210        0.72150
H         -2.51090       -4.92250        3.50210
H         -3.69560       -4.58790        2.31210
H         -0.48290       -3.60430        3.73520
H          0.97660       -1.83240        2.76940
