43
rmsd160.gzmat
S          0.00000        0.00000        0.00000
O          1.44660        0.00000        0.00000
O         -0.77510        0.00000       -1.21670
N         -0.53930        1.45000        0.84360
C          0.41270        2.34420        1.33570
C          1.46380        2.15130        2.19160
N          2.05280        3.41400        2.57050
N          1.44870        4.39790        1.70680
C          0.31470        3.80100        1.05820
O         -0.48630        4.42080        0.41120
C          1.39220        5.72860        2.21240
C          1.03110        6.73680        1.30460
C          1.01790        8.06000        1.73100
C          1.36370        8.38490        3.04250
C          1.71050        7.37760        3.94040
C          1.72220        6.04600        3.53580
C          3.52840        3.46670        2.44570
C          1.98420        0.90920        2.78540
C         -0.54620       -1.28760        1.03750
C         -1.91100       -1.56610        1.16000
C         -2.35340       -2.58380        1.98920
C         -1.41260       -3.34910        2.71480
N         -1.84180       -4.35100        3.55490
C         -0.03170       -3.07830        2.58140
C          0.38350       -2.05630        1.74350
H         -1.32680        1.93590        0.38690
H          0.75410        6.47980        0.28040
H          0.73210        8.84620        1.03320
H          1.35630        9.42300        3.36460
H          1.96750        7.62870        4.96800
H          1.96950        5.25780        4.24480
H          3.87460        4.51200        2.53860
H          3.90660        3.06750        1.49020
H          3.96010        2.88860        3.27930
H          2.58840        0.34670        2.04220
H          1.16410        0.24490        3.10670
H          2.61600        1.08010        3.66730
H         -2.65300       -0.98630        0.59660
H         -3.41310       -2.79480        2.08250
H         -1.19640       -4.92230        4.05180
H         -2.80780       -4.57340        3.64250
H          0.69460       -3.66810        3.12860
H          1.46030       -1.86540        1.63700
