43
rmsd229.gzmat
S          0.00000        0.00000        0.00000
O          1.44720        0.00000        0.00000
O         -0.76800        0.00000       -1.22140
N         -0.49990        1.44380        0.88200
C          0.41540        2.49940        0.95950
C          1.63870        2.56030        1.57340
N          2.16180        3.90470        1.53590
N          1.28480        4.63760        0.65780
C          0.10330        3.85000        0.42990
O         -0.88200        4.27380       -0.11160
C          1.21070        6.04430        0.86520
C          1.79350        6.67760        1.96980
C          1.73790        8.06510        2.06750
C          1.09840        8.81750        1.08500
C          0.50760        8.17940       -0.00550
C          0.56050        6.79580       -0.12750
C          3.55950        4.01380        1.05640
C          2.38680        1.51320        2.28640
C         -0.57360       -1.29810        1.00800
C         -1.77860       -1.93830        0.70150
C         -2.23700       -2.99050        1.47630
C         -1.47510       -3.42200        2.58600
N         -1.91850       -4.46980        3.36000
C         -0.25520       -2.77890        2.89430
C          0.18010       -1.72850        2.10260
H         -1.44520        1.77890        0.64390
H          2.27190        6.09200        2.75260
H          2.19390        8.56230        2.92180
H          1.05600        9.90020        1.16970
H         -0.00100        8.76730       -0.76910
H          0.09500        6.29470       -0.97830
H          3.83660        5.08060        0.97050
H          3.72760        3.54000        0.07430
H          4.22120        3.54650        1.80300
H          2.87330        0.82080        1.56370
H          1.71390        0.89820        2.90680
H          3.16690        1.90680        2.95090
H         -2.37480       -1.61910       -0.16560
H         -3.17150       -3.48380        1.23330
H         -1.40110       -4.78900        4.14800
H         -2.77660       -4.93260        3.16080
H          0.33510       -3.10880        3.74090
H          1.13410       -1.24550        2.34550
