43
rmsd54.gzmat
S          0.00000        0.00000        0.00000
O          1.44710        0.00000        0.00000
O         -0.75350        0.00000       -1.23020
N         -0.49180        1.43360        0.90210
C          0.34050        2.55640        0.82660
C          1.62480        2.73270        1.27060
N          2.02700        4.11070        1.12810
N          0.98820        4.74290        0.35440
C         -0.14640        3.85800        0.30810
O         -1.22560        4.18510       -0.10610
C          0.82080        6.14390        0.54950
C         -0.01750        6.81210       -0.35780
C         -0.17330        8.18930       -0.24970
C          0.49850        8.90250        0.74310
C          1.32480        8.23210        1.64250
C          1.48770        6.85230        1.55710
C          3.34060        4.30750        0.47260
C          2.54820        1.77650        1.89970
C         -0.59530       -1.28850        1.00740
C         -1.70260       -2.03640        0.59410
C         -2.18210       -3.07790        1.37040
C         -1.54500       -3.38320        2.59490
N         -2.01420       -4.41310        3.37720
C         -0.42630       -2.62830        3.01460
C          0.03740       -1.59620        2.21480
H         -1.48280        1.68970        0.78900
H         -0.54640        6.25240       -1.13160
H         -0.82640        8.71210       -0.94770
H          0.37360        9.97970        0.81700
H          1.84370        8.78740        2.42190
H          2.11550        6.32810        2.27520
H          3.49980        5.38370        0.27620
H          3.44180        3.76860       -0.48450
H          4.12550        3.96520        1.16740
H          3.02230        1.12490        1.13130
H          2.01350        1.09340        2.58050
H          3.34870        2.25540        2.47760
H         -2.20620       -1.80820       -0.35710
H         -3.03740       -3.65770        1.04210
H         -1.56820       -4.65970        4.23180
H         -2.80080       -4.95610        3.10060
H          0.06080       -2.85740        3.95510
H          0.91340       -1.02530        2.54490
