rmsd229.gzmat
 OpenBabel08211713403D

 43 45  0  0  0  0  0  0  0  0999 V2000
    0.0000    0.0000    0.0000 S   0  0  0  0  0  0  0  0  0  0  0  0
    1.4472    0.0000    0.0000 O   0  0  0  0  0  0  0  0  0  0  0  0
   -0.7680    0.0000   -1.2214 O   0  0  0  0  0  0  0  0  0  0  0  0
   -0.4999    1.4438    0.8820 N   0  0  0  0  0  0  0  0  0  0  0  0
    0.4154    2.4994    0.9595 C   0  0  0  0  0  0  0  0  0  0  0  0
    1.6387    2.5603    1.5734 C   0  0  0  0  0  0  0  0  0  0  0  0
    2.1618    3.9047    1.5359 N   0  0  0  0  0  0  0  0  0  0  0  0
    1.2848    4.6376    0.6578 N   0  0  0  0  0  0  0  0  0  0  0  0
    0.1033    3.8500    0.4299 C   0  0  0  0  0  0  0  0  0  0  0  0
   -0.8820    4.2738   -0.1116 O   0  0  0  0  0  0  0  0  0  0  0  0
    1.2107    6.0443    0.8652 C   0  0  0  0  0  0  0  0  0  0  0  0
    1.7935    6.6776    1.9698 C   0  0  0  0  0  0  0  0  0  0  0  0
    1.7379    8.0651    2.0675 C   0  0  0  0  0  0  0  0  0  0  0  0
    1.0984    8.8175    1.0850 C   0  0  0  0  0  0  0  0  0  0  0  0
    0.5076    8.1794   -0.0055 C   0  0  0  0  0  0  0  0  0  0  0  0
    0.5605    6.7958   -0.1275 C   0  0  0  0  0  0  0  0  0  0  0  0
    3.5595    4.0138    1.0564 C   0  0  0  0  0  0  0  0  0  0  0  0
    2.3868    1.5132    2.2864 C   0  0  0  0  0  0  0  0  0  0  0  0
   -0.5736   -1.2981    1.0080 C   0  0  0  0  0  0  0  0  0  0  0  0
   -1.7786   -1.9383    0.7015 C   0  0  0  0  0  0  0  0  0  0  0  0
   -2.2370   -2.9905    1.4763 C   0  0  0  0  0  0  0  0  0  0  0  0
   -1.4751   -3.4220    2.5860 C   0  0  0  0  0  0  0  0  0  0  0  0
   -1.9185   -4.4698    3.3600 N   0  0  0  0  0  0  0  0  0  0  0  0
   -0.2552   -2.7789    2.8943 C   0  0  0  0  0  0  0  0  0  0  0  0
    0.1801   -1.7285    2.1026 C   0  0  0  0  0  0  0  0  0  0  0  0
   -1.4452    1.7789    0.6439 H   0  0  0  0  0  0  0  0  0  0  0  0
    2.2719    6.0920    2.7526 H   0  0  0  0  0  0  0  0  0  0  0  0
    2.1939    8.5623    2.9218 H   0  0  0  0  0  0  0  0  0  0  0  0
    1.0560    9.9002    1.1697 H   0  0  0  0  0  0  0  0  0  0  0  0
   -0.0010    8.7673   -0.7691 H   0  0  0  0  0  0  0  0  0  0  0  0
    0.0950    6.2947   -0.9783 H   0  0  0  0  0  0  0  0  0  0  0  0
    3.8366    5.0806    0.9705 H   0  0  0  0  0  0  0  0  0  0  0  0
    3.7276    3.5400    0.0743 H   0  0  0  0  0  0  0  0  0  0  0  0
    4.2212    3.5465    1.8030 H   0  0  0  0  0  0  0  0  0  0  0  0
    2.8733    0.8208    1.5637 H   0  0  0  0  0  0  0  0  0  0  0  0
    1.7139    0.8982    2.9068 H   0  0  0  0  0  0  0  0  0  0  0  0
    3.1669    1.9068    2.9509 H   0  0  0  0  0  0  0  0  0  0  0  0
   -2.3748   -1.6191   -0.1656 H   0  0  0  0  0  0  0  0  0  0  0  0
   -3.1715   -3.4838    1.2333 H   0  0  0  0  0  0  0  0  0  0  0  0
   -1.4011   -4.7890    4.1480 H   0  0  0  0  0  0  0  0  0  0  0  0
   -2.7766   -4.9326    3.1608 H   0  0  0  0  0  0  0  0  0  0  0  0
    0.3351   -3.1088    3.7409 H   0  0  0  0  0  0  0  0  0  0  0  0
    1.1341   -1.2455    2.3455 H   0  0  0  0  0  0  0  0  0  0  0  0
  1  4  1  0  0  0  0
  1 19  1  0  0  0  0
  2  1  2  0  0  0  0
  3  1  2  0  0  0  0
  4  5  1  0  0  0  0
  5  6  2  0  0  0  0
  6 18  1  0  0  0  0
  7  6  1  0  0  0  0
  8 11  1  0  0  0  0
  8  7  1  0  0  0  0
  9  8  1  0  0  0  0
  9  5  1  0  0  0  0
 10  9  2  0  0  0  0
 11 12  2  0  0  0  0
 12 13  1  0  0  0  0
 12 27  1  0  0  0  0
 13 28  1  0  0  0  0
 14 29  1  0  0  0  0
 14 13  2  0  0  0  0
 15 14  1  0  0  0  0
 16 15  2  0  0  0  0
 16 11  1  0  0  0  0
 17  7  1  0  0  0  0
 17 34  1  0  0  0  0
 18 36  1  0  0  0  0
 18 37  1  0  0  0  0
 19 25  1  0  0  0  0
 20 19  2  0  0  0  0
 20 21  1  0  0  0  0
 21 22  2  0  0  0  0
 22 24  1  0  0  0  0
 22 23  1  0  0  0  0
 23 40  1  0  0  0  0
 24 42  1  0  0  0  0
 25 43  1  0  0  0  0
 25 24  2  0  0  0  0
 26  4  1  0  0  0  0
 30 15  1  0  0  0  0
 31 16  1  0  0  0  0
 32 17  1  0  0  0  0
 33 17  1  0  0  0  0
 35 18  1  0  0  0  0
 38 20  1  0  0  0  0
 39 21  1  0  0  0  0
 41 23  1  0  0  0  0
M  END
$$$$
