43
rmsd175.gzmat
S          0.00000        0.00000        0.00000
O          1.44750        0.00000        0.00000
O         -0.77040        0.00000       -1.21960
N         -0.50330        1.44460        0.87970
C          0.43290        2.47820        0.98980
C          1.64120        2.50420        1.63390
N          2.20790        3.83130        1.60120
N          1.37200        4.58860        0.70310
C          0.17310        3.83560        0.45030
O         -0.78770        4.28470       -0.11440
C          1.33390        5.99640        0.91060
C          0.69650        6.76630       -0.07570
C          0.68340        8.15100        0.04660
C          1.30190        8.77140        1.13170
C          1.92790        8.00080        2.10890
C          1.94240        6.61250        2.01110
C          3.61680        3.88480        1.14520
C          2.33990        1.43850        2.36930
C         -0.57080       -1.28950        1.01950
C         -1.83980       -1.83790        0.80870
C         -2.30870       -2.86280        1.61330
C         -1.49140       -3.36050        2.65360
N         -1.94800       -4.37920        3.45800
C         -0.20350       -2.81670        2.85950
C          0.24130       -1.79210        2.03970
H         -1.43300        1.80050        0.61350
H          0.21020        6.28030       -0.92380
H          0.18590        8.75180       -0.71450
H          1.29150        9.85480        1.21740
H          2.40520        8.48440        2.95930
H          2.40760        6.01190        2.79060
H          3.92700        4.93900        1.02710
H          3.78990        3.37170        0.18400
H          4.24920        3.42520        1.92190
H          2.83810        0.73850        1.66310
H          1.63190        0.83720        2.96400
H          3.10460        1.81490        3.06170
H         -2.48040       -1.46780       -0.00400
H         -3.29400       -3.28470        1.44840
H         -1.39870       -4.73360        4.20740
H         -2.86040       -4.75980        3.34170
H          0.42900       -3.20180        3.65030
H          1.24830       -1.38740        2.20060
