43
rmsd249.gzmat
S          0.00000        0.00000        0.00000
O          1.44690        0.00000        0.00000
O         -0.77600        0.00000       -1.21610
N         -0.52510        1.44810        0.85740
C          0.42880        2.41380        1.18720
C          1.56360        2.32180        1.94770
N          2.13840        3.62790        2.16880
N          1.40810        4.52460        1.30790
C          0.24420        3.84060        0.81600
O         -0.63830        4.38240        0.20620
C          1.34380        5.88370        1.72980
C          1.77840        6.30210        2.99350
C          1.74960        7.65740        3.30930
C          1.28370        8.58850        2.38360
C          0.83830        8.16310        1.13220
C          0.86550        6.81490        0.79430
C          3.58770        3.72230        1.87400
C          2.18120        1.14870        2.58640
C         -0.55810       -1.29120        1.02560
C         -1.89850       -1.68760        0.98630
C         -2.35660       -2.71200        1.79820
C         -1.45630       -3.36340        2.67150
N         -1.90330       -4.37090        3.49590
C         -0.09760       -2.97570        2.69980
C          0.33430       -1.94870        1.87640
H         -1.38540        1.87300        0.47840
H          2.12120        5.57440        3.72700
H          2.08910        7.98760        4.28940
H          1.26330        9.64520        2.63670
H          0.46620        8.89010        0.41110
H          0.51180        6.47910       -0.18210
H          3.90890        4.77800        1.93770
H          3.86080        3.34380        0.87480
H          4.13390        3.15010        2.64100
H          2.74700        0.55180        1.83870
H          1.41640        0.48130        3.01800
H          2.87210        1.40950        3.39940
H         -2.60580       -1.19890        0.30310
H         -3.39700       -3.01490        1.76440
H         -1.28150       -4.86160        4.09770
H         -2.84870       -4.68110        3.46710
H          0.59850       -3.48110        3.35890
H          1.39550       -1.66700        1.89570
