43
rmsd237.gzmat
S          0.00000        0.00000        0.00000
O          1.44650        0.00000        0.00000
O         -0.75470        0.00000       -1.22970
N         -0.49720        1.43250        0.89960
C          0.37100        2.52940        0.92650
C          1.62990        2.65080        1.45430
N          2.05830        4.02750        1.43510
N          1.07860        4.73450        0.64880
C         -0.05970        3.87090        0.46140
O         -1.10000        4.24200       -0.01100
C          0.89180        6.11030        0.97360
C          1.45610        6.70480        2.10840
C          1.26350        8.06530        2.33150
C          0.51570        8.82840        1.43770
C         -0.04770        8.22840        0.31150
C          0.13560        6.87210        0.06890
C          3.41120        4.25600        0.87780
C          2.50080        1.63740        2.06900
C         -0.59540       -1.28950        1.00790
C         -0.02410       -1.53330        2.25990
C         -0.48920       -2.56150        3.06350
C         -1.55160       -3.37350        2.60650
N         -2.02040       -4.40090        3.39280
C         -2.12600       -3.13410        1.33750
C         -1.64230       -2.09910        0.55480
H         -1.47010        1.72510        0.72600
H          2.02690        6.10760        2.81700
H          1.69580        8.53050        3.21580
H          0.36670        9.88960        1.61890
H         -0.63760        8.82370       -0.38470
H         -0.30960        6.39900       -0.80800
H          3.60210        5.34280        0.81000
H          3.55490        3.82310       -0.12640
H          4.14930        3.81950        1.57040
H          2.95110        0.98260        1.28780
H          1.92940        0.97010        2.73460
H          3.32010        2.06160        2.66310
H          0.80160       -0.91220        2.62560
H         -0.04580       -2.74430        4.03550
H         -2.78340       -4.96950        3.10130
H         -1.64370       -4.57220        4.29760
H         -2.93740       -3.75870        0.98050
H         -2.09550       -1.92450       -0.43240
