
     RDKit          3D

 45 45  0  0  0  0  0  0  0  0999 V2000
    0.1247    0.1179    0.3326 C   0  0  0  0  0  0  0  0  0  0  0  0
    1.6414   -0.0153    0.1988 C   0  0  0  0  0  0  0  0  0  0  0  0
   -0.5155    0.7123   -0.9189 C   0  0  0  0  0  0  0  0  0  0  0  0
   -0.5123   -1.5687    0.7384 S   0  0  0  0  0  0  0  0  0  0  0  0
   -2.3223   -1.3125    0.7188 C   0  0  0  0  0  0  0  0  0  0  0  0
   -2.8278   -0.2984    1.7382 C   0  0  0  0  0  0  0  0  0  0  0  0
   -4.3444   -0.0569    1.7273 C   0  0  1  0  0  0  0  0  0  0  0  0
   -4.8679   -1.0095    1.9168 H   0  0  0  0  0  0  0  0  0  0  0  0
   -4.6782    0.8642    2.7963 N   0  0  0  0  0  0  0  0  0  0  0  0
   -4.8264    0.4093    0.3250 C   0  0  2  0  0  0  0  0  0  0  0  0
   -4.5836   -0.3667   -0.4199 H   0  0  0  0  0  0  0  0  0  0  0  0
   -4.1806    1.6429    0.0257 O   0  0  0  0  0  0  0  0  0  0  0  0
   -6.3456    0.5272    0.3382 C   0  0  0  0  0  0  0  0  0  0  0  0
   -7.0805   -0.4373    0.3459 O   0  0  0  0  0  0  0  0  0  0  0  0
   -6.8081    1.8283    0.3593 N   0  0  0  0  0  0  0  0  0  0  0  0
   -8.1181    2.0673    0.7027 N   0  0  0  0  0  0  0  0  0  0  0  0
   -8.5176    1.8216    2.0067 C   0  0  0  0  0  0  0  0  0  0  0  0
   -7.7214    1.5822    2.8951 O   0  0  0  0  0  0  0  0  0  0  0  0
   -9.9930    1.9078    2.2494 C   0  0  0  0  0  0  0  0  0  0  0  0
  -10.5028    1.2533    3.3795 C   0  0  0  0  0  0  0  0  0  0  0  0
  -11.8693    1.2973    3.6516 C   0  0  0  0  0  0  0  0  0  0  0  0
  -12.7381    2.0023    2.8141 C   0  0  0  0  0  0  0  0  0  0  0  0
  -12.2197    2.6673    1.6998 C   0  0  0  0  0  0  0  0  0  0  0  0
  -10.8549    2.6280    1.4096 C   0  0  0  0  0  0  0  0  0  0  0  0
  -13.2896    3.5726    0.6580 Cl  0  0  0  0  0  0  0  0  0  0  0  0
   -0.0955    0.7684    1.1948 H   0  0  0  0  0  0  0  0  0  0  0  0
    1.9045   -0.6619   -0.6537 H   0  0  0  0  0  0  0  0  0  0  0  0
    2.0871   -0.4494    1.1070 H   0  0  0  0  0  0  0  0  0  0  0  0
    2.0971    0.9743    0.0331 H   0  0  0  0  0  0  0  0  0  0  0  0
   -0.3896    0.0356   -1.7794 H   0  0  0  0  0  0  0  0  0  0  0  0
   -0.0387    1.6766   -1.1639 H   0  0  0  0  0  0  0  0  0  0  0  0
   -1.5891    0.9063   -0.7778 H   0  0  0  0  0  0  0  0  0  0  0  0
   -2.7401   -2.3122    0.9205 H   0  0  0  0  0  0  0  0  0  0  0  0
   -2.6214   -1.0488   -0.3065 H   0  0  0  0  0  0  0  0  0  0  0  0
   -2.3369    0.6734    1.5705 H   0  0  0  0  0  0  0  0  0  0  0  0
   -2.5503   -0.6203    2.7524 H   0  0  0  0  0  0  0  0  0  0  0  0
   -5.6854    0.9878    2.9136 H   0  0  0  0  0  0  0  0  0  0  0  0
   -4.2723    1.7813    2.6113 H   0  0  0  0  0  0  0  0  0  0  0  0
   -4.2200    1.7918   -0.9272 H   0  0  0  0  0  0  0  0  0  0  0  0
   -6.1341    2.5601    0.5649 H   0  0  0  0  0  0  0  0  0  0  0  0
   -8.7899    1.8985   -0.0394 H   0  0  0  0  0  0  0  0  0  0  0  0
   -9.8092    0.7160    4.0273 H   0  0  0  0  0  0  0  0  0  0  0  0
  -12.2690    0.7799    4.5265 H   0  0  0  0  0  0  0  0  0  0  0  0
  -13.8084    2.0465    3.0199 H   0  0  0  0  0  0  0  0  0  0  0  0
  -10.4791    3.1849    0.5509 H   0  0  0  0  0  0  0  0  0  0  0  0
  1  2  1  0
  1  3  1  0
  1  4  1  0
  1 26  1  0
  2 27  1  0
  2 28  1  0
  2 29  1  0
  3 30  1  0
  3 31  1  0
  3 32  1  0
  4  5  1  0
  5  6  1  0
  5 33  1  0
  5 34  1  0
  6  7  1  0
  6 35  1  0
  6 36  1  0
  7  8  1  1
  7  9  1  0
  7 10  1  0
  9 37  1  0
  9 38  1  0
 10 11  1  6
 10 12  1  0
 10 13  1  0
 12 39  1  0
 13 14  2  0
 13 15  1  0
 15 16  1  0
 15 40  1  0
 16 17  1  0
 16 41  1  0
 17 18  2  0
 17 19  1  0
 19 20  2  0
 19 24  1  0
 20 21  1  0
 20 42  1  0
 21 22  2  0
 21 43  1  0
 22 23  1  0
 22 44  1  0
 23 24  2  0
 23 25  1  0
 24 45  1  0
M  END

