45
rmsd72.gzmat
C          0.00000        0.00000        0.00000
C          1.52270        0.00000        0.00000
C         -0.54770        0.00000       -1.42010
S         -0.68350       -1.39500        1.00800
C         -0.13880       -2.92260        0.14800
C         -1.20820       -3.45500       -0.79690
C         -0.69680       -4.69490       -1.55890
H         -0.05590       -5.32700       -0.88420
N         -1.84060       -5.51430       -1.97620
C          0.18750       -4.23010       -2.76820
H          0.92860       -3.46250       -2.46160
O         -0.71920       -3.69750       -3.70590
C          0.89560       -5.44940       -3.34910
O          1.87100       -5.94950       -2.84010
N          0.38940       -5.92510       -4.57410
N          0.75730       -7.21570       -4.96710
C          0.07550       -8.28850       -4.34570
O         -0.92590       -8.07900       -3.70010
C          0.61180       -9.63280       -4.66540
C          0.86750      -10.00270       -5.98600
C          1.36040      -11.27650       -6.26460
C          1.59850      -12.17900       -5.22880
C          1.32600      -11.78240       -3.92460
C          0.82880      -10.52340       -3.61380
Cl         1.61040      -12.88610       -2.65340
H         -0.37280        0.90490        0.54370
H          1.94670       -0.85750       -0.53580
H          1.93850       -0.01060        1.01680
H          1.91260        0.90260       -0.49010
H         -0.20630       -0.86510       -2.00080
H         -0.22300        0.89760       -1.96360
H         -1.64610       -0.00160       -1.44240
H          0.07990       -3.66320        0.94450
H          0.81550       -2.73970       -0.37450
H         -1.54970       -2.68550       -1.51700
H         -2.12190       -3.74170       -0.22680
H         -1.55040       -6.32430       -2.50560
H         -2.50960       -4.98970       -2.51920
H         -0.25390       -3.14590       -4.37070
H         -0.58240       -5.71160       -4.82640
H          1.76260       -7.28660       -5.14560
H          0.67460       -9.30120       -6.80000
H          1.55950      -11.56800       -7.29560
H          1.98790      -13.17460       -5.44460
H          0.60540      -10.23300       -2.58300
