45

C          0.02970        0.10780        0.34460
C          1.52460       -0.02040        0.05430
C         -0.78950        0.31420       -0.92890
S         -0.64580       -1.25220        1.40150
C         -0.30360       -2.73890        0.38920
C          1.01590       -3.43790        0.71690
C          1.42300       -4.48020       -0.33160
H          1.26280       -4.02940       -1.32250
N          2.83680       -4.78380       -0.20450
C          0.51760       -5.74660       -0.26550
H         -0.52760       -5.43750       -0.10220
O          1.00130       -6.56740        0.78940
C          0.53690       -6.44700       -1.61830
O         -0.15860       -6.08950       -2.54950
N          1.47990       -7.43980       -1.72380
N          1.73680       -8.05920       -2.92390
C          2.23080       -7.34050       -4.01030
O          2.10110       -7.74980       -5.14030
C          2.98660       -6.08150       -3.66000
C          4.32410       -6.15760       -3.24850
C          5.02680       -4.98750       -2.94920
C          4.39770       -3.74340       -3.02510
C          3.06330       -3.68610       -3.43100
C          2.35500       -4.83830       -3.77410
Cl         2.23410       -2.14430       -3.45090
H         -0.12760        0.97470        1.00860
H          1.73310       -0.85630       -0.63140
H          2.10120       -0.17550        0.97760
H          1.89250        0.89690       -0.43570
H         -0.67850       -0.53810       -1.61850
H         -0.44060        1.21220       -1.46650
H         -1.85820        0.43510       -0.70130
H         -0.33180       -2.44890       -0.67270
H         -1.16600       -3.40540        0.54560
H          0.96540       -3.90260        1.71620
H          1.82770       -2.70070        0.75450
H          3.17000       -5.35030       -0.98210
H          2.99950       -5.31360        0.65180
H          0.28460       -7.14020        1.08920
H          2.03550       -7.68470       -0.91030
H          1.08810       -8.79860       -3.19420
H          4.81290       -7.13070       -3.16540
H          6.07010       -5.04360       -2.63120
H          4.92340       -2.82770       -2.75390
H          1.30890       -4.77900       -4.07140
