45
rmsd75.gzmat
C          0.00000        0.00000        0.00000
C          1.52180        0.00000        0.00000
C         -0.55240        0.00000       -1.41690
S         -0.68940       -1.39130        1.00980
C         -0.29500       -2.93640        0.09840
C          0.53500       -3.90320        0.93340
C          2.02370       -3.52320        0.99790
H          2.32230       -3.03030        0.03550
N          2.34570       -2.67090        2.16910
C          2.91460       -4.79680        1.13490
H          3.99400       -4.51800        1.20100
O          2.81190       -5.51930       -0.06260
C          2.49370       -5.66210        2.32200
O          1.96510       -6.74360        2.18080
N          2.88380       -5.16100        3.56410
N          2.49770       -5.81440        4.73180
C          1.15620       -5.80480        5.17760
O          0.84710       -6.63430        6.00270
C          0.24090       -4.72990        4.71980
C         -0.99620       -5.10070        4.19080
C         -1.90940       -4.12020        3.80570
C         -1.59010       -2.76990        3.94490
C         -0.34390       -2.43420        4.45990
C          0.58120       -3.38590        4.86870
Cl         0.08590       -0.78380        4.58280
H         -0.37400        0.90310        0.54880
H          1.94380       -0.88410       -0.49310
H          1.93540        0.05430        1.01520
H          1.90900        0.87490       -0.54290
H         -0.19990       -0.85150       -2.01170
H         -0.24360        0.90730       -1.95560
H         -1.65110       -0.01700       -1.43670
H          0.20450       -2.70780       -0.86010
H         -1.26590       -3.40260       -0.16750
H          0.44170       -4.91890        0.48230
H          0.11640       -4.02110        1.95570
H          2.99280       -1.93460        1.92950
H          1.51980       -2.24500        2.56990
H          2.26890       -6.33760        0.06020
H          2.96840       -4.13640        3.67060
H          3.02230       -6.68820        4.86460
H         -1.25000       -6.15950        4.09100
H         -2.87910       -4.40920        3.39910
H         -2.30860       -2.00030        3.65510
H          1.54110       -3.09680        5.30180
