
     RDKit          3D

 45 45  0  0  0  0  0  0  0  0999 V2000
   -0.2571    0.0576   -0.2966 C   0  0  0  0  0  0  0  0  0  0  0  0
    1.2393    0.3340   -0.4396 C   0  0  0  0  0  0  0  0  0  0  0  0
   -0.9313   -0.2164   -1.6404 C   0  0  0  0  0  0  0  0  0  0  0  0
   -0.6124   -1.2270    0.9847 S   0  0  0  0  0  0  0  0  0  0  0  0
    0.0330   -2.7494    0.1926 C   0  0  0  0  0  0  0  0  0  0  0  0
   -1.0288   -3.5698   -0.5351 C   0  0  0  0  0  0  0  0  0  0  0  0
   -0.4986   -4.7983   -1.2885 C   0  0  1  0  0  0  0  0  0  0  0  0
    0.0642   -5.4413   -0.5904 H   0  0  0  0  0  0  0  0  0  0  0  0
   -1.6224   -5.5583   -1.7996 N   0  0  0  0  0  0  0  0  0  0  0  0
    0.5235   -4.3813   -2.3839 C   0  0  2  0  0  0  0  0  0  0  0  0
    1.3627   -3.8418   -1.9134 H   0  0  0  0  0  0  0  0  0  0  0  0
   -0.1570   -3.5667   -3.3332 O   0  0  0  0  0  0  0  0  0  0  0  0
    1.1209   -5.6365   -3.0076 C   0  0  0  0  0  0  0  0  0  0  0  0
    1.9278   -6.3373   -2.4346 O   0  0  0  0  0  0  0  0  0  0  0  0
    0.6479   -5.9133   -4.2756 N   0  0  0  0  0  0  0  0  0  0  0  0
    0.8427   -7.1690   -4.8021 N   0  0  0  0  0  0  0  0  0  0  0  0
    0.1626   -8.2366   -4.2378 C   0  0  0  0  0  0  0  0  0  0  0  0
   -0.7317   -8.0795   -3.4278 O   0  0  0  0  0  0  0  0  0  0  0  0
    0.5822   -9.5894   -4.7252 C   0  0  0  0  0  0  0  0  0  0  0  0
    1.2478   -9.7945   -5.9432 C   0  0  0  0  0  0  0  0  0  0  0  0
    1.6027  -11.0876   -6.3324 C   0  0  0  0  0  0  0  0  0  0  0  0
    1.2997  -12.1804   -5.5187 C   0  0  0  0  0  0  0  0  0  0  0  0
    0.6248  -11.9671   -4.3116 C   0  0  0  0  0  0  0  0  0  0  0  0
    0.2576  -10.6836   -3.9120 C   0  0  0  0  0  0  0  0  0  0  0  0
    0.2348  -13.3303   -3.2951 Cl  0  0  0  0  0  0  0  0  0  0  0  0
   -0.7325    0.9420    0.1602 H   0  0  0  0  0  0  0  0  0  0  0  0
    1.7695   -0.5362   -0.8601 H   0  0  0  0  0  0  0  0  0  0  0  0
    1.6947    0.5696    0.5329 H   0  0  0  0  0  0  0  0  0  0  0  0
    1.4115    1.1824   -1.1236 H   0  0  0  0  0  0  0  0  0  0  0  0
   -0.5138   -1.1092   -2.1319 H   0  0  0  0  0  0  0  0  0  0  0  0
   -0.7810    0.6387   -2.3213 H   0  0  0  0  0  0  0  0  0  0  0  0
   -2.0122   -0.3758   -1.5173 H   0  0  0  0  0  0  0  0  0  0  0  0
    0.4953   -3.3413    0.9983 H   0  0  0  0  0  0  0  0  0  0  0  0
    0.8542   -2.4495   -0.4748 H   0  0  0  0  0  0  0  0  0  0  0  0
   -1.5662   -2.9305   -1.2509 H   0  0  0  0  0  0  0  0  0  0  0  0
   -1.7786   -3.9284    0.1850 H   0  0  0  0  0  0  0  0  0  0  0  0
   -1.3429   -6.4441   -2.2244 H   0  0  0  0  0  0  0  0  0  0  0  0
   -2.1236   -5.0170   -2.5036 H   0  0  0  0  0  0  0  0  0  0  0  0
    0.4955   -3.0658   -3.8382 H   0  0  0  0  0  0  0  0  0  0  0  0
   -0.1733   -5.4033   -4.5880 H   0  0  0  0  0  0  0  0  0  0  0  0
    1.7768   -7.3386   -5.1610 H   0  0  0  0  0  0  0  0  0  0  0  0
    1.4625   -8.9547   -6.6062 H   0  0  0  0  0  0  0  0  0  0  0  0
    2.1140  -11.2500   -7.2837 H   0  0  0  0  0  0  0  0  0  0  0  0
    1.5743  -13.1945   -5.8124 H   0  0  0  0  0  0  0  0  0  0  0  0
   -0.2773  -10.5138   -2.9777 H   0  0  0  0  0  0  0  0  0  0  0  0
  1  2  1  0
  1  3  1  0
  1  4  1  0
  1 26  1  0
  2 27  1  0
  2 28  1  0
  2 29  1  0
  3 30  1  0
  3 31  1  0
  3 32  1  0
  4  5  1  0
  5  6  1  0
  5 33  1  0
  5 34  1  0
  6  7  1  0
  6 35  1  0
  6 36  1  0
  7  8  1  1
  7  9  1  0
  7 10  1  0
  9 37  1  0
  9 38  1  0
 10 11  1  1
 10 12  1  0
 10 13  1  0
 12 39  1  0
 13 14  2  0
 13 15  1  0
 15 16  1  0
 15 40  1  0
 16 17  1  0
 16 41  1  0
 17 18  2  0
 17 19  1  0
 19 20  2  0
 19 24  1  0
 20 21  1  0
 20 42  1  0
 21 22  2  0
 21 43  1  0
 22 23  1  0
 22 44  1  0
 23 24  2  0
 23 25  1  0
 24 45  1  0
M  END

