45
rmsd80.gzmat
C          0.00000        0.00000        0.00000
C          1.52090        0.00000        0.00000
C         -0.55680        0.00000       -1.41560
S         -0.66590       -1.38910        1.03470
C         -0.79230       -2.86540       -0.04290
C          0.51480       -3.35510       -0.64950
C          1.60410       -3.68480        0.38140
H          1.77870       -2.79210        1.04230
N          1.27980       -4.89180        1.18250
C          2.95610       -3.97190       -0.33950
H          3.76110       -4.18800        0.40430
O          3.35100       -2.77650       -0.96330
C          2.85370       -5.09530       -1.37200
O          2.98680       -4.89400       -2.56080
N          2.72880       -6.37350       -0.83080
N          2.55960       -7.47410       -1.66850
C          1.40560       -7.62060       -2.47140
O          1.46390       -8.41700       -3.38010
C          0.16530       -6.89130       -2.10430
C         -0.46190       -6.12220       -3.08550
C         -1.64670       -5.44860       -2.78960
C         -2.20370       -5.53730       -1.51440
C         -1.55260       -6.31040       -0.56090
C         -0.38340       -7.00910       -0.82830
Cl        -2.20100       -6.38910        1.02000
H         -0.37190        0.90590        0.54500
H          1.95180       -0.88390       -0.49420
H          1.94010        0.03100        1.01410
H          1.91360        0.87700       -0.53220
H         -0.17810       -0.83480       -2.01810
H         -0.26700        0.92130       -1.94220
H         -1.65330       -0.04170       -1.43720
H         -1.52530       -2.66330       -0.84810
H         -1.25290       -3.64030        0.60070
H          0.91740       -2.59870       -1.36020
H          0.30760       -4.24960       -1.27850
H          1.54870       -4.77700        2.14960
H          0.29440       -5.10820        1.15750
H          3.35320       -2.87410       -1.94910
H          2.26010       -6.47520        0.08530
H          3.45250       -7.76780       -2.08600
H         -0.02540       -6.05660       -4.08650
H         -2.14160       -4.85550       -3.55980
H         -3.13210       -5.01500       -1.28010
H          0.09280       -7.63610       -0.07120
