
     RDKit          3D

 45 45  0  0  0  0  0  0  0  0999 V2000
    0.3348    0.1383   -0.0174 C   0  0  0  0  0  0  0  0  0  0  0  0
    1.5746    0.6396    0.7180 C   0  0  0  0  0  0  0  0  0  0  0  0
    0.5452    0.0688   -1.5297 C   0  0  0  0  0  0  0  0  0  0  0  0
   -0.1858   -1.5521    0.5177 S   0  0  0  0  0  0  0  0  0  0  0  0
   -0.2918   -1.3562    2.3292 C   0  0  0  0  0  0  0  0  0  0  0  0
   -1.3818   -0.3998    2.8100 C   0  0  0  0  0  0  0  0  0  0  0  0
   -1.1820   -0.0027    4.2754 C   0  0  1  0  0  0  0  0  0  0  0  0
   -1.0118   -0.9170    4.8739 H   0  0  0  0  0  0  0  0  0  0  0  0
    0.0110    0.8221    4.4063 N   0  0  0  0  0  0  0  0  0  0  0  0
   -2.4378    0.6830    4.8580 C   0  0  2  0  0  0  0  0  0  0  0  0
   -2.7265    1.5210    4.1954 H   0  0  0  0  0  0  0  0  0  0  0  0
   -2.1147    1.1293    6.1643 O   0  0  0  0  0  0  0  0  0  0  0  0
   -3.6584   -0.2316    4.9153 C   0  0  0  0  0  0  0  0  0  0  0  0
   -4.5544   -0.2372    4.1027 O   0  0  0  0  0  0  0  0  0  0  0  0
   -3.6619   -1.0632    6.0412 N   0  0  0  0  0  0  0  0  0  0  0  0
   -4.8938   -1.2860    6.6278 N   0  0  0  0  0  0  0  0  0  0  0  0
   -5.5181   -0.1888    7.1854 C   0  0  0  0  0  0  0  0  0  0  0  0
   -4.9414    0.8867    7.2806 O   0  0  0  0  0  0  0  0  0  0  0  0
   -6.9097   -0.4062    7.6843 C   0  0  0  0  0  0  0  0  0  0  0  0
   -7.4248   -1.6781    7.9772 C   0  0  0  0  0  0  0  0  0  0  0  0
   -8.7356   -1.8067    8.4395 C   0  0  0  0  0  0  0  0  0  0  0  0
   -9.5389   -0.6785    8.6150 C   0  0  0  0  0  0  0  0  0  0  0  0
   -9.0122    0.5865    8.3320 C   0  0  0  0  0  0  0  0  0  0  0  0
   -7.7039    0.7327    7.8751 C   0  0  0  0  0  0  0  0  0  0  0  0
  -10.0079    2.0008    8.5583 Cl  0  0  0  0  0  0  0  0  0  0  0  0
   -0.5077    0.8211    0.1852 H   0  0  0  0  0  0  0  0  0  0  0  0
    2.4129   -0.0636    0.5882 H   0  0  0  0  0  0  0  0  0  0  0  0
    1.3968    0.7649    1.7966 H   0  0  0  0  0  0  0  0  0  0  0  0
    1.8806    1.6201    0.3149 H   0  0  0  0  0  0  0  0  0  0  0  0
    1.3766   -0.6103   -1.7780 H   0  0  0  0  0  0  0  0  0  0  0  0
    0.7887    1.0677   -1.9263 H   0  0  0  0  0  0  0  0  0  0  0  0
   -0.3580   -0.2938   -2.0443 H   0  0  0  0  0  0  0  0  0  0  0  0
    0.6841   -1.0453    2.7265 H   0  0  0  0  0  0  0  0  0  0  0  0
   -0.4818   -2.3743    2.7047 H   0  0  0  0  0  0  0  0  0  0  0  0
   -2.3751   -0.8460    2.6524 H   0  0  0  0  0  0  0  0  0  0  0  0
   -1.3699    0.5255    2.2084 H   0  0  0  0  0  0  0  0  0  0  0  0
    0.1316    1.0891    5.3833 H   0  0  0  0  0  0  0  0  0  0  0  0
   -0.1214    1.6951    3.8911 H   0  0  0  0  0  0  0  0  0  0  0  0
   -2.9376    1.4289    6.5915 H   0  0  0  0  0  0  0  0  0  0  0  0
   -2.9535   -0.8063    6.7265 H   0  0  0  0  0  0  0  0  0  0  0  0
   -5.4456   -2.0363    6.2274 H   0  0  0  0  0  0  0  0  0  0  0  0
   -6.7995   -2.5667    7.8767 H   0  0  0  0  0  0  0  0  0  0  0  0
   -9.1366   -2.7950    8.6745 H   0  0  0  0  0  0  0  0  0  0  0  0
  -10.5650   -0.7686    8.9742 H   0  0  0  0  0  0  0  0  0  0  0  0
   -7.2869    1.7166    7.6618 H   0  0  0  0  0  0  0  0  0  0  0  0
  1  2  1  0
  1  3  1  0
  1  4  1  0
  1 26  1  0
  2 27  1  0
  2 28  1  0
  2 29  1  0
  3 30  1  0
  3 31  1  0
  3 32  1  0
  4  5  1  0
  5  6  1  0
  5 33  1  0
  5 34  1  0
  6  7  1  0
  6 35  1  0
  6 36  1  0
  7  8  1  1
  7  9  1  0
  7 10  1  0
  9 37  1  0
  9 38  1  0
 10 11  1  6
 10 12  1  0
 10 13  1  0
 12 39  1  0
 13 14  2  0
 13 15  1  0
 15 16  1  0
 15 40  1  0
 16 17  1  0
 16 41  1  0
 17 18  2  0
 17 19  1  0
 19 20  2  0
 19 24  1  0
 20 21  1  0
 20 42  1  0
 21 22  2  0
 21 43  1  0
 22 23  1  0
 22 44  1  0
 23 24  2  0
 23 25  1  0
 24 45  1  0
M  END

