45

C          0.01230       -0.02910        0.02050
C          1.53820        0.05190       -0.04210
C         -0.64400       -0.01810       -1.35730
S         -0.60150       -1.40680        1.10080
C         -0.73360       -2.84940       -0.01580
C          0.56420       -3.40030       -0.60840
C          1.67320       -3.70060        0.39500
H          1.82770       -2.78700        0.99380
N          1.35270       -4.85270        1.25730
C          3.01160       -3.96140       -0.33910
H          3.76850       -4.22660        0.42670
O          3.41290       -2.82540       -1.04750
C          2.92610       -5.13700       -1.32590
O          3.17520       -4.96740       -2.50930
N          2.59080       -6.33660       -0.77380
N          2.44330       -7.46140       -1.56290
C          1.43420       -7.56520       -2.51650
O          1.57940       -8.23430       -3.51630
C          0.14570       -6.86850       -2.18650
C         -0.55570       -6.22580       -3.21380
C         -1.76450       -5.58590       -2.93620
C         -2.29120       -5.59080       -1.64120
C         -1.58940       -6.25150       -0.63120
C         -0.38140       -6.89560       -0.88960
Cl        -2.20210       -6.22540        1.01170
H         -0.35740        0.84620        0.58050
H          1.98950       -0.80910       -0.55560
H          1.96820        0.09920        0.96940
H          1.84310        0.96500       -0.58230
H         -0.29960       -0.86030       -1.97710
H         -0.37640        0.90810       -1.89170
H         -1.74060       -0.06740       -1.28200
H         -1.44030       -2.62320       -0.82770
H         -1.23680       -3.59890        0.61430
H          0.97280       -2.68510       -1.33480
H          0.31960       -4.30960       -1.17880
H          1.78860       -4.74220        2.17270
H          0.34910       -4.91270        1.42900
H          3.53460       -3.13300       -1.96750
H          2.15780       -6.29110        0.15990
H          3.31870       -7.87840       -1.87610
H         -0.13670       -6.22990       -4.22100
H         -2.30660       -5.07270       -3.73340
H         -3.22990       -5.08550       -1.41100
H          0.14040       -7.40820       -0.08270
