rmsd94.gzmat
 OpenBabel08211713373D

 45 45  0  0  1  0  0  0  0  0999 V2000
    0.0000    0.0000    0.0000 C   0  0  0  0  0  0  0  0  0  0  0  0
    1.5214    0.0000    0.0000 C   0  0  0  0  0  0  0  0  0  0  0  0
   -0.5508    0.0000   -1.4208 C   0  0  0  0  0  0  0  0  0  0  0  0
   -0.6941   -1.5056    0.8452 S   0  0  0  0  0  0  0  0  0  0  0  0
   -0.1736   -1.3038    2.5995 C   0  0  0  0  0  0  0  0  0  0  0  0
    0.6301   -2.5039    3.0845 C   0  0  0  0  0  0  0  0  0  0  0  0
    2.0655   -2.5017    2.5181 C   0  0  1  0  0  0  0  0  0  0  0  0
    2.0466   -2.2607    1.4200 H   0  0  0  0  0  0  0  0  0  0  0  0
    2.8521   -1.4651    3.2028 N   0  0  0  0  0  0  0  0  0  0  0  0
    2.6980   -3.9203    2.6592 C   0  0  2  0  0  0  0  0  0  0  0  0
    3.7486   -3.9399    2.2781 H   0  0  0  0  0  0  0  0  0  0  0  0
    2.0400   -4.8672    1.8584 O   0  0  0  0  0  0  0  0  0  0  0  0
    2.6827   -4.3825    4.1146 C   0  0  0  0  0  0  0  0  0  0  0  0
    3.0269   -3.6701    5.0362 O   0  0  0  0  0  0  0  0  0  0  0  0
    2.3781   -5.7264    4.3260 N   0  0  0  0  0  0  0  0  0  0  0  0
    2.1330   -6.1458    5.6365 N   0  0  0  0  0  0  0  0  0  0  0  0
    0.9178   -5.7299    6.2304 C   0  0  0  0  0  0  0  0  0  0  0  0
    0.0111   -5.3052    5.5572 O   0  0  0  0  0  0  0  0  0  0  0  0
    0.8551   -5.9826    7.6933 C   0  0  0  0  0  0  0  0  0  0  0  0
    0.5313   -7.2511    8.1704 C   0  0  0  0  0  0  0  0  0  0  0  0
    0.4577   -7.4732    9.5455 C   0  0  0  0  0  0  0  0  0  0  0  0
    0.7058   -6.4320   10.4387 C   0  0  0  0  0  0  0  0  0  0  0  0
    1.0224   -5.1782    9.9280 C   0  0  0  0  0  0  0  0  0  0  0  0
    1.1037   -4.9233    8.5653 C   0  0  0  0  0  0  0  0  0  0  0  0
    1.3270   -3.8987   11.0171 Cl  0  0  0  0  0  0  0  0  0  0  0  0
   -0.3761    0.8936    0.5508 H   0  0  0  0  0  0  0  0  0  0  0  0
    1.9392   -0.8615   -0.5360 H   0  0  0  0  0  0  0  0  0  0  0  0
    1.9413   -0.0032    1.0178 H   0  0  0  0  0  0  0  0  0  0  0  0
    1.9119    0.8999   -0.4937 H   0  0  0  0  0  0  0  0  0  0  0  0
   -0.2387   -0.8835   -1.9939 H   0  0  0  0  0  0  0  0  0  0  0  0
   -0.1932    0.8783   -1.9758 H   0  0  0  0  0  0  0  0  0  0  0  0
   -1.6483    0.0363   -1.4455 H   0  0  0  0  0  0  0  0  0  0  0  0
   -1.0923   -1.1833    3.2050 H   0  0  0  0  0  0  0  0  0  0  0  0
    0.4149   -0.3741    2.7299 H   0  0  0  0  0  0  0  0  0  0  0  0
    0.1088   -3.4533    2.8492 H   0  0  0  0  0  0  0  0  0  0  0  0
    0.6719   -2.4815    4.1986 H   0  0  0  0  0  0  0  0  0  0  0  0
    3.7767   -1.3651    2.8162 H   0  0  0  0  0  0  0  0  0  0  0  0
    2.9311   -1.6696    4.1935 H   0  0  0  0  0  0  0  0  0  0  0  0
    1.1089   -4.6015    1.6662 H   0  0  0  0  0  0  0  0  0  0  0  0
    1.8496   -6.2627    3.6332 H   0  0  0  0  0  0  0  0  0  0  0  0
    2.9907   -6.1527    6.1952 H   0  0  0  0  0  0  0  0  0  0  0  0
    0.3342   -8.0658    7.4716 H   0  0  0  0  0  0  0  0  0  0  0  0
    0.2055   -8.4639    9.9232 H   0  0  0  0  0  0  0  0  0  0  0  0
    0.6502   -6.6044   11.5140 H   0  0  0  0  0  0  0  0  0  0  0  0
    1.3500   -3.9291    8.1827 H   0  0  0  0  0  0  0  0  0  0  0  0
  1  2  1  0  0  0  0
  1 26  1  0  0  0  0
  1  4  1  0  0  0  0
  2 28  1  0  0  0  0
  3  1  1  0  0  0  0
  4  5  1  0  0  0  0
  5 34  1  0  0  0  0
  5  6  1  0  0  0  0
  5 33  1  0  0  0  0
  6 36  1  0  0  0  0
  7  8  1  6  0  0  0
  7 10  1  0  0  0  0
  7  6  1  0  0  0  0
  7  9  1  0  0  0  0
  9 38  1  0  0  0  0
 10 11  1  6  0  0  0
 10 13  1  0  0  0  0
 12 10  1  0  0  0  0
 13 15  1  0  0  0  0
 13 14  2  0  0  0  0
 15 16  1  0  0  0  0
 16 41  1  0  0  0  0
 16 17  1  0  0  0  0
 17 19  1  0  0  0  0
 18 17  2  0  0  0  0
 19 20  2  0  0  0  0
 19 24  1  0  0  0  0
 20 21  1  0  0  0  0
 21 43  1  0  0  0  0
 21 22  2  0  0  0  0
 22 44  1  0  0  0  0
 23 22  1  0  0  0  0
 23 25  1  0  0  0  0
 24 23  2  0  0  0  0
 27  2  1  0  0  0  0
 29  2  1  0  0  0  0
 30  3  1  0  0  0  0
 31  3  1  0  0  0  0
 32  3  1  0  0  0  0
 35  6  1  0  0  0  0
 37  9  1  0  0  0  0
 39 12  1  0  0  0  0
 40 15  1  0  0  0  0
 42 20  1  0  0  0  0
 45 24  1  0  0  0  0
M  END
$$$$
