
     RDKit          3D

 45 45  0  0  0  0  0  0  0  0999 V2000
    0.0297    0.1078    0.3446 C   0  0  0  0  0  0  0  0  0  0  0  0
    1.5246   -0.0204    0.0543 C   0  0  0  0  0  0  0  0  0  0  0  0
   -0.7895    0.3142   -0.9289 C   0  0  0  0  0  0  0  0  0  0  0  0
   -0.6458   -1.2522    1.4015 S   0  0  0  0  0  0  0  0  0  0  0  0
   -0.3036   -2.7389    0.3892 C   0  0  0  0  0  0  0  0  0  0  0  0
    1.0159   -3.4379    0.7169 C   0  0  0  0  0  0  0  0  0  0  0  0
    1.4230   -4.4802   -0.3316 C   0  0  1  0  0  0  0  0  0  0  0  0
    1.2628   -4.0294   -1.3225 H   0  0  0  0  0  0  0  0  0  0  0  0
    2.8368   -4.7838   -0.2045 N   0  0  0  0  0  0  0  0  0  0  0  0
    0.5176   -5.7466   -0.2655 C   0  0  2  0  0  0  0  0  0  0  0  0
   -0.5276   -5.4375   -0.1022 H   0  0  0  0  0  0  0  0  0  0  0  0
    1.0013   -6.5674    0.7894 O   0  0  0  0  0  0  0  0  0  0  0  0
    0.5369   -6.4470   -1.6183 C   0  0  0  0  0  0  0  0  0  0  0  0
   -0.1586   -6.0895   -2.5495 O   0  0  0  0  0  0  0  0  0  0  0  0
    1.4799   -7.4398   -1.7238 N   0  0  0  0  0  0  0  0  0  0  0  0
    1.7368   -8.0592   -2.9239 N   0  0  0  0  0  0  0  0  0  0  0  0
    2.2308   -7.3405   -4.0103 C   0  0  0  0  0  0  0  0  0  0  0  0
    2.1011   -7.7498   -5.1403 O   0  0  0  0  0  0  0  0  0  0  0  0
    2.9866   -6.0815   -3.6600 C   0  0  0  0  0  0  0  0  0  0  0  0
    4.3241   -6.1576   -3.2485 C   0  0  0  0  0  0  0  0  0  0  0  0
    5.0268   -4.9875   -2.9492 C   0  0  0  0  0  0  0  0  0  0  0  0
    4.3977   -3.7434   -3.0251 C   0  0  0  0  0  0  0  0  0  0  0  0
    3.0633   -3.6861   -3.4310 C   0  0  0  0  0  0  0  0  0  0  0  0
    2.3550   -4.8383   -3.7741 C   0  0  0  0  0  0  0  0  0  0  0  0
    2.2341   -2.1443   -3.4509 Cl  0  0  0  0  0  0  0  0  0  0  0  0
   -0.1276    0.9747    1.0086 H   0  0  0  0  0  0  0  0  0  0  0  0
    1.7331   -0.8563   -0.6314 H   0  0  0  0  0  0  0  0  0  0  0  0
    2.1012   -0.1755    0.9776 H   0  0  0  0  0  0  0  0  0  0  0  0
    1.8925    0.8969   -0.4357 H   0  0  0  0  0  0  0  0  0  0  0  0
   -0.6785   -0.5381   -1.6185 H   0  0  0  0  0  0  0  0  0  0  0  0
   -0.4406    1.2122   -1.4665 H   0  0  0  0  0  0  0  0  0  0  0  0
   -1.8582    0.4351   -0.7013 H   0  0  0  0  0  0  0  0  0  0  0  0
   -0.3318   -2.4489   -0.6727 H   0  0  0  0  0  0  0  0  0  0  0  0
   -1.1660   -3.4054    0.5456 H   0  0  0  0  0  0  0  0  0  0  0  0
    0.9654   -3.9026    1.7162 H   0  0  0  0  0  0  0  0  0  0  0  0
    1.8277   -2.7007    0.7545 H   0  0  0  0  0  0  0  0  0  0  0  0
    3.1700   -5.3503   -0.9821 H   0  0  0  0  0  0  0  0  0  0  0  0
    2.9995   -5.3136    0.6518 H   0  0  0  0  0  0  0  0  0  0  0  0
    0.2846   -7.1402    1.0892 H   0  0  0  0  0  0  0  0  0  0  0  0
    2.0355   -7.6847   -0.9103 H   0  0  0  0  0  0  0  0  0  0  0  0
    1.0881   -8.7986   -3.1942 H   0  0  0  0  0  0  0  0  0  0  0  0
    4.8129   -7.1307   -3.1654 H   0  0  0  0  0  0  0  0  0  0  0  0
    6.0701   -5.0436   -2.6312 H   0  0  0  0  0  0  0  0  0  0  0  0
    4.9234   -2.8277   -2.7539 H   0  0  0  0  0  0  0  0  0  0  0  0
    1.3089   -4.7790   -4.0714 H   0  0  0  0  0  0  0  0  0  0  0  0
  1  2  1  0
  1  3  1  0
  1  4  1  0
  1 26  1  0
  2 27  1  0
  2 28  1  0
  2 29  1  0
  3 30  1  0
  3 31  1  0
  3 32  1  0
  4  5  1  0
  5  6  1  0
  5 33  1  0
  5 34  1  0
  6  7  1  0
  6 35  1  0
  6 36  1  0
  7  8  1  6
  7  9  1  0
  7 10  1  0
  9 37  1  0
  9 38  1  0
 10 11  1  1
 10 12  1  0
 10 13  1  0
 12 39  1  0
 13 14  2  0
 13 15  1  0
 15 16  1  0
 15 40  1  0
 16 17  1  0
 16 41  1  0
 17 18  2  0
 17 19  1  0
 19 20  2  0
 19 24  1  0
 20 21  1  0
 20 42  1  0
 21 22  2  0
 21 43  1  0
 22 23  1  0
 22 44  1  0
 23 24  2  0
 23 25  1  0
 24 45  1  0
M  END

