45

C          0.15970        0.00800       -0.07360
C          1.59260       -0.20050       -0.55930
C         -0.84970        0.06050       -1.21880
S         -0.34170       -1.18160        1.24930
C         -0.25820       -2.81610        0.40210
C          0.66640       -3.82920        1.07460
C          2.16180       -3.50000        1.05340
H          2.40300       -3.08000        0.05830
N          2.54710       -2.59730        2.14830
C          2.99880       -4.79810        1.15100
H          4.06330       -4.50210        1.25710
O          2.81500       -5.58260        0.01250
C          2.62920       -5.63900        2.38350
O          2.27280       -6.79980        2.24770
N          2.76190       -5.01390        3.58490
N          2.40620       -5.66530        4.75330
C          1.06810       -5.89560        5.07200
O          0.72710       -6.87010        5.70560
C          0.11450       -4.81050        4.66380
C         -1.13880       -5.15580        4.14370
C         -2.03890       -4.15120        3.78340
C         -1.71610       -2.80340        3.96930
C         -0.47730       -2.47380        4.52610
C          0.44480       -3.46390        4.86210
Cl        -0.06370       -0.80040        4.80370
H          0.11200        0.95860        0.48380
H          1.69570       -1.14760       -1.11190
H          2.30170       -0.21710        0.28070
H          1.88520        0.61130       -1.24580
H         -0.86670       -0.88720       -1.78070
H         -0.58170        0.85950       -1.93040
H         -1.86530        0.25250       -0.84390
H          0.05240       -2.64720       -0.63940
H         -1.28120       -3.21890        0.37070
H          0.54070       -4.78440        0.54080
H          0.34350       -4.00160        2.11100
H          3.41870       -2.11620        1.92380
H          1.83040       -1.87660        2.26800
H          2.56210       -6.46300        0.35370
H          2.83930       -3.98720        3.55780
H          3.00270       -6.45850        4.98440
H         -1.38820       -6.21030        4.01650
H         -3.00870       -4.41510        3.35550
H         -2.41070       -2.01180        3.68810
H          1.40620       -3.18250        5.29150
