rmsd61.gzmat
 OpenBabel08211713363D

 59 63  0  0  1  0  0  0  0  0999 V2000
    0.0000    0.0000    0.0000 O   0  0  0  0  0  0  0  0  0  0  0  0
    1.4738    0.0000    0.0000 S   0  0  0  0  0  0  0  0  0  0  0  0
    2.0042    0.0000    1.3556 O   0  0  0  0  0  0  0  0  0  0  0  0
    1.9737   -1.4264   -0.8282 N   0  0  0  0  0  0  0  0  0  0  0  0
    1.0554   -2.5799   -0.8074 C   0  0  0  0  0  0  0  0  0  0  0  0
    1.1591   -3.3934    0.4699 C   0  0  0  0  0  0  0  0  0  0  0  0
    0.4814   -4.7461    0.5249 C   0  0  0  0  0  0  0  0  0  0  0  0
    1.9849   -4.6632    0.4791 C   0  0  0  0  0  0  0  0  0  0  0  0
    2.1307    1.3396   -0.8636 C   0  0  0  0  0  0  0  0  0  0  0  0
    1.5809    1.7878   -2.0628 C   0  0  0  0  0  0  0  0  0  0  0  0
    2.0855    2.9287   -2.6835 C   0  0  0  0  0  0  0  0  0  0  0  0
    3.1278    3.6348   -2.0859 C   0  0  0  0  0  0  0  0  0  0  0  0
    3.7004    3.1830   -0.8616 C   0  0  0  0  0  0  0  0  0  0  0  0
    3.2103    2.0182   -0.2824 C   0  0  0  0  0  0  0  0  0  0  0  0
    4.7895    3.8792   -0.2788 N   0  0  0  0  0  0  0  0  0  0  0  0
    4.7159    4.2112    1.0551 C   0  0  0  0  0  0  0  0  0  0  0  0
    3.7637    3.5525    1.8242 O   0  0  0  0  0  0  0  0  0  0  0  0
    3.9792    4.0202    3.1321 C   0  0  1  0  0  0  0  0  0  0  0  0
    5.0224    4.9159    3.0942 C   0  0  0  0  0  0  0  0  0  0  0  0
    5.4795    5.0328    1.7743 N   0  0  0  0  0  0  0  0  0  0  0  0
    3.0747    3.4743    4.1042 C   0  0  0  0  0  0  0  0  0  0  0  0
    2.3508    2.3174    3.7987 C   0  0  0  0  0  0  0  0  0  0  0  0
    1.4010    1.8291    4.6995 C   0  0  0  0  0  0  0  0  0  0  0  0
    1.2173    2.4541    5.9349 C   0  0  0  0  0  0  0  0  0  0  0  0
    1.9678    3.5848    6.2511 C   0  0  0  0  0  0  0  0  0  0  0  0
    2.8830    4.1056    5.3397 C   0  0  0  0  0  0  0  0  0  0  0  0
    0.5943    0.6776    4.2967 C   0  0  0  0  0  0  0  0  0  0  0  0
    0.0536    0.6822    2.9983 C   0  0  0  0  0  0  0  0  0  0  0  0
   -0.6429   -0.3816    2.5260 N   0  0  0  0  0  0  0  0  0  0  0  0
   -0.8992   -0.3910    1.4954 H   0  0  0  0  0  0  0  0  0  0  0  0
   -0.8628   -1.4731    3.3147 C   0  0  0  0  0  0  0  0  0  0  0  0
   -0.3782   -1.5049    4.6174 C   0  0  0  0  0  0  0  0  0  0  0  0
    0.3693   -0.4314    5.1113 C   0  0  0  0  0  0  0  0  0  0  0  0
    3.6915    4.7648   -2.5490 O   0  0  0  0  0  0  0  0  0  0  0  0
    3.1680    5.3384   -3.7454 C   0  0  0  0  0  0  0  0  0  0  0  0
    2.9426   -1.7154   -0.6709 H   0  0  0  0  0  0  0  0  0  0  0  0
    1.3023   -3.2073   -1.7014 H   0  0  0  0  0  0  0  0  0  0  0  0
    0.0027   -2.2405   -0.9686 H   0  0  0  0  0  0  0  0  0  0  0  0
    1.1624   -2.7822    1.3775 H   0  0  0  0  0  0  0  0  0  0  0  0
   -0.0654   -5.1155   -0.3403 H   0  0  0  0  0  0  0  0  0  0  0  0
   -0.0146   -5.0686    1.4363 H   0  0  0  0  0  0  0  0  0  0  0  0
    2.5699   -4.9185    1.3599 H   0  0  0  0  0  0  0  0  0  0  0  0
    2.5161   -4.9761   -0.4174 H   0  0  0  0  0  0  0  0  0  0  0  0
    0.7420    1.2602   -2.5337 H   0  0  0  0  0  0  0  0  0  0  0  0
    1.6525    3.2653   -3.6237 H   0  0  0  0  0  0  0  0  0  0  0  0
    3.6819    1.6460    0.6430 H   0  0  0  0  0  0  0  0  0  0  0  0
    5.3045    4.5332   -0.8790 H   0  0  0  0  0  0  0  0  0  0  0  0
    5.4943    5.4881    3.8767 H   0  0  0  0  0  0  0  0  0  0  0  0
    2.5414    1.7833    2.8605 H   0  0  0  0  0  0  0  0  0  0  0  0
    0.4850    2.0716    6.6441 H   0  0  0  0  0  0  0  0  0  0  0  0
    1.8287    4.0729    7.2181 H   0  0  0  0  0  0  0  0  0  0  0  0
    3.4458    5.0085    5.5842 H   0  0  0  0  0  0  0  0  0  0  0  0
    0.1872    1.5480    2.3252 H   0  0  0  0  0  0  0  0  0  0  0  0
   -1.4271   -2.3091    2.8785 H   0  0  0  0  0  0  0  0  0  0  0  0
   -0.5688   -2.3803    5.2475 H   0  0  0  0  0  0  0  0  0  0  0  0
    0.7883   -0.4666    6.1235 H   0  0  0  0  0  0  0  0  0  0  0  0
    3.3186    4.6699   -4.5988 H   0  0  0  0  0  0  0  0  0  0  0  0
    3.7913    6.2426   -3.8468 H   0  0  0  0  0  0  0  0  0  0  0  0
    2.1149    5.6105   -3.6212 H   0  0  0  0  0  0  0  0  0  0  0  0
  1  2  2  0  0  0  0
  2  3  2  0  0  0  0
  4  5  1  0  0  0  0
  4 36  1  0  0  0  0
  4  2  1  0  0  0  0
  5  6  1  0  0  0  0
  6  8  1  0  0  0  0
  6  7  1  0  0  0  0
  6 39  1  0  0  0  0
  7 41  1  0  0  0  0
  8  7  1  0  0  0  0
  8 42  1  0  0  0  0
  9 14  1  0  0  0  0
  9  2  1  0  0  0  0
 10  9  2  0  0  0  0
 11 12  2  0  0  0  0
 11 10  1  0  0  0  0
 12 13  1  0  0  0  0
 13 14  2  0  0  0  0
 13 15  1  0  0  0  0
 14 46  1  0  0  0  0
 15 16  1  0  0  0  0
 16 20  2  0  0  0  0
 16 17  1  0  0  0  0
 17 18  1  0  0  0  0
 18 21  1  6  0  0  0
 19 18  1  0  0  0  0
 19 48  1  0  0  0  0
 20 19  2  0  0  0  0
 21 26  1  0  0  0  0
 22 21  2  0  0  0  0
 22 23  1  0  0  0  0
 23 24  2  0  0  0  0
 24 25  1  0  0  0  0
 24 50  1  0  0  0  0
 25 51  1  0  0  0  0
 26 52  1  0  0  0  0
 26 25  2  0  0  0  0
 27 23  1  0  0  0  0
 27 33  1  0  0  0  0
 28 27  2  0  0  0  0
 29 28  1  0  0  0  0
 29 31  1  0  0  0  0
 30 29  1  0  0  0  0
 31 32  2  0  0  0  0
 32 33  1  0  0  0  0
 32 55  1  0  0  0  0
 33 56  1  0  0  0  0
 34 12  1  0  0  0  0
 35 59  1  0  0  0  0
 35 34  1  0  0  0  0
 37  5  1  0  0  0  0
 38  5  1  0  0  0  0
 40  7  1  0  0  0  0
 43  8  1  0  0  0  0
 44 10  1  0  0  0  0
 45 11  1  0  0  0  0
 47 15  1  0  0  0  0
 49 22  1  0  0  0  0
 53 28  1  0  0  0  0
 54 31  1  0  0  0  0
 57 35  1  0  0  0  0
 58 35  1  0  0  0  0
M  RAD  1  18   2
M  END
$$$$
