59
rmsd33.gzmat
O          0.00000        0.00000        0.00000
S          1.43930        0.00000        0.00000
O          2.10490        0.00000        1.31990
N          2.06060       -1.41940       -0.76550
C          1.14450       -2.21630       -1.60540
C          0.21880       -3.09580       -0.78860
C         -0.17390       -4.45350       -1.32710
C          0.76530       -4.35700       -0.15190
C          2.02100        1.33470       -0.94640
C          1.11210        2.32000       -1.34170
C          1.52340        3.39780       -2.11820
C          2.85990        3.48470       -2.50740
C          3.79100        2.48600       -2.11630
C          3.36220        1.41870       -1.33210
N          5.13790        2.53710       -2.58260
C          6.11460        2.84810       -1.66470
O          5.83370        2.58990       -0.33030
C          7.03550        2.87810        0.34460
C          7.95800        3.28990       -0.59030
N          7.36410        3.27450       -1.85700
C          6.98340        2.65080        1.75920
C          5.76070        2.30800        2.34380
C          5.69330        1.98870        3.70290
C          6.83930        2.06880        4.49680
C          8.04930        2.45350        3.92020
C          8.13120        2.73330        2.55860
C          4.40770        1.54450        4.23650
C          3.60960        0.73170        3.41300
N          2.36880        0.34940        3.79900
H          1.78810       -0.16560        3.08150
C          1.87400        0.70970        5.01600
C          2.64630        1.47870        5.88190
C          3.91640        1.91040        5.49040
O          3.41280        4.45620       -3.25490
C          2.56630        5.49570       -3.74140
H          2.62610       -2.01700       -0.15830
H          1.78520       -2.82840       -2.28910
H          0.54840       -1.54780       -2.27110
H         -0.54210       -2.52010       -0.24230
H          0.19840       -4.78930       -2.29200
H         -1.19060       -4.81390       -1.17880
H          0.42420       -4.65170        0.83680
H          1.81040       -4.62350       -0.27820
H          0.05170        2.25630       -1.05290
H          0.80410        4.15910       -2.41370
H          4.09570        0.65290       -1.04650
H          5.27360        2.93920       -3.52060
H          8.98530        3.60020       -0.48320
H          4.85820        2.30040        1.72990
H          6.79720        1.82120        5.55620
H          8.94460        2.52610        4.54260
H          9.08770        3.01220        2.11330
H          3.95510        0.38430        2.41450
H          0.85960        0.37260        5.27560
H          2.24880        1.75470        6.86590
H          4.51690        2.54200        6.15690
H          1.80290        5.09450       -4.41570
H          3.28500        6.12220       -4.29620
H          2.12490        6.06080       -2.91440
