59
rmsd212.gzmat
O          0.00000        0.00000        0.00000
S          1.46110        0.00000        0.00000
O          1.99200        0.00000        1.37000
N          2.07180       -1.42840       -0.74110
C          1.26080       -2.07120       -1.79310
C         -0.02950       -2.68050       -1.27980
C         -0.53210       -3.96460       -1.90070
C          0.00770       -3.97350       -0.49240
C          1.99550        1.33710       -0.94920
C          3.26620        1.89020       -0.82310
C          3.62170        3.00540       -1.58100
C          2.69120        3.58040       -2.44300
C          1.38090        3.03060       -2.56950
C          1.06570        1.88930       -1.84200
N          0.45830        3.60230       -3.47700
C         -0.85410        3.76570       -3.10080
O         -1.28310        3.11730       -1.94920
C         -2.66160        3.38620       -1.88090
C         -2.99080        4.17170       -2.96130
N         -1.84070        4.40970       -3.72480
C         -3.31800        2.80460       -0.74400
C         -2.65290        1.83480        0.01320
C         -3.24670        1.30950        1.16360
C         -4.53000        1.71740        1.53650
C         -5.20470        2.65810        0.76110
C         -4.60510        3.20930       -0.36910
C         -2.49160        0.33260        1.94820
C         -1.11400        0.55480        2.14000
N         -0.33500       -0.37300        2.75190
H          0.71390       -0.25250        2.72430
C         -0.88280       -1.52260        3.24770
C         -2.24730       -1.75440        3.13330
C         -3.05800       -0.83240        2.46230
O          2.88630        4.66550       -3.21490
C          4.18130        5.26240       -3.22300
H          2.48230       -2.10820       -0.09950
H          1.90770       -2.84680       -2.27510
H          1.03860       -1.32930       -2.59840
H         -0.77800       -1.92470       -0.99600
H          0.02940       -4.44590       -2.69830
H         -1.59890       -4.09290       -2.07380
H         -0.67190       -4.11430        0.34180
H          0.95510       -4.46190       -0.28480
H          4.00250        1.46890       -0.12810
H          4.62150        3.42520       -1.48200
H          0.07360        1.42770       -1.97670
H          0.82190        4.27390       -4.16210
H         -3.93530        4.58780       -3.27330
H         -1.67090        1.47160       -0.31080
H         -5.00020        1.31310        2.43160
H         -6.21080        2.97220        1.04690
H         -5.13530        3.95900       -0.95920
H         -0.63160        1.48450        1.78760
H         -0.20280       -2.23960        3.72960
H         -2.68210       -2.66910        3.55060
H         -4.12710       -1.03290        2.32720
H          4.42850        5.66890       -2.23700
H          4.04280        6.07710       -3.95370
H          4.93870        4.55460       -3.57490
