59
rmsd175.gzmat
O          0.00000        0.00000        0.00000
S          1.47860        0.00000        0.00000
O          2.13580        0.00000        1.27930
N          1.88430       -1.40410       -0.90800
C          3.07620       -2.19300       -0.51570
C          2.88660       -3.64290       -0.91200
C          3.07880       -4.04430       -2.36110
C          4.09940       -4.44810       -1.33010
C          2.04310        1.34930       -0.94090
C          2.60970        2.43770       -0.27310
C          3.09290        3.53390       -0.97920
C          3.02220        3.53060       -2.37220
C          2.46910        2.42040       -3.06260
C          1.97320        1.34070       -2.33690
N          2.47590        2.37920       -4.48910
C          1.26620        2.54160       -5.12510
O          0.12750        2.29230       -4.37240
C         -0.93600        2.42060       -5.28600
C         -0.40160        2.73350       -6.51480
N          0.99130        2.81380       -6.40170
C         -2.22730        2.19890       -4.70410
C         -2.31510        2.03330       -3.31850
C         -3.54530        1.75770       -2.71630
C         -4.70270        1.69020       -3.49420
C         -4.61720        1.88090       -4.87300
C         -3.38960        2.12630       -5.48320
C         -3.55740        1.52890       -1.27290
C         -2.48190        0.81210       -0.72090
N         -2.36040        0.65590        0.61910
H         -1.47210        0.19380        0.96460
C         -3.30470        1.14850        1.46780
C         -4.41500        1.81840        0.96140
C         -4.54210        2.02130       -0.41530
O          3.44230        4.50780       -3.19500
C          4.02250        5.67320       -2.61310
H          1.09930       -1.99010       -1.19080
H          3.29040       -2.13190        0.57950
H          3.95730       -1.74760       -1.03970
H          2.10880       -4.14860       -0.33020
H          3.32560       -3.28560       -3.10060
H          2.42970       -4.79510       -2.80370
H          4.17920       -5.49110       -1.02690
H          5.08470       -3.98940       -1.33090
H          2.69610        2.44260        0.82360
H          3.52110        4.37790       -0.44220
H          1.55270        0.48930       -2.88990
H          3.27930        2.82790       -4.94890
H         -0.87420        2.91380       -7.46720
H         -1.41470        2.13340       -2.71090
H         -5.66530        1.47830       -3.03210
H         -5.52230        1.82760       -5.48260
H         -3.33130        2.25750       -6.56510
H         -1.68860        0.35870       -1.35390
H         -3.15360        0.99460        2.54650
H         -5.18040        2.19700        1.64950
H         -5.39960        2.57440       -0.81780
H          3.29970        6.19470       -1.97860
H          4.25420        6.27310       -3.50900
H          4.93870        5.42470       -2.06800
