rmsd78.gzmat
 OpenBabel08211713363D

 59 63  0  0  1  0  0  0  0  0999 V2000
    0.0000    0.0000    0.0000 O   0  0  0  0  0  0  0  0  0  0  0  0
    1.4396    0.0000    0.0000 S   0  0  0  0  0  0  0  0  0  0  0  0
    2.1032    0.0000    1.3194 O   0  0  0  0  0  0  0  0  0  0  0  0
    1.9963   -1.4095   -0.8309 N   0  0  0  0  0  0  0  0  0  0  0  0
    2.8322   -2.3831   -0.1035 C   0  0  0  0  0  0  0  0  0  0  0  0
    2.0101   -3.3612    0.7134 C   0  0  0  0  0  0  0  0  0  0  0  0
    1.3466   -4.5320    0.0162 C   0  0  0  0  0  0  0  0  0  0  0  0
    2.5285   -4.7683    0.9194 C   0  0  0  0  0  0  0  0  0  0  0  0
    2.0238    1.3394   -0.9378 C   0  0  0  0  0  0  0  0  0  0  0  0
    1.1072    2.3027   -1.3691 C   0  0  0  0  0  0  0  0  0  0  0  0
    1.5196    3.3844   -2.1390 C   0  0  0  0  0  0  0  0  0  0  0  0
    2.8662    3.4985   -2.4844 C   0  0  0  0  0  0  0  0  0  0  0  0
    3.8039    2.5211   -2.0586 C   0  0  0  0  0  0  0  0  0  0  0  0
    3.3745    1.4491   -1.2818 C   0  0  0  0  0  0  0  0  0  0  0  0
    5.1704    2.6035   -2.4678 N   0  0  0  0  0  0  0  0  0  0  0  0
    6.0671    3.0509   -1.5226 C   0  0  0  0  0  0  0  0  0  0  0  0
    5.7316    2.8250   -0.1950 O   0  0  0  0  0  0  0  0  0  0  0  0
    6.8580    3.2532    0.5317 C   0  0  2  0  0  0  0  0  0  0  0  0
    7.7933    3.7110   -0.3684 C   0  0  0  0  0  0  0  0  0  0  0  0
    7.2807    3.5848   -1.6647 N   0  0  0  0  0  0  0  0  0  0  0  0
    6.7364    3.0735    1.9491 C   0  0  0  0  0  0  0  0  0  0  0  0
    5.5183    2.6252    2.4693 C   0  0  0  0  0  0  0  0  0  0  0  0
    5.3927    2.3476    3.8331 C   0  0  0  0  0  0  0  0  0  0  0  0
    6.4708    2.5716    4.6925 C   0  0  0  0  0  0  0  0  0  0  0  0
    7.6712    3.0604    4.1780 C   0  0  0  0  0  0  0  0  0  0  0  0
    7.8142    3.3031    2.8143 C   0  0  0  0  0  0  0  0  0  0  0  0
    4.1253    1.7946    4.3057 C   0  0  0  0  0  0  0  0  0  0  0  0
    3.4578    0.8838    3.4688 C   0  0  0  0  0  0  0  0  0  0  0  0
    2.2399    0.3921    3.8013 N   0  0  0  0  0  0  0  0  0  0  0  0
    1.7490   -0.1904    3.0687 H   0  0  0  0  0  0  0  0  0  0  0  0
    1.6448    0.7350    4.9774 C   0  0  0  0  0  0  0  0  0  0  0  0
    2.2874    1.6029    5.8556 C   0  0  0  0  0  0  0  0  0  0  0  0
    3.5282    2.1493    5.5167 C   0  0  0  0  0  0  0  0  0  0  0  0
    3.4237    4.4775   -3.2176 O   0  0  0  0  0  0  0  0  0  0  0  0
    2.5831    5.5291   -3.6878 C   0  0  0  0  0  0  0  0  0  0  0  0
    1.2808   -1.8814   -1.3928 H   0  0  0  0  0  0  0  0  0  0  0  0
    3.5671   -1.8576    0.5496 H   0  0  0  0  0  0  0  0  0  0  0  0
    3.4411   -2.9204   -0.8748 H   0  0  0  0  0  0  0  0  0  0  0  0
    1.4767   -2.8857    1.5423 H   0  0  0  0  0  0  0  0  0  0  0  0
    1.4564   -4.6593   -1.0580 H   0  0  0  0  0  0  0  0  0  0  0  0
    0.3533   -4.8503    0.3265 H   0  0  0  0  0  0  0  0  0  0  0  0
    2.3872   -5.2579    1.8806 H   0  0  0  0  0  0  0  0  0  0  0  0
    3.4836   -5.0663    0.4936 H   0  0  0  0  0  0  0  0  0  0  0  0
    0.0398    2.2186   -1.1121 H   0  0  0  0  0  0  0  0  0  0  0  0
    0.7935    4.1268   -2.4654 H   0  0  0  0  0  0  0  0  0  0  0  0
    4.1155    0.7030   -0.9657 H   0  0  0  0  0  0  0  0  0  0  0  0
    5.3286    2.9568   -3.4220 H   0  0  0  0  0  0  0  0  0  0  0  0
    8.7782    4.1245   -0.2193 H   0  0  0  0  0  0  0  0  0  0  0  0
    4.6643    2.5019    1.8009 H   0  0  0  0  0  0  0  0  0  0  0  0
    6.3844    2.3551    5.7561 H   0  0  0  0  0  0  0  0  0  0  0  0
    8.5114    3.2445    4.8515 H   0  0  0  0  0  0  0  0  0  0  0  0
    8.7641    3.6665    2.4184 H   0  0  0  0  0  0  0  0  0  0  0  0
    3.8880    0.5454    2.5009 H   0  0  0  0  0  0  0  0  0  0  0  0
    0.6547    0.3073    5.1940 H   0  0  0  0  0  0  0  0  0  0  0  0
    1.8085    1.8676    6.8057 H   0  0  0  0  0  0  0  0  0  0  0  0
    4.0218    2.8621    6.1890 H   0  0  0  0  0  0  0  0  0  0  0  0
    1.8241    5.1455   -4.3768 H   0  0  0  0  0  0  0  0  0  0  0  0
    3.3081    6.1656   -4.2226 H   0  0  0  0  0  0  0  0  0  0  0  0
    2.1365    6.0767   -2.8520 H   0  0  0  0  0  0  0  0  0  0  0  0
  1  2  2  0  0  0  0
  2  3  2  0  0  0  0
  4  5  1  0  0  0  0
  4  2  1  0  0  0  0
  5 37  1  0  0  0  0
  5  6  1  0  0  0  0
  6  8  1  0  0  0  0
  6 39  1  0  0  0  0
  7 41  1  0  0  0  0
  7  6  1  0  0  0  0
  7  8  1  0  0  0  0
  8 42  1  0  0  0  0
  9  2  1  0  0  0  0
 10 44  1  0  0  0  0
 10  9  2  0  0  0  0
 11 10  1  0  0  0  0
 12 11  2  0  0  0  0
 12 13  1  0  0  0  0
 13 14  2  0  0  0  0
 14 46  1  0  0  0  0
 14  9  1  0  0  0  0
 15 13  1  0  0  0  0
 15 16  1  0  0  0  0
 16 17  1  0  0  0  0
 17 18  1  0  0  0  0
 18 21  1  6  0  0  0
 19 48  1  0  0  0  0
 19 18  1  0  0  0  0
 20 16  2  0  0  0  0
 20 19  2  0  0  0  0
 21 22  2  0  0  0  0
 21 26  1  0  0  0  0
 22 23  1  0  0  0  0
 23 27  1  0  0  0  0
 23 24  2  0  0  0  0
 24 50  1  0  0  0  0
 25 24  1  0  0  0  0
 25 51  1  0  0  0  0
 26 25  2  0  0  0  0
 27 33  1  0  0  0  0
 28 29  1  0  0  0  0
 28 27  2  0  0  0  0
 29 31  1  0  0  0  0
 30 29  1  0  0  0  0
 31 54  1  0  0  0  0
 31 32  2  0  0  0  0
 32 55  1  0  0  0  0
 33 32  1  0  0  0  0
 33 56  1  0  0  0  0
 34 12  1  0  0  0  0
 35 34  1  0  0  0  0
 35 59  1  0  0  0  0
 36  4  1  0  0  0  0
 38  5  1  0  0  0  0
 40  7  1  0  0  0  0
 43  8  1  0  0  0  0
 45 11  1  0  0  0  0
 47 15  1  0  0  0  0
 49 22  1  0  0  0  0
 52 26  1  0  0  0  0
 53 28  1  0  0  0  0
 57 35  1  0  0  0  0
 58 35  1  0  0  0  0
M  RAD  1  18   2
M  END
$$$$
