59
rmsd61.gzmat
O          0.00000        0.00000        0.00000
S          1.47380        0.00000        0.00000
O          2.00420        0.00000        1.35560
N          1.97370       -1.42640       -0.82820
C          1.05540       -2.57990       -0.80740
C          1.15910       -3.39340        0.46990
C          0.48140       -4.74610        0.52490
C          1.98490       -4.66320        0.47910
C          2.13070        1.33960       -0.86360
C          1.58090        1.78780       -2.06280
C          2.08550        2.92870       -2.68350
C          3.12780        3.63480       -2.08590
C          3.70040        3.18300       -0.86160
C          3.21030        2.01820       -0.28240
N          4.78950        3.87920       -0.27880
C          4.71590        4.21120        1.05510
O          3.76370        3.55250        1.82420
C          3.97920        4.02020        3.13210
C          5.02240        4.91590        3.09420
N          5.47950        5.03280        1.77430
C          3.07470        3.47430        4.10420
C          2.35080        2.31740        3.79870
C          1.40100        1.82910        4.69950
C          1.21730        2.45410        5.93490
C          1.96780        3.58480        6.25110
C          2.88300        4.10560        5.33970
C          0.59430        0.67760        4.29670
C          0.05360        0.68220        2.99830
N         -0.64290       -0.38160        2.52600
H         -0.89920       -0.39100        1.49540
C         -0.86280       -1.47310        3.31470
C         -0.37820       -1.50490        4.61740
C          0.36930       -0.43140        5.11130
O          3.69150        4.76480       -2.54900
C          3.16800        5.33840       -3.74540
H          2.94260       -1.71540       -0.67090
H          1.30230       -3.20730       -1.70140
H          0.00270       -2.24050       -0.96860
H          1.16240       -2.78220        1.37750
H         -0.06540       -5.11550       -0.34030
H         -0.01460       -5.06860        1.43630
H          2.56990       -4.91850        1.35990
H          2.51610       -4.97610       -0.41740
H          0.74200        1.26020       -2.53370
H          1.65250        3.26530       -3.62370
H          3.68190        1.64600        0.64300
H          5.30450        4.53320       -0.87900
H          5.49430        5.48810        3.87670
H          2.54140        1.78330        2.86050
H          0.48500        2.07160        6.64410
H          1.82870        4.07290        7.21810
H          3.44580        5.00850        5.58420
H          0.18720        1.54800        2.32520
H         -1.42710       -2.30910        2.87850
H         -0.56880       -2.38030        5.24750
H          0.78830       -0.46660        6.12350
H          3.31860        4.66990       -4.59880
H          3.79130        6.24260       -3.84680
H          2.11490        5.61050       -3.62120
