59
rmsd36.gzmat
O          0.00000        0.00000        0.00000
S          1.47710        0.00000        0.00000
O          2.01730        0.00000        1.34660
N          1.93400       -1.39700       -0.89200
C          3.33270       -1.85880       -0.79890
C          3.65020       -2.56260        0.50460
C          3.39370       -4.04950        0.63370
C          4.80750       -3.53720        0.53430
C          2.12640        1.34870       -0.86480
C          1.68340        1.68460       -2.14220
C          2.22110        2.78530       -2.80620
C          3.19230        3.56080       -2.17740
C          3.65140        3.22850       -0.87010
C          3.11760        2.11260       -0.23490
N          4.69680        3.97960       -0.27840
C          4.56770        4.40830        1.02050
O          3.49540        3.91830        1.75490
C          3.67500        4.45160        3.04480
C          4.81530        5.22110        3.02740
N          5.37080        5.19130        1.74180
C          2.66380        4.05910        3.98420
C          1.54530        3.35830        3.52300
C          0.56420        2.92700        4.42050
C          0.68310        3.21480        5.78050
C          1.78970        3.93140        6.23480
C          2.77970        4.35040        5.34950
C         -0.56270        2.17660        3.86710
C         -0.27500        1.17400        2.92740
N         -1.26300        0.57550        2.21910
H         -0.98860       -0.03780        1.38250
C         -2.56910        0.87530        2.46550
C         -2.90470        1.79460        3.45660
C         -1.89770        2.46670        4.15350
O          3.78290        4.66060       -2.68060
C          3.45850        5.05050       -4.01310
H          1.26980       -2.17210       -0.86680
H          4.02930       -0.99970       -0.95100
H          3.50630       -2.53680       -1.67300
H          3.48890       -1.93020        1.39100
H          2.96400       -4.60630       -0.19390
H          3.03030       -4.45080        1.57670
H          5.45850       -3.56860        1.40620
H          5.38960       -3.72420       -0.36460
H          0.90950        1.09360       -2.64690
H          1.87290        3.03320       -3.80700
H          3.49390        1.83980        0.76630
H          5.25900        4.57240       -0.89930
H          5.29460        5.79520        3.80450
H          1.44000        3.15690        2.45600
H         -0.07330        2.87410        6.48600
H          1.88250        4.16230        7.29840
H          3.64590        4.90280        5.71790
H          0.77900        0.84900        2.74220
H         -3.33090        0.36870        1.85390
H         -3.95900        2.00550        3.66840
H         -2.15030        3.22740        4.90170
H          3.78350        4.28830       -4.72890
H          4.05710        5.97030       -4.12510
H          2.39160        5.27470       -4.10990
