59
rmsd19.gzmat
O          0.00000        0.00000        0.00000
S          1.47870        0.00000        0.00000
O          2.13520        0.00000        1.27800
N          1.84510       -1.43890       -0.87870
C          3.19640       -2.02230       -0.74590
C          4.17980       -1.23490       -1.59120
C          5.12960       -0.25430       -0.93490
C          5.65210       -1.56330       -1.46960
C          2.05730        1.32490       -0.96080
C          2.59650        2.43880       -0.31230
C          3.10970        3.50640       -1.04120
C          3.08960        3.45250       -2.43490
C          2.56010        2.31790       -3.10330
C          2.03530        1.26640       -2.35720
N          2.62310        2.21390       -4.52520
C          1.43860        2.36430       -5.21180
O          0.26730        2.14350       -4.49910
C         -0.75510        2.27180       -5.45730
C         -0.17000        2.54860       -6.67050
N          1.21900        2.60820       -6.50410
C         -2.07320        2.10330       -4.91590
C         -2.22920        1.34390       -3.75280
C         -3.48220        1.23860       -3.14160
C         -4.59040        1.86180       -3.72310
C         -4.44020        2.58120       -4.90760
C         -3.18900        2.71130       -5.50480
C         -3.59210        0.48110       -1.89690
C         -2.49200        0.46860       -1.02250
N         -2.50110       -0.28470        0.10400
H         -1.59230       -0.33580        0.64750
C         -3.59600       -1.01640        0.44840
C         -4.72610       -1.00110       -0.36450
C         -4.72330       -0.26210       -1.54930
O          3.54020        4.39990       -3.27710
C          4.11930        5.57560       -2.71370
H          1.10720       -2.13530       -0.91100
H          3.16330       -3.07650       -1.11480
H          3.53070       -2.07600        0.31830
H          3.78240       -0.99180       -2.58500
H          5.09080       -0.09070        0.14000
H          5.37840        0.67360       -1.44190
H          6.27310       -1.57510       -2.36280
H          5.98600       -2.33380       -0.77960
H          2.63590        2.48710        0.78610
H          3.52210        4.36880       -0.52050
H          1.62890        0.39700       -2.89300
H          3.44490        2.64530       -4.97000
H         -0.60180        2.70790       -7.64560
H         -1.36100        0.82880       -3.33850
H         -5.57020        1.79900       -3.25170
H         -5.31070        3.05710       -5.36470
H         -3.07420        3.29360       -6.42120
H         -1.57200        1.06120       -1.21760
H         -3.54820       -1.60490        1.37660
H         -5.61110       -1.58120       -0.07680
H         -5.60040       -0.27420       -2.20780
H          3.39130        6.11570       -2.09990
H          4.36610        6.15630       -3.61840
H          5.02670        5.33110       -2.15160
