76
rmsd15.gzmat
C          0.00000        0.00000        0.00000
C          1.33330        0.00000        0.00000
C          2.10210        0.00000        1.28710
H          2.23500        1.03580        1.68920
C          1.40340       -0.92530        2.29460
C         -0.03790       -0.49890        2.52800
H         -0.14030        0.18310        3.39770
C         -0.80910        0.05310        1.26590
C         -1.27140        1.51230        1.46860
C         -2.75660        1.73650        1.15790
N         -3.11610        1.38540       -0.23240
C         -3.27920        0.13890       -0.61350
C         -3.02420       -0.96690        0.28620
C         -3.86990       -2.08820        0.31040
C         -3.69540       -3.08940        1.25560
C         -2.65500       -3.01630        2.20140
C         -1.78470       -1.91820        2.13300
C         -1.95120       -0.92380        1.17680
O         -0.72200       -1.71190        2.96270
O         -2.61870       -4.02520        3.08350
C         -1.53640       -4.03000        4.01680
C         -3.37230        2.51650       -1.14980
C         -4.71910        3.17050       -0.80870
C         -5.11720        4.20760       -1.86310
C         -5.39730        3.62220       -3.25390
C         -6.33670        2.40990       -3.25680
C         -7.67420        2.70100       -2.56540
C         -8.69610        1.58220       -2.78780
C         -8.22790        0.20280       -2.29710
N         -8.01050        0.16480       -0.85110
C         -9.06850        0.29750        0.11590
O        -10.21620        0.43760       -0.18110
C         -8.39730        0.20570        1.44720
C         -8.92910        0.23710        2.71320
C         -8.03850        0.09020        3.79640
C         -6.67790       -0.08760        3.58960
C         -6.13850       -0.11940        2.28840
C         -7.00750        0.03830        1.23680
C         -6.76200        0.04700       -0.23580
O         -5.70580       -0.02640       -0.82490
O          3.43100       -0.40520        1.08850
H         -0.57870       -0.02830       -0.91920
H          1.93390       -0.00950       -0.91010
H          1.96910       -0.94410        3.24880
H          1.43090       -1.97420        1.92690
H         -1.08830        1.83600        2.51660
H         -0.64290        2.19340        0.85520
H         -3.38790        1.13330        1.86010
H         -3.02290        2.80510        1.34710
H         -3.62470       -0.08600       -1.64580
H         -4.68980       -2.16120       -0.41420
H         -4.36480       -3.95410        1.28020
H         -1.74630       -4.93990        4.59960
H         -1.56550       -3.14160        4.65670
H         -0.57570       -4.11360        3.49710
H         -3.37850        2.15800       -2.20710
H         -2.53640        3.25010       -1.06870
H         -4.68250        3.65360        0.18670
H         -5.51020        2.39300       -0.73630
H         -4.33490        4.98840       -1.94550
H         -6.02490        4.74220       -1.50770
H         -4.44640        3.34770       -3.74910
H         -5.83270        4.42140       -3.89180
H         -5.84380        1.54510       -2.77220
H         -6.52010        2.09910       -4.30550
H         -8.09200        3.65650       -2.94310
H         -7.51880        2.85540       -1.48180
H         -8.94390        1.50620       -3.86660
H         -9.65090        1.84980       -2.28480
H         -7.28470       -0.09950       -2.80960
H         -9.00170       -0.56500       -2.55160
H        -10.00170        0.36550        2.88190
H         -8.43660        0.11090        4.81430
H         -6.00880       -0.21350        4.44280
H         -5.07450       -0.28470        2.12990
H          3.48550       -1.32240        0.74470
