76
rmsd208.gzmat
C          0.00000        0.00000        0.00000
C          1.33320        0.00000        0.00000
C          2.10180        0.00000        1.28680
H          2.22900        1.03620        1.69010
C          1.41640       -0.93070        2.29850
C         -0.04080       -0.55290        2.51490
H         -0.18210        0.08210        3.41510
C         -0.80500        0.04280        1.26920
C         -1.23440        1.50620        1.50780
C         -2.72230        1.76500        1.24110
N         -3.12180        1.46250       -0.14780
C         -3.31970        0.23190       -0.55690
C         -3.05070       -0.91240        0.28840
C         -3.90540       -2.02620        0.27540
C         -3.71240       -3.08090        1.15650
C         -2.64840       -3.06330        2.07890
C         -1.77920       -1.96340        2.05530
C         -1.95980       -0.91750        1.15630
O         -0.70070       -1.80540        2.87340
O         -2.58790       -4.12730        2.89300
C         -1.50090       -4.17120        3.81980
C         -3.38710        2.59970       -1.05330
C         -2.37860        2.63730       -2.20930
C         -2.79510        3.68490       -3.25130
C         -4.13970        3.35960       -3.92080
C         -5.27870        4.23600       -3.37970
C         -6.65910        3.63730       -3.68070
C         -7.03910        2.48960       -2.73940
C         -7.36310        3.02150       -1.33310
N         -7.68770        1.93660       -0.40880
C         -6.82170        0.89690       -0.04810
O         -5.68570        0.78490       -0.45090
C         -7.56810        0.02910        0.90810
C         -7.17870       -1.10220        1.58190
C         -8.12000       -1.70560        2.44060
C         -9.39120       -1.17410        2.59820
C         -9.78710       -0.01100        1.90540
C         -8.86700        0.57230        1.06950
C         -8.97570        1.79570        0.22360
O         -9.87190        2.56490        0.04970
O          3.43300       -0.39720        1.08540
H         -0.58140       -0.02080       -0.91760
H          1.93410       -0.00510       -0.90950
H          1.97310       -0.91810        3.25880
H          1.48330       -1.98360        1.94690
H         -1.01610        1.80940        2.55580
H         -0.61070        2.18670        0.88820
H         -3.34990        1.14820        1.93790
H         -2.96880        2.82910        1.47420
H         -3.72220        0.05000       -1.57580
H         -4.74200       -2.05300       -0.43010
H         -4.37820       -3.94770        1.14460
H         -1.68110       -5.12780        4.33340
H         -1.55410       -3.33380        4.52360
H         -0.53950       -4.18620        3.29490
H         -3.36200        3.55650       -0.48570
H         -4.43680        2.50060       -1.44800
H         -2.29420        1.64700       -2.69780
H         -1.36430        2.87230       -1.82820
H         -2.00220        3.74840       -4.02630
H         -2.82160        4.69290       -2.79430
H         -4.38430        2.28850       -3.80340
H         -4.05740        3.50830       -5.01690
H         -5.21000        5.24580       -3.83500
H         -5.16470        4.40360       -2.29460
H         -6.68880        3.27880       -4.72980
H         -7.42930        4.43420       -3.63020
H         -6.22940        1.73820       -2.69300
H         -7.91900        1.94890       -3.14430
H         -8.23680        3.72080       -1.37840
H         -6.50580        3.60050       -0.92110
H         -6.18090       -1.52480        1.46660
H         -7.83290       -2.60630        2.98760
H        -10.10600       -1.65820        3.26910
H        -10.78960        0.40500        2.03460
H          3.49180       -1.31000        0.73180
