76
rmsd229.gzmat
C          0.00000        0.00000        0.00000
C          1.33330        0.00000        0.00000
C          2.10210        0.00000        1.28710
H          2.23300        1.03540        1.69080
C          1.40460       -0.92830        2.29230
C         -0.03750       -0.50440        2.52510
H         -0.14000        0.17610        3.39650
C         -0.80950        0.05060        1.26520
C         -1.27020        1.50860        1.47890
C         -2.72250        1.76560        1.05420
N         -3.00410        1.36800       -0.33990
C         -3.23530        0.11750       -0.65420
C         -3.03420       -0.96030        0.29390
C         -3.90900       -2.05640        0.35050
C         -3.73310       -3.05970        1.29350
C         -2.66860       -3.00700        2.21380
C         -1.79090       -1.91660        2.13630
C         -1.95650       -0.92170        1.17900
O         -0.72100       -1.71880        2.95780
O         -2.61550       -4.03020        3.07930
C         -1.51150       -4.05030        3.98700
C         -3.16920        2.43890       -1.34250
C         -2.00160        3.43030       -1.33090
C         -2.13330        4.44320       -2.47920
C         -3.54630        5.00400       -2.68250
C         -4.12570        5.66230       -1.42410
C         -5.64210        5.86970       -1.54020
C         -6.45030        4.56900       -1.48710
C         -6.48580        3.98390       -0.06430
N         -7.23800        2.73180       -0.03040
C         -8.66310        2.68700        0.18430
O         -9.31390        3.66010        0.41780
C         -9.03500        1.24920        0.05840
C        -10.25650        0.63600        0.19170
C        -10.30340       -0.76310        0.02120
C         -9.15810       -1.48990       -0.26830
C         -7.90710       -0.85480       -0.40790
C         -7.86600        0.50780       -0.24260
C         -6.72160        1.46090       -0.32170
O         -5.55800        1.23660       -0.56650
O          3.43180       -0.40230        1.08850
H         -0.57690       -0.02840       -0.91990
H          1.93320       -0.01130       -0.91000
H          1.97000       -0.94680        3.24710
H          1.43530       -1.97650        1.92380
H         -1.17580        1.79210        2.55060
H         -0.58370        2.19810        0.94280
H         -3.42250        1.20560        1.73150
H         -2.97550        2.84470        1.18840
H         -3.58710       -0.14140       -1.67240
H         -4.74690       -2.11430       -0.34790
H         -4.41750       -3.91080        1.33660
H         -1.69490       -4.98120        4.54480
H         -1.54010       -3.18270        4.65510
H         -0.56120       -4.10230        3.44510
H         -4.14070        2.96430       -1.12750
H         -3.29040        1.99720       -2.35950
H         -1.03460        2.89550       -1.42400
H         -1.95430        3.97430       -0.36740
H         -1.79220        3.97760       -3.42670
H         -1.42830        5.28140       -2.29650
H         -4.22180        4.20920       -3.05090
H         -3.52160        5.75090       -3.50470
H         -3.63170        6.64230       -1.26190
H         -3.89310        5.07280       -0.52150
H         -5.86830        6.39930       -2.48940
H         -5.98390        6.55640       -0.73960
H         -6.04780        3.82620       -2.19930
H         -7.48920        4.76710       -1.82790
H         -6.97530        4.70810        0.63520
H         -5.45930        3.80160        0.32100
H        -11.16130        1.20450        0.42170
H        -11.26410       -1.27530        0.12170
H         -9.21720       -2.57330       -0.39300
H         -7.01280       -1.43020       -0.63940
H          3.48870       -1.31780        0.74150
