rmsd209.gzmat
 OpenBabel08211713363D

 76 81  0  0  1  0  0  0  0  0999 V2000
    0.0000    0.0000    0.0000 C   0  0  0  0  0  0  0  0  0  0  0  0
    1.3331    0.0000    0.0000 C   0  0  0  0  0  0  0  0  0  0  0  0
    2.1010    0.0000    1.2872 C   0  0  1  0  0  0  0  0  0  0  0  0
    2.2319    1.0366    1.6885 H   0  0  0  0  0  0  0  0  0  0  0  0
    1.4066   -0.9264    2.2965 C   0  0  0  0  0  0  0  0  0  0  0  0
   -0.0406   -0.5178    2.5244 C   0  0  1  0  0  0  0  0  0  0  0  0
   -0.1561    0.1525    3.4019 H   0  0  0  0  0  0  0  0  0  0  0  0
   -0.8110    0.0402    1.2655 C   0  0  1  0  0  0  0  0  0  0  0  0
   -1.2850    1.4933    1.4821 C   0  0  0  0  0  0  0  0  0  0  0  0
   -2.7662    1.7155    1.1482 C   0  0  0  0  0  0  0  0  0  0  0  0
   -3.1012    1.3654   -0.2463 N   0  0  0  0  0  0  0  0  0  0  0  0
   -3.2552    0.1211   -0.6308 C   0  0  0  0  0  0  0  0  0  0  0  0
   -3.0078   -0.9937    0.2619 C   0  0  0  0  0  0  0  0  0  0  0  0
   -3.8362   -2.1266    0.2621 C   0  0  0  0  0  0  0  0  0  0  0  0
   -3.6488   -3.1435    1.1888 C   0  0  0  0  0  0  0  0  0  0  0  0
   -2.6181   -3.0679    2.1457 C   0  0  0  0  0  0  0  0  0  0  0  0
   -1.7670   -1.9545    2.1038 C   0  0  0  0  0  0  0  0  0  0  0  0
   -1.9428   -0.9476    1.1608 C   0  0  0  0  0  0  0  0  0  0  0  0
   -0.7133   -1.7441    2.9424 O   0  0  0  0  0  0  0  0  0  0  0  0
   -2.5696   -4.0944    3.0075 O   0  0  0  0  0  0  0  0  0  0  0  0
   -1.5130   -4.0826    3.9695 C   0  0  0  0  0  0  0  0  0  0  0  0
   -3.2917    2.4728   -1.2048 C   0  0  0  0  0  0  0  0  0  0  0  0
   -2.0434    2.6431   -2.0823 C   0  0  0  0  0  0  0  0  0  0  0  0
   -2.3491    3.5432   -3.2864 C   0  0  0  0  0  0  0  0  0  0  0  0
   -3.3743    2.9200   -4.2470 C   0  0  0  0  0  0  0  0  0  0  0  0
   -4.7412    3.6143   -4.1589 C   0  0  0  0  0  0  0  0  0  0  0  0
   -5.8528    2.7645   -4.7892 C   0  0  0  0  0  0  0  0  0  0  0  0
   -6.3427    1.6430   -3.8672 C   0  0  0  0  0  0  0  0  0  0  0  0
   -7.2333    2.2063   -2.7452 C   0  0  0  0  0  0  0  0  0  0  0  0
   -7.6511    1.1517   -1.8240 N   0  0  0  0  0  0  0  0  0  0  0  0
   -8.9978    0.6449   -1.7445 C   0  0  0  0  0  0  0  0  0  0  0  0
   -9.8910    1.0624   -2.4172 O   0  0  0  0  0  0  0  0  0  0  0  0
   -8.9565   -0.4152   -0.6957 C   0  0  0  0  0  0  0  0  0  0  0  0
   -9.9607   -1.2115   -0.2022 C   0  0  0  0  0  0  0  0  0  0  0  0
   -9.6226   -2.1300    0.8133 C   0  0  0  0  0  0  0  0  0  0  0  0
   -8.3257   -2.2214    1.2966 C   0  0  0  0  0  0  0  0  0  0  0  0
   -7.2992   -1.3994    0.7887 C   0  0  0  0  0  0  0  0  0  0  0  0
   -7.6309   -0.5111   -0.2046 C   0  0  0  0  0  0  0  0  0  0  0  0
   -6.7968    0.4810   -0.9415 C   0  0  0  0  0  0  0  0  0  0  0  0
   -5.6105    0.7020   -0.8432 O   0  0  0  0  0  0  0  0  0  0  0  0
    3.4305   -0.4039    1.0881 O   0  0  0  0  0  0  0  0  0  0  0  0
   -0.5777   -0.0228   -0.9200 H   0  0  0  0  0  0  0  0  0  0  0  0
    1.9334   -0.0076   -0.9101 H   0  0  0  0  0  0  0  0  0  0  0  0
    1.9693   -0.9333    3.2530 H   0  0  0  0  0  0  0  0  0  0  0  0
    1.4483   -1.9768    1.9349 H   0  0  0  0  0  0  0  0  0  0  0  0
   -1.1226    1.8035    2.5380 H   0  0  0  0  0  0  0  0  0  0  0  0
   -0.6506    2.1865    0.8885 H   0  0  0  0  0  0  0  0  0  0  0  0
   -3.4115    1.1083    1.8368 H   0  0  0  0  0  0  0  0  0  0  0  0
   -3.0402    2.7816    1.3374 H   0  0  0  0  0  0  0  0  0  0  0  0
   -3.5884   -0.0978   -1.6666 H   0  0  0  0  0  0  0  0  0  0  0  0
   -4.6457   -2.2033   -0.4699 H   0  0  0  0  0  0  0  0  0  0  0  0
   -4.2948   -4.0253    1.1883 H   0  0  0  0  0  0  0  0  0  0  0  0
   -1.7101   -5.0077    4.5325 H   0  0  0  0  0  0  0  0  0  0  0  0
   -1.5868   -3.2067    4.6226 H   0  0  0  0  0  0  0  0  0  0  0  0
   -0.5368   -4.1279    3.4755 H   0  0  0  0  0  0  0  0  0  0  0  0
   -3.5264    3.4156   -0.6614 H   0  0  0  0  0  0  0  0  0  0  0  0
   -4.1981    2.2595   -1.8349 H   0  0  0  0  0  0  0  0  0  0  0  0
   -1.6729    1.6624   -2.4397 H   0  0  0  0  0  0  0  0  0  0  0  0
   -1.2125    3.0775   -1.4911 H   0  0  0  0  0  0  0  0  0  0  0  0
   -1.4028    3.7401   -3.8333 H   0  0  0  0  0  0  0  0  0  0  0  0
   -2.6877    4.5402   -2.9450 H   0  0  0  0  0  0  0  0  0  0  0  0
   -3.4790    1.8365   -4.0575 H   0  0  0  0  0  0  0  0  0  0  0  0
   -2.9996    2.9862   -5.2890 H   0  0  0  0  0  0  0  0  0  0  0  0
   -4.6868    4.5940   -4.6767 H   0  0  0  0  0  0  0  0  0  0  0  0
   -4.9933    3.8561   -3.1111 H   0  0  0  0  0  0  0  0  0  0  0  0
   -5.4937    2.3286   -5.7438 H   0  0  0  0  0  0  0  0  0  0  0  0
   -6.7039    3.4149   -5.0768 H   0  0  0  0  0  0  0  0  0  0  0  0
   -5.4873    1.0923   -3.4361 H   0  0  0  0  0  0  0  0  0  0  0  0
   -6.9133    0.8960   -4.4554 H   0  0  0  0  0  0  0  0  0  0  0  0
   -8.1477    2.6853   -3.1773 H   0  0  0  0  0  0  0  0  0  0  0  0
   -6.6928    2.9933   -2.1712 H   0  0  0  0  0  0  0  0  0  0  0  0
  -10.9848   -1.1415   -0.5780 H   0  0  0  0  0  0  0  0  0  0  0  0
  -10.4043   -2.7763    1.2216 H   0  0  0  0  0  0  0  0  0  0  0  0
   -8.0857   -2.9379    2.0852 H   0  0  0  0  0  0  0  0  0  0  0  0
   -6.2850   -1.4702    1.1806 H   0  0  0  0  0  0  0  0  0  0  0  0
    3.4857   -1.3191    0.7399 H   0  0  0  0  0  0  0  0  0  0  0  0
  1  2  2  0  0  0  0
  2  3  1  0  0  0  0
  3  4  1  1  0  0  0
  3  5  1  0  0  0  0
  5  6  1  0  0  0  0
  5 44  1  0  0  0  0
  6  8  1  0  0  0  0
  6 19  1  0  0  0  0
  6  7  1  1  0  0  0
  8  1  1  6  0  0  0
  8  9  1  0  0  0  0
  9 46  1  0  0  0  0
 10 49  1  0  0  0  0
 10  9  1  0  0  0  0
 10 48  1  0  0  0  0
 11 10  1  0  0  0  0
 12 11  1  0  0  0  0
 12 13  1  0  0  0  0
 13 14  2  0  0  0  0
 13 18  1  0  0  0  0
 14 15  1  0  0  0  0
 15 16  2  0  0  0  0
 16 20  1  0  0  0  0
 17 16  1  0  0  0  0
 17 19  1  0  0  0  0
 18  8  1  0  0  0  0
 18 17  2  0  0  0  0
 20 21  1  0  0  0  0
 21 53  1  0  0  0  0
 21 54  1  0  0  0  0
 22 56  1  0  0  0  0
 22 11  1  0  0  0  0
 23 59  1  0  0  0  0
 23 22  1  0  0  0  0
 24 61  1  0  0  0  0
 24 23  1  0  0  0  0
 25 26  1  0  0  0  0
 25 62  1  0  0  0  0
 25 24  1  0  0  0  0
 26 65  1  0  0  0  0
 27 26  1  0  0  0  0
 27 28  1  0  0  0  0
 28 68  1  0  0  0  0
 28 29  1  0  0  0  0
 29 71  1  0  0  0  0
 29 30  1  0  0  0  0
 30 31  1  0  0  0  0
 30 39  1  0  0  0  0
 31 33  1  0  0  0  0
 32 31  2  0  0  0  0
 33 38  2  0  0  0  0
 33 34  1  0  0  0  0
 34 35  2  0  0  0  0
 35 73  1  0  0  0  0
 35 36  1  0  0  0  0
 36 74  1  0  0  0  0
 37 75  1  0  0  0  0
 37 36  2  0  0  0  0
 38 37  1  0  0  0  0
 39 40  2  0  0  0  0
 39 38  1  0  0  0  0
 41  3  1  0  0  0  0
 42  1  1  0  0  0  0
 43  2  1  0  0  0  0
 45  5  1  0  0  0  0
 47  9  1  0  0  0  0
 50 12  1  0  0  0  0
 51 14  1  0  0  0  0
 52 15  1  0  0  0  0
 55 21  1  0  0  0  0
 57 22  1  0  0  0  0
 58 23  1  0  0  0  0
 60 24  1  0  0  0  0
 63 25  1  0  0  0  0
 64 26  1  0  0  0  0
 66 27  1  0  0  0  0
 67 27  1  0  0  0  0
 69 28  1  0  0  0  0
 70 29  1  0  0  0  0
 72 34  1  0  0  0  0
 76 41  1  0  0  0  0
M  RAD  1  12   2
M  END
$$$$
