rmsd15.gzmat
 OpenBabel08211713363D

 76 81  0  0  1  0  0  0  0  0999 V2000
    0.0000    0.0000    0.0000 C   0  0  0  0  0  0  0  0  0  0  0  0
    1.3333    0.0000    0.0000 C   0  0  0  0  0  0  0  0  0  0  0  0
    2.1021    0.0000    1.2871 C   0  0  1  0  0  0  0  0  0  0  0  0
    2.2350    1.0358    1.6892 H   0  0  0  0  0  0  0  0  0  0  0  0
    1.4034   -0.9253    2.2946 C   0  0  0  0  0  0  0  0  0  0  0  0
   -0.0379   -0.4989    2.5280 C   0  0  1  0  0  0  0  0  0  0  0  0
   -0.1403    0.1831    3.3977 H   0  0  0  0  0  0  0  0  0  0  0  0
   -0.8091    0.0531    1.2659 C   0  0  1  0  0  0  0  0  0  0  0  0
   -1.2714    1.5123    1.4686 C   0  0  0  0  0  0  0  0  0  0  0  0
   -2.7566    1.7365    1.1579 C   0  0  0  0  0  0  0  0  0  0  0  0
   -3.1161    1.3854   -0.2324 N   0  0  0  0  0  0  0  0  0  0  0  0
   -3.2792    0.1389   -0.6135 C   0  0  0  0  0  0  0  0  0  0  0  0
   -3.0242   -0.9669    0.2862 C   0  0  0  0  0  0  0  0  0  0  0  0
   -3.8699   -2.0882    0.3104 C   0  0  0  0  0  0  0  0  0  0  0  0
   -3.6954   -3.0894    1.2556 C   0  0  0  0  0  0  0  0  0  0  0  0
   -2.6550   -3.0163    2.2014 C   0  0  0  0  0  0  0  0  0  0  0  0
   -1.7847   -1.9182    2.1330 C   0  0  0  0  0  0  0  0  0  0  0  0
   -1.9512   -0.9238    1.1768 C   0  0  0  0  0  0  0  0  0  0  0  0
   -0.7220   -1.7119    2.9627 O   0  0  0  0  0  0  0  0  0  0  0  0
   -2.6187   -4.0252    3.0835 O   0  0  0  0  0  0  0  0  0  0  0  0
   -1.5364   -4.0300    4.0168 C   0  0  0  0  0  0  0  0  0  0  0  0
   -3.3723    2.5165   -1.1498 C   0  0  0  0  0  0  0  0  0  0  0  0
   -4.7191    3.1705   -0.8087 C   0  0  0  0  0  0  0  0  0  0  0  0
   -5.1172    4.2076   -1.8631 C   0  0  0  0  0  0  0  0  0  0  0  0
   -5.3973    3.6222   -3.2539 C   0  0  0  0  0  0  0  0  0  0  0  0
   -6.3367    2.4099   -3.2568 C   0  0  0  0  0  0  0  0  0  0  0  0
   -7.6742    2.7010   -2.5654 C   0  0  0  0  0  0  0  0  0  0  0  0
   -8.6961    1.5822   -2.7878 C   0  0  0  0  0  0  0  0  0  0  0  0
   -8.2279    0.2028   -2.2971 C   0  0  0  0  0  0  0  0  0  0  0  0
   -8.0105    0.1648   -0.8511 N   0  0  0  0  0  0  0  0  0  0  0  0
   -9.0685    0.2975    0.1159 C   0  0  0  0  0  0  0  0  0  0  0  0
  -10.2162    0.4376   -0.1811 O   0  0  0  0  0  0  0  0  0  0  0  0
   -8.3973    0.2057    1.4472 C   0  0  0  0  0  0  0  0  0  0  0  0
   -8.9291    0.2371    2.7132 C   0  0  0  0  0  0  0  0  0  0  0  0
   -8.0385    0.0902    3.7964 C   0  0  0  0  0  0  0  0  0  0  0  0
   -6.6779   -0.0876    3.5896 C   0  0  0  0  0  0  0  0  0  0  0  0
   -6.1385   -0.1194    2.2884 C   0  0  0  0  0  0  0  0  0  0  0  0
   -7.0075    0.0383    1.2368 C   0  0  0  0  0  0  0  0  0  0  0  0
   -6.7620    0.0470   -0.2358 C   0  0  0  0  0  0  0  0  0  0  0  0
   -5.7058   -0.0264   -0.8249 O   0  0  0  0  0  0  0  0  0  0  0  0
    3.4310   -0.4052    1.0885 O   0  0  0  0  0  0  0  0  0  0  0  0
   -0.5787   -0.0283   -0.9192 H   0  0  0  0  0  0  0  0  0  0  0  0
    1.9339   -0.0095   -0.9101 H   0  0  0  0  0  0  0  0  0  0  0  0
    1.9691   -0.9441    3.2488 H   0  0  0  0  0  0  0  0  0  0  0  0
    1.4309   -1.9742    1.9269 H   0  0  0  0  0  0  0  0  0  0  0  0
   -1.0883    1.8360    2.5166 H   0  0  0  0  0  0  0  0  0  0  0  0
   -0.6429    2.1934    0.8552 H   0  0  0  0  0  0  0  0  0  0  0  0
   -3.3879    1.1333    1.8601 H   0  0  0  0  0  0  0  0  0  0  0  0
   -3.0229    2.8051    1.3471 H   0  0  0  0  0  0  0  0  0  0  0  0
   -3.6247   -0.0860   -1.6458 H   0  0  0  0  0  0  0  0  0  0  0  0
   -4.6898   -2.1612   -0.4142 H   0  0  0  0  0  0  0  0  0  0  0  0
   -4.3648   -3.9541    1.2802 H   0  0  0  0  0  0  0  0  0  0  0  0
   -1.7463   -4.9399    4.5996 H   0  0  0  0  0  0  0  0  0  0  0  0
   -1.5655   -3.1416    4.6567 H   0  0  0  0  0  0  0  0  0  0  0  0
   -0.5757   -4.1136    3.4971 H   0  0  0  0  0  0  0  0  0  0  0  0
   -3.3785    2.1580   -2.2071 H   0  0  0  0  0  0  0  0  0  0  0  0
   -2.5364    3.2501   -1.0687 H   0  0  0  0  0  0  0  0  0  0  0  0
   -4.6825    3.6536    0.1867 H   0  0  0  0  0  0  0  0  0  0  0  0
   -5.5102    2.3930   -0.7363 H   0  0  0  0  0  0  0  0  0  0  0  0
   -4.3349    4.9884   -1.9455 H   0  0  0  0  0  0  0  0  0  0  0  0
   -6.0249    4.7422   -1.5077 H   0  0  0  0  0  0  0  0  0  0  0  0
   -4.4464    3.3477   -3.7491 H   0  0  0  0  0  0  0  0  0  0  0  0
   -5.8327    4.4214   -3.8918 H   0  0  0  0  0  0  0  0  0  0  0  0
   -5.8438    1.5451   -2.7722 H   0  0  0  0  0  0  0  0  0  0  0  0
   -6.5201    2.0991   -4.3055 H   0  0  0  0  0  0  0  0  0  0  0  0
   -8.0920    3.6565   -2.9431 H   0  0  0  0  0  0  0  0  0  0  0  0
   -7.5188    2.8554   -1.4818 H   0  0  0  0  0  0  0  0  0  0  0  0
   -8.9439    1.5062   -3.8666 H   0  0  0  0  0  0  0  0  0  0  0  0
   -9.6509    1.8498   -2.2848 H   0  0  0  0  0  0  0  0  0  0  0  0
   -7.2847   -0.0995   -2.8096 H   0  0  0  0  0  0  0  0  0  0  0  0
   -9.0017   -0.5650   -2.5516 H   0  0  0  0  0  0  0  0  0  0  0  0
  -10.0017    0.3655    2.8819 H   0  0  0  0  0  0  0  0  0  0  0  0
   -8.4366    0.1109    4.8143 H   0  0  0  0  0  0  0  0  0  0  0  0
   -6.0088   -0.2135    4.4428 H   0  0  0  0  0  0  0  0  0  0  0  0
   -5.0745   -0.2847    2.1299 H   0  0  0  0  0  0  0  0  0  0  0  0
    3.4855   -1.3224    0.7447 H   0  0  0  0  0  0  0  0  0  0  0  0
  1  2  2  0  0  0  0
  2  3  1  0  0  0  0
  3  4  1  1  0  0  0
  3  5  1  0  0  0  0
  5  6  1  0  0  0  0
  5 44  1  0  0  0  0
  6  8  1  0  0  0  0
  6 19  1  0  0  0  0
  6  7  1  1  0  0  0
  8  1  1  6  0  0  0
  8  9  1  0  0  0  0
  9 46  1  0  0  0  0
 10 49  1  0  0  0  0
 10  9  1  0  0  0  0
 10 48  1  0  0  0  0
 11 10  1  0  0  0  0
 12 11  1  0  0  0  0
 12 13  1  0  0  0  0
 13 14  2  0  0  0  0
 13 18  1  0  0  0  0
 14 15  1  0  0  0  0
 15 52  1  0  0  0  0
 15 16  2  0  0  0  0
 16 20  1  0  0  0  0
 17 16  1  0  0  0  0
 17 19  1  0  0  0  0
 18  8  1  0  0  0  0
 18 17  2  0  0  0  0
 20 21  1  0  0  0  0
 21 53  1  0  0  0  0
 21 54  1  0  0  0  0
 22 57  1  0  0  0  0
 22 23  1  0  0  0  0
 22 11  1  0  0  0  0
 23 59  1  0  0  0  0
 23 58  1  0  0  0  0
 24 61  1  0  0  0  0
 24 23  1  0  0  0  0
 25 24  1  0  0  0  0
 26 25  1  0  0  0  0
 26 64  1  0  0  0  0
 26 27  1  0  0  0  0
 27 67  1  0  0  0  0
 28 27  1  0  0  0  0
 28 29  1  0  0  0  0
 28 69  1  0  0  0  0
 29 30  1  0  0  0  0
 30 39  1  0  0  0  0
 30 31  1  0  0  0  0
 31 33  1  0  0  0  0
 32 31  2  0  0  0  0
 33 34  1  0  0  0  0
 34 72  1  0  0  0  0
 34 35  2  0  0  0  0
 35 73  1  0  0  0  0
 36 35  1  0  0  0  0
 36 74  1  0  0  0  0
 37 36  2  0  0  0  0
 38 33  2  0  0  0  0
 38 37  1  0  0  0  0
 39 38  1  0  0  0  0
 40 39  2  0  0  0  0
 41  3  1  0  0  0  0
 42  1  1  0  0  0  0
 43  2  1  0  0  0  0
 45  5  1  0  0  0  0
 47  9  1  0  0  0  0
 50 12  1  0  0  0  0
 51 14  1  0  0  0  0
 55 21  1  0  0  0  0
 56 22  1  0  0  0  0
 60 24  1  0  0  0  0
 62 25  1  0  0  0  0
 63 25  1  0  0  0  0
 65 26  1  0  0  0  0
 66 27  1  0  0  0  0
 68 28  1  0  0  0  0
 70 29  1  0  0  0  0
 71 29  1  0  0  0  0
 75 37  1  0  0  0  0
 76 41  1  0  0  0  0
M  RAD  1  12   2
M  END
$$$$
