76
rmsd105.gzmat
C          0.00000        0.00000        0.00000
C          1.33290        0.00000        0.00000
C          2.09740        0.00000        1.29020
H          2.21000        1.03280        1.70460
C          1.41500       -0.95010        2.28640
C         -0.04060       -0.57190        2.50990
H         -0.17770        0.05210        3.41850
C         -0.80020        0.04710        1.27180
C         -1.20100        1.51260        1.53370
C         -2.65380        1.83750        1.16000
N         -3.00480        1.49950       -0.23470
C         -3.24870        0.26400       -0.60390
C         -3.06620       -0.85750        0.28890
C         -3.94800       -1.95190        0.28280
C         -3.76830       -3.01610        1.15320
C         -2.68920       -3.03380        2.06020
C         -1.80170       -1.94830        2.04130
C         -1.97350       -0.88960        1.15650
O         -0.70850       -1.82330        2.84690
O         -2.63390       -4.11430        2.84990
C         -1.54330       -4.18960        3.77100
C         -3.00080        2.60740       -1.21590
C         -1.56010        3.08800       -1.45210
C         -1.45530        3.83570       -2.78540
C         -0.00630        4.25350       -3.07450
C          0.94260        3.06570       -3.28350
C          0.63680        2.30800       -4.58150
C          1.42980        1.00160       -4.67620
C          0.83230       -0.11850       -3.80640
N         -0.43440       -0.60890       -4.34740
C         -0.51820       -1.33870       -5.58640
O          0.43960       -1.72550       -6.18490
C         -1.97700       -1.47170       -5.86910
C         -2.62280       -2.08420       -6.91510
C         -4.03170       -2.03640       -6.92620
C         -4.73490       -1.39390       -5.91780
C         -4.06640       -0.76850       -4.84600
C         -2.69380       -0.81980       -4.83790
C         -1.70210       -0.26260       -3.86880
O         -1.91490        0.34440       -2.84240
O          3.43390       -0.37920        1.08930
H         -0.58700       -0.02700       -0.91920
H          1.93680       -0.01110       -0.90580
H          1.97220       -0.95600        3.24580
H          1.47920       -1.99610        1.91500
H         -1.06370        1.76800        2.60830
H         -0.50380        2.19050        0.99500
H         -3.34950        1.28560        1.84520
H         -2.84800        2.92490        1.32890
H         -3.60810        0.05660       -1.63590
H         -4.79300       -1.96130       -0.40980
H         -4.46010       -3.86330        1.15010
H         -1.73800       -5.15140        4.26930
H         -1.58030       -3.36350        4.48880
H         -0.58520       -4.21140        3.24130
H         -3.64650        3.43470       -0.84250
H         -3.44310        2.25530       -2.18080
H         -0.87230        2.21230       -1.47910
H         -1.21540        3.73400       -0.62450
H         -2.10290        4.73350       -2.77590
H         -1.82900        3.19620       -3.61020
H          0.37190        4.88520       -2.24750
H          0.01200        4.90240       -3.97390
H          0.89140        2.38050       -2.41760
H          1.98870        3.43310       -3.30670
H          0.87200        2.95290       -5.45180
H         -0.44630        2.09850       -4.65800
H          2.48380        1.17100       -4.37960
H          1.47900        0.66450       -5.73300
H          0.66220        0.24200       -2.76650
H          1.54260       -0.98070       -3.75550
H         -2.07100       -2.58870       -7.71240
H         -4.57120       -2.51410       -7.74870
H         -5.82590       -1.36530       -5.94890
H         -4.62740       -0.26260       -4.06430
H          3.50530       -1.29410        0.74410
