rmsd70.gzmat
 OpenBabel08211713413D

 40 42  0  0  1  0  0  0  0  0999 V2000
    0.0000    0.0000    0.0000 O   0  0  0  0  0  0  0  0  0  0  0  0
    1.2132    0.0000    0.0000 C   0  0  0  0  0  0  0  0  0  0  0  0
    1.9348    0.0000    1.1725 N   0  0  0  0  0  0  0  0  0  0  0  0
    1.2589   -0.0618    2.4761 C   0  0  2  0  0  0  0  0  0  0  0  0
    0.1477    0.0514    2.3047 H   0  0  0  0  0  0  0  0  0  0  0  0
    1.7436    1.0945    3.3639 C   0  0  0  0  0  0  0  0  0  0  0  0
    1.5527   -1.4012    3.1209 C   0  0  0  0  0  0  0  0  0  0  0  0
    0.5125   -2.3136    3.3001 C   0  0  0  0  0  0  0  0  0  0  0  0
    0.7653   -3.5541    3.8823 C   0  0  0  0  0  0  0  0  0  0  0  0
    2.0577   -3.8878    4.2828 C   0  0  0  0  0  0  0  0  0  0  0  0
    3.0978   -2.9782    4.0996 C   0  0  0  0  0  0  0  0  0  0  0  0
    2.8474   -1.7375    3.5181 C   0  0  0  0  0  0  0  0  0  0  0  0
    2.0398    0.0022   -1.2905 C   0  0  2  0  0  0  0  0  0  0  0  0
    2.6213   -1.3917   -1.5096 C   0  0  0  0  0  0  0  0  0  0  0  0
    3.9691   -1.3559   -1.5119 C   0  0  0  0  0  0  0  0  0  0  0  0
    4.4242    0.0220   -1.2979 C   0  0  0  0  0  0  0  0  0  0  0  0
    5.6976    0.5539   -1.2092 C   0  0  0  0  0  0  0  0  0  0  0  0
    5.8270    1.9309   -0.9913 C   0  0  0  0  0  0  0  0  0  0  0  0
    4.7059    2.7473   -0.8662 C   0  0  0  0  0  0  0  0  0  0  0  0
    3.4140    2.2128   -0.9556 C   0  0  0  0  0  0  0  0  0  0  0  0
    3.2848    0.8561   -1.1686 C   0  0  0  0  0  0  0  0  0  0  0  0
    1.1650    0.4334   -2.4594 C   0  0  0  0  0  0  0  0  0  0  0  0
    2.9419   -0.0420    1.1748 H   0  0  0  0  0  0  0  0  0  0  0  0
    1.2841    1.0368    4.3573 H   0  0  0  0  0  0  0  0  0  0  0  0
    1.4765    2.0637    2.9243 H   0  0  0  0  0  0  0  0  0  0  0  0
    2.8297    1.0854    3.5031 H   0  0  0  0  0  0  0  0  0  0  0  0
   -0.4977   -2.0636    2.9775 H   0  0  0  0  0  0  0  0  0  0  0  0
   -0.0479   -4.2635    4.0213 H   0  0  0  0  0  0  0  0  0  0  0  0
    2.2559   -4.8562    4.7360 H   0  0  0  0  0  0  0  0  0  0  0  0
    4.1070   -3.2366    4.4120 H   0  0  0  0  0  0  0  0  0  0  0  0
    3.6652   -1.0343    3.3774 H   0  0  0  0  0  0  0  0  0  0  0  0
    1.9696   -2.2343   -1.6400 H   0  0  0  0  0  0  0  0  0  0  0  0
    4.6522   -2.1737   -1.6495 H   0  0  0  0  0  0  0  0  0  0  0  0
    6.5778   -0.0755   -1.3072 H   0  0  0  0  0  0  0  0  0  0  0  0
    6.8221    2.3670   -0.9206 H   0  0  0  0  0  0  0  0  0  0  0  0
    4.8308    3.8152   -0.6963 H   0  0  0  0  0  0  0  0  0  0  0  0
    2.5402    2.8526   -0.8561 H   0  0  0  0  0  0  0  0  0  0  0  0
    1.7104    0.3826   -3.4091 H   0  0  0  0  0  0  0  0  0  0  0  0
    0.8081    1.4633   -2.3294 H   0  0  0  0  0  0  0  0  0  0  0  0
    0.2710   -0.2036   -2.5394 H   0  0  0  0  0  0  0  0  0  0  0  0
  2  1  2  0  0  0  0
  2  3  1  0  0  0  0
  3 23  1  0  0  0  0
  3  4  1  0  0  0  0
  4  5  1  6  0  0  0
  4  7  1  0  0  0  0
  4  6  1  0  0  0  0
  6 26  1  0  0  0  0
  6 24  1  0  0  0  0
  7  8  2  0  0  0  0
  7 12  1  0  0  0  0
  8  9  1  0  0  0  0
  9 28  1  0  0  0  0
  9 10  2  0  0  0  0
 10 29  1  0  0  0  0
 11 10  1  0  0  0  0
 11 30  1  0  0  0  0
 12 11  2  0  0  0  0
 13 21  1  0  0  0  0
 13  2  1  1  0  0  0
 14 13  1  0  0  0  0
 15 14  2  0  0  0  0
 15 16  1  0  0  0  0
 16 17  2  0  0  0  0
 16 21  1  0  0  0  0
 17 18  1  0  0  0  0
 18 35  1  0  0  0  0
 18 19  2  0  0  0  0
 19 36  1  0  0  0  0
 20 19  1  0  0  0  0
 20 37  1  0  0  0  0
 21 20  2  0  0  0  0
 22 39  1  0  0  0  0
 22 13  1  0  0  0  0
 25  6  1  0  0  0  0
 27  8  1  0  0  0  0
 31 12  1  0  0  0  0
 32 14  1  0  0  0  0
 33 15  1  0  0  0  0
 34 17  1  0  0  0  0
 38 22  1  0  0  0  0
 40 22  1  0  0  0  0
M  END
$$$$
