rmsd179.gzmat
 OpenBabel08211713413D

 40 42  0  0  1  0  0  0  0  0999 V2000
    0.0000    0.0000    0.0000 O   0  0  0  0  0  0  0  0  0  0  0  0
    1.2127    0.0000    0.0000 C   0  0  0  0  0  0  0  0  0  0  0  0
    1.9328    0.0000    1.1751 N   0  0  0  0  0  0  0  0  0  0  0  0
    1.2474   -0.1721    2.4648 C   0  0  2  0  0  0  0  0  0  0  0  0
    0.1653    0.1236    2.3291 H   0  0  0  0  0  0  0  0  0  0  0  0
    1.8847    0.7483    3.5141 C   0  0  0  0  0  0  0  0  0  0  0  0
    1.3388   -1.6285    2.8767 C   0  0  0  0  0  0  0  0  0  0  0  0
    0.1814   -2.4074    2.8779 C   0  0  0  0  0  0  0  0  0  0  0  0
    0.2471   -3.7539    3.2301 C   0  0  0  0  0  0  0  0  0  0  0  0
    1.4694   -4.3257    3.5785 C   0  0  0  0  0  0  0  0  0  0  0  0
    2.6271   -3.5498    3.5704 C   0  0  0  0  0  0  0  0  0  0  0  0
    2.5636   -2.2034    3.2182 C   0  0  0  0  0  0  0  0  0  0  0  0
    2.0418   -0.0058   -1.2879 C   0  0  2  0  0  0  0  0  0  0  0  0
    2.7055   -1.3731   -1.4361 C   0  0  0  0  0  0  0  0  0  0  0  0
    4.0490   -1.2583   -1.4330 C   0  0  0  0  0  0  0  0  0  0  0  0
    4.4208    0.1535   -1.2912 C   0  0  0  0  0  0  0  0  0  0  0  0
    5.6608    0.7637   -1.2400 C   0  0  0  0  0  0  0  0  0  0  0  0
    5.7093    2.1561   -1.1004 C   0  0  0  0  0  0  0  0  0  0  0  0
    4.5414    2.9099   -1.0159 C   0  0  0  0  0  0  0  0  0  0  0  0
    3.2830    2.2964   -1.0676 C   0  0  0  0  0  0  0  0  0  0  0  0
    3.2335    0.9246   -1.2045 C   0  0  0  0  0  0  0  0  0  0  0  0
    1.1492    0.3130   -2.4788 C   0  0  0  0  0  0  0  0  0  0  0  0
    2.9388   -0.0565    1.1770 H   0  0  0  0  0  0  0  0  0  0  0  0
    1.4341    0.5786    4.4990 H   0  0  0  0  0  0  0  0  0  0  0  0
    1.7338    1.8033    3.2525 H   0  0  0  0  0  0  0  0  0  0  0  0
    2.9626    0.5868    3.6142 H   0  0  0  0  0  0  0  0  0  0  0  0
   -0.7744   -1.9678    2.5919 H   0  0  0  0  0  0  0  0  0  0  0  0
   -0.6572   -4.3598    3.2292 H   0  0  0  0  0  0  0  0  0  0  0  0
    1.5198   -5.3761    3.8554 H   0  0  0  0  0  0  0  0  0  0  0  0
    3.5818   -3.9963    3.8396 H   0  0  0  0  0  0  0  0  0  0  0  0
    3.4716   -1.6045    3.2102 H   0  0  0  0  0  0  0  0  0  0  0  0
    2.1050   -2.2580   -1.5269 H   0  0  0  0  0  0  0  0  0  0  0  0
    4.7794   -2.0406   -1.5240 H   0  0  0  0  0  0  0  0  0  0  0  0
    6.5758    0.1822   -1.3092 H   0  0  0  0  0  0  0  0  0  0  0  0
    6.6765    2.6539   -1.0601 H   0  0  0  0  0  0  0  0  0  0  0  0
    4.6030    3.9917   -0.9100 H   0  0  0  0  0  0  0  0  0  0  0  0
    2.3741    2.8897   -0.9999 H   0  0  0  0  0  0  0  0  0  0  0  0
    1.7011    0.2454   -3.4238 H   0  0  0  0  0  0  0  0  0  0  0  0
    0.7309    1.3252   -2.4020 H   0  0  0  0  0  0  0  0  0  0  0  0
    0.2942   -0.3780   -2.5286 H   0  0  0  0  0  0  0  0  0  0  0  0
  2  1  2  0  0  0  0
  2  3  1  0  0  0  0
  3 23  1  0  0  0  0
  3  4  1  0  0  0  0
  4  5  1  6  0  0  0
  4  7  1  0  0  0  0
  4  6  1  0  0  0  0
  6 26  1  0  0  0  0
  6 24  1  0  0  0  0
  7  8  2  0  0  0  0
  7 12  1  0  0  0  0
  8  9  1  0  0  0  0
  9 10  2  0  0  0  0
 10 29  1  0  0  0  0
 11 10  1  0  0  0  0
 11 30  1  0  0  0  0
 12 11  2  0  0  0  0
 13 21  1  0  0  0  0
 13  2  1  1  0  0  0
 14 15  2  0  0  0  0
 14 13  1  0  0  0  0
 15 16  1  0  0  0  0
 16 17  2  0  0  0  0
 16 21  1  0  0  0  0
 17 18  1  0  0  0  0
 18 35  1  0  0  0  0
 18 19  2  0  0  0  0
 19 36  1  0  0  0  0
 20 19  1  0  0  0  0
 20 37  1  0  0  0  0
 21 20  2  0  0  0  0
 22 39  1  0  0  0  0
 22 13  1  0  0  0  0
 25  6  1  0  0  0  0
 27  8  1  0  0  0  0
 28  9  1  0  0  0  0
 31 12  1  0  0  0  0
 32 14  1  0  0  0  0
 33 15  1  0  0  0  0
 34 17  1  0  0  0  0
 38 22  1  0  0  0  0
 40 22  1  0  0  0  0
M  END
$$$$
