40
rmsd70.gzmat
O          0.00000        0.00000        0.00000
C          1.21320        0.00000        0.00000
N          1.93480        0.00000        1.17250
C          1.25890       -0.06180        2.47610
H          0.14770        0.05140        2.30470
C          1.74360        1.09450        3.36390
C          1.55270       -1.40120        3.12090
C          0.51250       -2.31360        3.30010
C          0.76530       -3.55410        3.88230
C          2.05770       -3.88780        4.28280
C          3.09780       -2.97820        4.09960
C          2.84740       -1.73750        3.51810
C          2.03980        0.00220       -1.29050
C          2.62130       -1.39170       -1.50960
C          3.96910       -1.35590       -1.51190
C          4.42420        0.02200       -1.29790
C          5.69760        0.55390       -1.20920
C          5.82700        1.93090       -0.99130
C          4.70590        2.74730       -0.86620
C          3.41400        2.21280       -0.95560
C          3.28480        0.85610       -1.16860
C          1.16500        0.43340       -2.45940
H          2.94190       -0.04200        1.17480
H          1.28410        1.03680        4.35730
H          1.47650        2.06370        2.92430
H          2.82970        1.08540        3.50310
H         -0.49770       -2.06360        2.97750
H         -0.04790       -4.26350        4.02130
H          2.25590       -4.85620        4.73600
H          4.10700       -3.23660        4.41200
H          3.66520       -1.03430        3.37740
H          1.96960       -2.23430       -1.64000
H          4.65220       -2.17370       -1.64950
H          6.57780       -0.07550       -1.30720
H          6.82210        2.36700       -0.92060
H          4.83080        3.81520       -0.69630
H          2.54020        2.85260       -0.85610
H          1.71040        0.38260       -3.40910
H          0.80810        1.46330       -2.32940
H          0.27100       -0.20360       -2.53940
