
     RDKit          3D

 40 42  0  0  0  0  0  0  0  0999 V2000
   -0.1367   -0.2988    0.0365 O   0  0  0  0  0  0  0  0  0  0  0  0
    1.0501   -0.0107    0.0504 C   0  0  0  0  0  0  0  0  0  0  0  0
    1.7537    0.2151    1.1884 N   0  0  0  0  0  0  0  0  0  0  0  0
    1.1981   -0.0126    2.5220 C   0  0  2  0  0  0  0  0  0  0  0  0
    0.1084    0.0135    2.3784 H   0  0  0  0  0  0  0  0  0  0  0  0
    1.6061    1.1266    3.4516 C   0  0  0  0  0  0  0  0  0  0  0  0
    1.5633   -1.4122    3.0077 C   0  0  0  0  0  0  0  0  0  0  0  0
    0.9409   -2.5140    2.3952 C   0  0  0  0  0  0  0  0  0  0  0  0
    1.2732   -3.8165    2.7662 C   0  0  0  0  0  0  0  0  0  0  0  0
    2.2338   -4.0426    3.7585 C   0  0  0  0  0  0  0  0  0  0  0  0
    2.8549   -2.9554    4.3745 C   0  0  0  0  0  0  0  0  0  0  0  0
    2.5208   -1.6486    4.0014 C   0  0  0  0  0  0  0  0  0  0  0  0
    1.8696    0.0548   -1.2691 C   0  0  2  0  0  0  0  0  0  0  0  0
    2.3508   -1.3654   -1.5452 C   0  0  0  0  0  0  0  0  0  0  0  0
    3.6979   -1.4306   -1.5681 C   0  0  0  0  0  0  0  0  0  0  0  0
    4.2584   -0.0962   -1.3255 C   0  0  0  0  0  0  0  0  0  0  0  0
    5.5796    0.3543   -1.2497 C   0  0  0  0  0  0  0  0  0  0  0  0
    5.8138    1.7119   -1.0003 C   0  0  0  0  0  0  0  0  0  0  0  0
    4.7476    2.6041   -0.8293 C   0  0  0  0  0  0  0  0  0  0  0  0
    3.4212    2.1532   -0.9040 C   0  0  0  0  0  0  0  0  0  0  0  0
    3.1832    0.8055   -1.1507 C   0  0  0  0  0  0  0  0  0  0  0  0
    0.9687    0.5954   -2.3909 C   0  0  0  0  0  0  0  0  0  0  0  0
    2.7552    0.3557    1.1084 H   0  0  0  0  0  0  0  0  0  0  0  0
    1.1973    0.9764    4.4616 H   0  0  0  0  0  0  0  0  0  0  0  0
    1.2292    2.0819    3.0586 H   0  0  0  0  0  0  0  0  0  0  0  0
    2.7018    1.2093    3.5388 H   0  0  0  0  0  0  0  0  0  0  0  0
    0.1922   -2.3338    1.6200 H   0  0  0  0  0  0  0  0  0  0  0  0
    0.7772   -4.6617    2.2823 H   0  0  0  0  0  0  0  0  0  0  0  0
    2.4930   -5.0629    4.0515 H   0  0  0  0  0  0  0  0  0  0  0  0
    3.6040   -3.1210    5.1529 H   0  0  0  0  0  0  0  0  0  0  0  0
    3.0166   -0.8126    4.4978 H   0  0  0  0  0  0  0  0  0  0  0  0
    1.6513   -2.1906   -1.6815 H   0  0  0  0  0  0  0  0  0  0  0  0
    4.2951   -2.3276   -1.7392 H   0  0  0  0  0  0  0  0  0  0  0  0
    6.4142   -0.3383   -1.3829 H   0  0  0  0  0  0  0  0  0  0  0  0
    6.8405    2.0809   -0.9385 H   0  0  0  0  0  0  0  0  0  0  0  0
    4.9511    3.6602   -0.6372 H   0  0  0  0  0  0  0  0  0  0  0  0
    2.5917    2.8505   -0.7618 H   0  0  0  0  0  0  0  0  0  0  0  0
    1.4908    0.5408   -3.3568 H   0  0  0  0  0  0  0  0  0  0  0  0
    0.6968    1.6440   -2.1957 H   0  0  0  0  0  0  0  0  0  0  0  0
    0.0420    0.0083   -2.4350 H   0  0  0  0  0  0  0  0  0  0  0  0
  1  2  2  0
  2  3  1  0
 13  2  1  1
  3  4  1  0
  3 23  1  0
  4  5  1  6
  4  6  1  0
  4  7  1  0
  6 24  1  0
  6 25  1  0
  6 26  1  0
  7  8  2  0
  7 12  1  0
  8  9  1  0
  8 27  1  0
  9 10  2  0
  9 28  1  0
 10 11  1  0
 10 29  1  0
 11 12  2  0
 11 30  1  0
 12 31  1  0
 13 14  1  0
 13 21  1  0
 13 22  1  0
 14 15  2  0
 14 32  1  0
 15 16  1  0
 15 33  1  0
 16 17  1  0
 16 21  2  0
 17 18  2  0
 17 34  1  0
 18 19  1  0
 18 35  1  0
 19 20  2  0
 19 36  1  0
 20 21  1  0
 20 37  1  0
 22 38  1  0
 22 39  1  0
 22 40  1  0
M  END

