rmsd212.gzmat
 OpenBabel08211713413D

 40 42  0  0  1  0  0  0  0  0999 V2000
    0.0000    0.0000    0.0000 O   0  0  0  0  0  0  0  0  0  0  0  0
    1.2127    0.0000    0.0000 C   0  0  0  0  0  0  0  0  0  0  0  0
    1.9351    0.0000    1.1733 N   0  0  0  0  0  0  0  0  0  0  0  0
    1.2571   -0.1439    2.4697 C   0  0  2  0  0  0  0  0  0  0  0  0
    0.1609    0.0853    2.3197 H   0  0  0  0  0  0  0  0  0  0  0  0
    1.8433    0.8607    3.4712 C   0  0  0  0  0  0  0  0  0  0  0  0
    1.4287   -1.5670    2.9634 C   0  0  0  0  0  0  0  0  0  0  0  0
    0.3036   -2.3807    3.0998 C   0  0  0  0  0  0  0  0  0  0  0  0
    0.4432   -3.6964    3.5368 C   0  0  0  0  0  0  0  0  0  0  0  0
    1.7069   -4.2044    3.8326 C   0  0  0  0  0  0  0  0  0  0  0  0
    2.8322   -3.3943    3.6896 C   0  0  0  0  0  0  0  0  0  0  0  0
    2.6947   -2.0774    3.2562 C   0  0  0  0  0  0  0  0  0  0  0  0
    2.0392   -0.0070   -1.2903 C   0  0  2  0  0  0  0  0  0  0  0  0
    2.5923   -1.4156   -1.4951 C   0  0  0  0  0  0  0  0  0  0  0  0
    3.9405   -1.4092   -1.4828 C   0  0  0  0  0  0  0  0  0  0  0  0
    4.4230   -0.0383   -1.2842 C   0  0  0  0  0  0  0  0  0  0  0  0
    5.7081    0.4663   -1.2019 C   0  0  0  0  0  0  0  0  0  0  0  0
    5.8680    1.8440   -1.0112 C   0  0  0  0  0  0  0  0  0  0  0  0
    4.7642    2.6869   -0.9078 C   0  0  0  0  0  0  0  0  0  0  0  0
    3.4606    2.1798   -0.9879 C   0  0  0  0  0  0  0  0  0  0  0  0
    3.3013    0.8221   -1.1734 C   0  0  0  0  0  0  0  0  0  0  0  0
    1.1729    0.4352   -2.4605 C   0  0  0  0  0  0  0  0  0  0  0  0
    2.9415   -0.0588    1.1724 H   0  0  0  0  0  0  0  0  0  0  0  0
    1.3630    0.7525    4.4511 H   0  0  0  0  0  0  0  0  0  0  0  0
    1.6835    1.8918    3.1301 H   0  0  0  0  0  0  0  0  0  0  0  0
    2.9202    0.7251    3.6163 H   0  0  0  0  0  0  0  0  0  0  0  0
   -0.6853   -1.9933    2.8557 H   0  0  0  0  0  0  0  0  0  0  0  0
   -0.4358   -4.3291    3.6427 H   0  0  0  0  0  0  0  0  0  0  0  0
    1.8146   -5.2320    4.1729 H   0  0  0  0  0  0  0  0  0  0  0  0
    3.8196   -3.7898    3.9171 H   0  0  0  0  0  0  0  0  0  0  0  0
    3.5774   -1.4514    3.1465 H   0  0  0  0  0  0  0  0  0  0  0  0
    1.9228   -2.2446   -1.6232 H   0  0  0  0  0  0  0  0  0  0  0  0
    4.6073   -2.2431   -1.6018 H   0  0  0  0  0  0  0  0  0  0  0  0
    6.5725   -0.1860   -1.2850 H   0  0  0  0  0  0  0  0  0  0  0  0
    6.8719    2.2605   -0.9454 H   0  0  0  0  0  0  0  0  0  0  0  0
    4.9124    3.7558   -0.7640 H   0  0  0  0  0  0  0  0  0  0  0  0
    2.6023    2.8423   -0.9041 H   0  0  0  0  0  0  0  0  0  0  0  0
    1.7345    0.4234   -3.4020 H   0  0  0  0  0  0  0  0  0  0  0  0
    0.7871    1.4521   -2.3078 H   0  0  0  0  0  0  0  0  0  0  0  0
    0.2964   -0.2205   -2.5746 H   0  0  0  0  0  0  0  0  0  0  0  0
  2  1  2  0  0  0  0
  2  3  1  0  0  0  0
  3  4  1  0  0  0  0
  4  5  1  6  0  0  0
  4  7  1  0  0  0  0
  4  6  1  0  0  0  0
  6 26  1  0  0  0  0
  6 24  1  0  0  0  0
  7  8  2  0  0  0  0
  7 12  1  0  0  0  0
  8  9  1  0  0  0  0
  9 28  1  0  0  0  0
  9 10  2  0  0  0  0
 10 29  1  0  0  0  0
 11 10  1  0  0  0  0
 11 30  1  0  0  0  0
 12 11  2  0  0  0  0
 13 21  1  0  0  0  0
 13  2  1  1  0  0  0
 14 15  2  0  0  0  0
 14 13  1  0  0  0  0
 15 16  1  0  0  0  0
 16 17  2  0  0  0  0
 16 21  1  0  0  0  0
 17 18  1  0  0  0  0
 18 35  1  0  0  0  0
 18 19  2  0  0  0  0
 19 36  1  0  0  0  0
 20 19  1  0  0  0  0
 20 37  1  0  0  0  0
 21 20  2  0  0  0  0
 22 39  1  0  0  0  0
 22 13  1  0  0  0  0
 23  3  1  0  0  0  0
 25  6  1  0  0  0  0
 27  8  1  0  0  0  0
 31 12  1  0  0  0  0
 32 14  1  0  0  0  0
 33 15  1  0  0  0  0
 34 17  1  0  0  0  0
 38 22  1  0  0  0  0
 40 22  1  0  0  0  0
M  END
$$$$
