40
rmsd187.gzmat
O          0.00000        0.00000        0.00000
C          1.21290        0.00000        0.00000
N          1.93280        0.00000        1.17480
C          1.24930       -0.17040        2.46570
H          0.16520        0.11510        2.32780
C          1.88270        0.76100        3.50820
C          1.35620       -1.61950        2.89740
C          0.19320       -2.37680        3.03810
C          0.27460       -3.71580        3.41430
C          1.51750       -4.30260        3.64340
C          2.68040       -3.54830        3.49630
C          2.60090       -2.20790        3.12600
C          2.03400       -0.00970       -1.29330
C          2.42840       -1.45590       -1.58630
C          3.76910       -1.59540       -1.60090
C          4.40030       -0.29900       -1.33290
C          5.73350        0.05950       -1.24630
C          6.04400        1.39710       -0.97360
C          5.03970        2.34510       -0.79440
C          3.68810        1.98670       -0.88160
C          3.38030        0.66870       -1.14860
C          1.21430        0.59070       -2.42650
H          2.93880       -0.06700        1.17710
H          1.39480        0.63720        4.48240
H          1.77730        1.81160        3.21000
H          2.95040        0.56400        3.64960
H         -0.78020       -1.92690        2.84400
H         -0.63410       -4.30440        3.52420
H          1.58020       -5.34870        3.93410
H          3.65150       -4.00680        3.66980
H          3.51210       -1.62500        3.01430
H          1.67060       -2.19910       -1.74640
H          4.33950       -2.48780       -1.77960
H          6.52190       -0.67440       -1.38770
H          7.08790        1.69840       -0.90370
H          5.30460        3.38000       -0.58470
H          2.90710        2.73000       -0.73970
H          1.73830        0.51060       -3.38630
H          1.00160        1.65200       -2.24580
H          0.24200        0.08270       -2.52270
