rmsd193.gzmat
 OpenBabel08211713413D

 40 42  0  0  1  0  0  0  0  0999 V2000
    0.0000    0.0000    0.0000 O   0  0  0  0  0  0  0  0  0  0  0  0
    1.2130    0.0000    0.0000 C   0  0  0  0  0  0  0  0  0  0  0  0
    1.9343    0.0000    1.1734 N   0  0  0  0  0  0  0  0  0  0  0  0
    1.2549   -0.1186    2.4719 C   0  0  2  0  0  0  0  0  0  0  0  0
    0.1548    0.0880    2.3164 H   0  0  0  0  0  0  0  0  0  0  0  0
    1.8193    0.9265    3.4442 C   0  0  0  0  0  0  0  0  0  0  0  0
    1.4483   -1.5299    2.9903 C   0  0  0  0  0  0  0  0  0  0  0  0
    0.3705   -2.4156    2.9601 C   0  0  0  0  0  0  0  0  0  0  0  0
    0.5288   -3.7232    3.4139 C   0  0  0  0  0  0  0  0  0  0  0  0
    1.7670   -4.1521    3.8878 C   0  0  0  0  0  0  0  0  0  0  0  0
    2.8475   -3.2720    3.9047 C   0  0  0  0  0  0  0  0  0  0  0  0
    2.6895   -1.9625    3.4567 C   0  0  0  0  0  0  0  0  0  0  0  0
    2.0430    0.0002   -1.2879 C   0  0  2  0  0  0  0  0  0  0  0  0
    2.7136   -1.3621   -1.4455 C   0  0  0  0  0  0  0  0  0  0  0  0
    4.0565   -1.2413   -1.4353 C   0  0  0  0  0  0  0  0  0  0  0  0
    4.4216    0.1704   -1.2760 C   0  0  0  0  0  0  0  0  0  0  0  0
    5.6586    0.7847   -1.2038 C   0  0  0  0  0  0  0  0  0  0  0  0
    5.6997    2.1755   -1.0480 C   0  0  0  0  0  0  0  0  0  0  0  0
    4.5282    2.9240   -0.9679 C   0  0  0  0  0  0  0  0  0  0  0  0
    3.2729    2.3057   -1.0384 C   0  0  0  0  0  0  0  0  0  0  0  0
    3.2307    0.9356   -1.1913 C   0  0  0  0  0  0  0  0  0  0  0  0
    1.1532    0.3252   -2.4791 C   0  0  0  0  0  0  0  0  0  0  0  0
    2.9408   -0.0534    1.1753 H   0  0  0  0  0  0  0  0  0  0  0  0
    1.3737    0.8081    4.4388 H   0  0  0  0  0  0  0  0  0  0  0  0
    1.5997    1.9433    3.0943 H   0  0  0  0  0  0  0  0  0  0  0  0
    2.9055    0.8495    3.5581 H   0  0  0  0  0  0  0  0  0  0  0  0
   -0.5948   -2.0903    2.5713 H   0  0  0  0  0  0  0  0  0  0  0  0
   -0.3147   -4.4104    3.3941 H   0  0  0  0  0  0  0  0  0  0  0  0
    1.8909   -5.1735    4.2407 H   0  0  0  0  0  0  0  0  0  0  0  0
    3.8167   -3.6086    4.2661 H   0  0  0  0  0  0  0  0  0  0  0  0
    3.5382   -1.2823    3.4718 H   0  0  0  0  0  0  0  0  0  0  0  0
    2.1176   -2.2486   -1.5486 H   0  0  0  0  0  0  0  0  0  0  0  0
    4.7910   -2.0193   -1.5322 H   0  0  0  0  0  0  0  0  0  0  0  0
    6.5766    0.2072   -1.2670 H   0  0  0  0  0  0  0  0  0  0  0  0
    6.6644    2.6766   -0.9904 H   0  0  0  0  0  0  0  0  0  0  0  0
    4.5845    4.0046   -0.8494 H   0  0  0  0  0  0  0  0  0  0  0  0
    2.3603    2.8938   -0.9719 H   0  0  0  0  0  0  0  0  0  0  0  0
    1.6994    0.2304   -3.4250 H   0  0  0  0  0  0  0  0  0  0  0  0
    0.7614    1.3489   -2.4154 H   0  0  0  0  0  0  0  0  0  0  0  0
    0.2801   -0.3443   -2.5156 H   0  0  0  0  0  0  0  0  0  0  0  0
  2  1  2  0  0  0  0
  2  3  1  0  0  0  0
  3 23  1  0  0  0  0
  3  4  1  0  0  0  0
  4  5  1  6  0  0  0
  4  7  1  0  0  0  0
  4  6  1  0  0  0  0
  6 26  1  0  0  0  0
  6 24  1  0  0  0  0
  7 12  1  0  0  0  0
  8  7  2  0  0  0  0
  8  9  1  0  0  0  0
  9 10  2  0  0  0  0
 10 11  1  0  0  0  0
 10 29  1  0  0  0  0
 11 30  1  0  0  0  0
 12 31  1  0  0  0  0
 12 11  2  0  0  0  0
 13 21  1  0  0  0  0
 13  2  1  1  0  0  0
 14 15  2  0  0  0  0
 14 13  1  0  0  0  0
 15 16  1  0  0  0  0
 16 17  2  0  0  0  0
 16 21  1  0  0  0  0
 17 18  1  0  0  0  0
 18 35  1  0  0  0  0
 18 19  2  0  0  0  0
 19 36  1  0  0  0  0
 20 37  1  0  0  0  0
 20 19  1  0  0  0  0
 21 20  2  0  0  0  0
 22 39  1  0  0  0  0
 22 13  1  0  0  0  0
 25  6  1  0  0  0  0
 27  8  1  0  0  0  0
 28  9  1  0  0  0  0
 32 14  1  0  0  0  0
 33 15  1  0  0  0  0
 34 17  1  0  0  0  0
 38 22  1  0  0  0  0
 40 22  1  0  0  0  0
M  END
$$$$
