40
rmsd193.gzmat
O          0.00000        0.00000        0.00000
C          1.21300        0.00000        0.00000
N          1.93430        0.00000        1.17340
C          1.25490       -0.11860        2.47190
H          0.15480        0.08800        2.31640
C          1.81930        0.92650        3.44420
C          1.44830       -1.52990        2.99030
C          0.37050       -2.41560        2.96010
C          0.52880       -3.72320        3.41390
C          1.76700       -4.15210        3.88780
C          2.84750       -3.27200        3.90470
C          2.68950       -1.96250        3.45670
C          2.04300        0.00020       -1.28790
C          2.71360       -1.36210       -1.44550
C          4.05650       -1.24130       -1.43530
C          4.42160        0.17040       -1.27600
C          5.65860        0.78470       -1.20380
C          5.69970        2.17550       -1.04800
C          4.52820        2.92400       -0.96790
C          3.27290        2.30570       -1.03840
C          3.23070        0.93560       -1.19130
C          1.15320        0.32520       -2.47910
H          2.94080       -0.05340        1.17530
H          1.37370        0.80810        4.43880
H          1.59970        1.94330        3.09430
H          2.90550        0.84950        3.55810
H         -0.59480       -2.09030        2.57130
H         -0.31470       -4.41040        3.39410
H          1.89090       -5.17350        4.24070
H          3.81670       -3.60860        4.26610
H          3.53820       -1.28230        3.47180
H          2.11760       -2.24860       -1.54860
H          4.79100       -2.01930       -1.53220
H          6.57660        0.20720       -1.26700
H          6.66440        2.67660       -0.99040
H          4.58450        4.00460       -0.84940
H          2.36030        2.89380       -0.97190
H          1.69940        0.23040       -3.42500
H          0.76140        1.34890       -2.41540
H          0.28010       -0.34430       -2.51560
