
     RDKit          3D

 40 42  0  0  0  0  0  0  0  0999 V2000
   -0.1159   -0.0569    0.1185 O   0  0  0  0  0  0  0  0  0  0  0  0
    1.1004    0.0521    0.0976 C   0  0  0  0  0  0  0  0  0  0  0  0
    1.8676    0.1080    1.2154 N   0  0  0  0  0  0  0  0  0  0  0  0
    1.3293   -0.1101    2.5577 C   0  0  2  0  0  0  0  0  0  0  0  0
    0.2509    0.0797    2.4598 H   0  0  0  0  0  0  0  0  0  0  0  0
    1.9288    0.9066    3.5248 C   0  0  0  0  0  0  0  0  0  0  0  0
    1.5035   -1.5721    2.9584 C   0  0  0  0  0  0  0  0  0  0  0  0
    0.7157   -2.5392    2.3099 C   0  0  0  0  0  0  0  0  0  0  0  0
    0.8677   -3.8942    2.6022 C   0  0  0  0  0  0  0  0  0  0  0  0
    1.8101   -4.3085    3.5502 C   0  0  0  0  0  0  0  0  0  0  0  0
    2.5947   -3.3559    4.2015 C   0  0  0  0  0  0  0  0  0  0  0  0
    2.4414   -1.9962    3.9073 C   0  0  0  0  0  0  0  0  0  0  0  0
    1.8754    0.0688   -1.2499 C   0  0  2  0  0  0  0  0  0  0  0  0
    2.1243   -1.3897   -1.6182 C   0  0  0  0  0  0  0  0  0  0  0  0
    3.4441   -1.6557   -1.7014 C   0  0  0  0  0  0  0  0  0  0  0  0
    4.2097   -0.4369   -1.4150 C   0  0  0  0  0  0  0  0  0  0  0  0
    5.5860   -0.1956   -1.3729 C   0  0  0  0  0  0  0  0  0  0  0  0
    6.0333    1.0949   -1.0653 C   0  0  0  0  0  0  0  0  0  0  0  0
    5.1225    2.1265   -0.8040 C   0  0  0  0  0  0  0  0  0  0  0  0
    3.7409    1.8854   -0.8448 C   0  0  0  0  0  0  0  0  0  0  0  0
    3.2915    0.6051   -1.1491 C   0  0  0  0  0  0  0  0  0  0  0  0
    1.0300    0.8017   -2.3038 C   0  0  0  0  0  0  0  0  0  0  0  0
    2.8756    0.1036    1.1010 H   0  0  0  0  0  0  0  0  0  0  0  0
    1.5348    0.7629    4.5417 H   0  0  0  0  0  0  0  0  0  0  0  0
    1.6830    1.9260    3.1938 H   0  0  0  0  0  0  0  0  0  0  0  0
    3.0270    0.8255    3.5727 H   0  0  0  0  0  0  0  0  0  0  0  0
   -0.0188   -2.2123    1.5699 H   0  0  0  0  0  0  0  0  0  0  0  0
    0.2447   -4.6326    2.0913 H   0  0  0  0  0  0  0  0  0  0  0  0
    1.9282   -5.3698    3.7816 H   0  0  0  0  0  0  0  0  0  0  0  0
    3.3313   -3.6686    4.9459 H   0  0  0  0  0  0  0  0  0  0  0  0
    3.0635   -1.2676    4.4300 H   0  0  0  0  0  0  0  0  0  0  0  0
    1.3026   -2.0909   -1.7667 H   0  0  0  0  0  0  0  0  0  0  0  0
    3.8911   -2.6212   -1.9432 H   0  0  0  0  0  0  0  0  0  0  0  0
    6.3000   -0.9974   -1.5766 H   0  0  0  0  0  0  0  0  0  0  0  0
    7.1058    1.3009   -1.0288 H   0  0  0  0  0  0  0  0  0  0  0  0
    5.4913    3.1273   -0.5675 H   0  0  0  0  0  0  0  0  0  0  0  0
    3.0331    2.6906   -0.6324 H   0  0  0  0  0  0  0  0  0  0  0  0
    1.5045    0.7239   -3.2924 H   0  0  0  0  0  0  0  0  0  0  0  0
    0.9283    1.8666   -2.0443 H   0  0  0  0  0  0  0  0  0  0  0  0
    0.0236    0.3643   -2.3386 H   0  0  0  0  0  0  0  0  0  0  0  0
  1  2  2  0
  2  3  1  0
 13  2  1  1
  3  4  1  0
  3 23  1  0
  4  5  1  6
  4  6  1  0
  4  7  1  0
  6 24  1  0
  6 25  1  0
  6 26  1  0
  7  8  2  0
  7 12  1  0
  8  9  1  0
  8 27  1  0
  9 10  2  0
  9 28  1  0
 10 11  1  0
 10 29  1  0
 11 12  2  0
 11 30  1  0
 12 31  1  0
 13 14  1  0
 13 21  1  0
 13 22  1  0
 14 15  2  0
 14 32  1  0
 15 16  1  0
 15 33  1  0
 16 17  1  0
 16 21  2  0
 17 18  2  0
 17 34  1  0
 18 19  1  0
 18 35  1  0
 19 20  2  0
 19 36  1  0
 20 21  1  0
 20 37  1  0
 22 38  1  0
 22 39  1  0
 22 40  1  0
M  END

