40

O          0.02100       -0.60010       -0.15590
C          1.14630       -0.14380       -0.06710
N          1.70210        0.24550        1.11140
C          1.06490       -0.01700        2.38930
H         -0.01800        0.08670        2.22120
C          1.52500        1.02950        3.40900
C          1.31390       -1.43560        2.89370
C          0.45960       -1.98240        3.86160
C          0.68620       -3.25970        4.37640
C          1.77460       -4.01370        3.92620
C          2.62650       -3.48020        2.95700
C          2.39710       -2.19980        2.44410
C          2.07310       -0.03960       -1.31230
C          2.76120       -1.39370       -1.44280
C          4.10130       -1.27480       -1.33750
C          4.45500        0.13580       -1.14000
C          5.69160        0.76700       -0.97630
C          5.72000        2.15640       -0.80640
C          4.53460        2.90270       -0.80060
C          3.29280        2.27050       -0.96400
C          3.25850        0.89010       -1.13080
C          1.22020        0.30450       -2.54350
H          2.65320        0.59540        1.10070
H          1.03290        0.86860        4.37850
H          1.28900        2.04540        3.05640
H          2.61280        0.95650        3.57450
H         -0.40030       -1.40260        4.20950
H          0.00640       -3.67240        5.12600
H          1.95170       -5.01570        4.32440
H          3.47430       -4.06500        2.59120
H          3.05690       -1.80110        1.67140
H          2.19210       -2.31330       -1.58180
H          4.82520       -2.08960       -1.39150
H          6.61890        0.18890       -0.98190
H          6.67810        2.66580       -0.67770
H          4.57800        3.98640       -0.66930
H          2.36950        2.85510       -0.95160
H          1.83230        0.26110       -3.45570
H          0.79870        1.31700       -2.44940
H          0.38490       -0.40380       -2.62160
