40
rmsd212.gzmat
O          0.00000        0.00000        0.00000
C          1.21270        0.00000        0.00000
N          1.93510        0.00000        1.17330
C          1.25710       -0.14390        2.46970
H          0.16090        0.08530        2.31970
C          1.84330        0.86070        3.47120
C          1.42870       -1.56700        2.96340
C          0.30360       -2.38070        3.09980
C          0.44320       -3.69640        3.53680
C          1.70690       -4.20440        3.83260
C          2.83220       -3.39430        3.68960
C          2.69470       -2.07740        3.25620
C          2.03920       -0.00700       -1.29030
C          2.59230       -1.41560       -1.49510
C          3.94050       -1.40920       -1.48280
C          4.42300       -0.03830       -1.28420
C          5.70810        0.46630       -1.20190
C          5.86800        1.84400       -1.01120
C          4.76420        2.68690       -0.90780
C          3.46060        2.17980       -0.98790
C          3.30130        0.82210       -1.17340
C          1.17290        0.43520       -2.46050
H          2.94150       -0.05880        1.17240
H          1.36300        0.75250        4.45110
H          1.68350        1.89180        3.13010
H          2.92020        0.72510        3.61630
H         -0.68530       -1.99330        2.85570
H         -0.43580       -4.32910        3.64270
H          1.81460       -5.23200        4.17290
H          3.81960       -3.78980        3.91710
H          3.57740       -1.45140        3.14650
H          1.92280       -2.24460       -1.62320
H          4.60730       -2.24310       -1.60180
H          6.57250       -0.18600       -1.28500
H          6.87190        2.26050       -0.94540
H          4.91240        3.75580       -0.76400
H          2.60230        2.84230       -0.90410
H          1.73450        0.42340       -3.40200
H          0.78710        1.45210       -2.30780
H          0.29640       -0.22050       -2.57460
