40

O         -0.13670       -0.29880        0.03650
C          1.05010       -0.01070        0.05040
N          1.75370        0.21510        1.18840
C          1.19810       -0.01260        2.52200
H          0.10840        0.01350        2.37840
C          1.60610        1.12660        3.45160
C          1.56330       -1.41220        3.00770
C          0.94090       -2.51400        2.39520
C          1.27320       -3.81650        2.76620
C          2.23380       -4.04260        3.75850
C          2.85490       -2.95540        4.37450
C          2.52080       -1.64860        4.00140
C          1.86960        0.05480       -1.26910
C          2.35080       -1.36540       -1.54520
C          3.69790       -1.43060       -1.56810
C          4.25840       -0.09620       -1.32550
C          5.57960        0.35430       -1.24970
C          5.81380        1.71190       -1.00030
C          4.74760        2.60410       -0.82930
C          3.42120        2.15320       -0.90400
C          3.18320        0.80550       -1.15070
C          0.96870        0.59540       -2.39090
H          2.75520        0.35570        1.10840
H          1.19730        0.97640        4.46160
H          1.22920        2.08190        3.05860
H          2.70180        1.20930        3.53880
H          0.19220       -2.33380        1.62000
H          0.77720       -4.66170        2.28230
H          2.49300       -5.06290        4.05150
H          3.60400       -3.12100        5.15290
H          3.01660       -0.81260        4.49780
H          1.65130       -2.19060       -1.68150
H          4.29510       -2.32760       -1.73920
H          6.41420       -0.33830       -1.38290
H          6.84050        2.08090       -0.93850
H          4.95110        3.66020       -0.63720
H          2.59170        2.85050       -0.76180
H          1.49080        0.54080       -3.35680
H          0.69680        1.64400       -2.19570
H          0.04200        0.00830       -2.43500
