rmsd146.gzmat
 OpenBabel08211713403D

 46 48  0  0  0  0  0  0  0  0999 V2000
    0.0000    0.0000    0.0000 C   0  0  0  0  0  0  0  0  0  0  0  0
    1.4217    0.0000    0.0000 O   0  0  0  0  0  0  0  0  0  0  0  0
    2.0344    0.0000    1.2182 C   0  0  0  0  0  0  0  0  0  0  0  0
    3.4429   -0.0891    1.1898 C   0  0  0  0  0  0  0  0  0  0  0  0
    4.1584   -0.0747    2.3889 C   0  0  0  0  0  0  0  0  0  0  0  0
    3.4847    0.0172    3.6050 C   0  0  0  0  0  0  0  0  0  0  0  0
    2.0940    0.0908    3.6300 C   0  0  0  0  0  0  0  0  0  0  0  0
    1.3695    0.0914    2.4344 C   0  0  0  0  0  0  0  0  0  0  0  0
    1.3617    0.1808    4.9341 C   0  0  0  0  0  0  0  0  0  0  0  0
    0.1860   -0.7607    4.9830 C   0  0  0  0  0  0  0  0  0  0  0  0
    0.3556   -2.1811    4.9376 C   0  0  0  0  0  0  0  0  0  0  0  0
    1.6258   -2.7999    4.7766 C   0  0  0  0  0  0  0  0  0  0  0  0
    1.7303   -4.1624    4.7439 C   0  0  0  0  0  0  0  0  0  0  0  0
    0.5532   -4.9846    4.9144 C   0  0  0  0  0  0  0  0  0  0  0  0
   -0.6794   -4.4036    5.0481 C   0  0  0  0  0  0  0  0  0  0  0  0
   -0.8007   -2.9841    5.0469 C   0  0  0  0  0  0  0  0  0  0  0  0
   -2.0645   -2.3515    5.1574 C   0  0  0  0  0  0  0  0  0  0  0  0
   -2.1220   -0.9739    5.1680 C   0  0  0  0  0  0  0  0  0  0  0  0
   -1.0089   -0.1872    5.0890 N   0  0  0  0  0  0  0  0  0  0  0  0
    0.8275   -6.3104    4.9187 O   0  0  0  0  0  0  0  0  0  0  0  0
   -0.2638   -7.1858    5.1824 C   0  0  0  0  0  0  0  0  0  0  0  0
    2.8696   -4.8799    4.5696 O   0  0  0  0  0  0  0  0  0  0  0  0
    4.0421   -4.1279    4.2708 C   0  0  0  0  0  0  0  0  0  0  0  0
    4.2526   -0.1837    0.1016 O   0  0  0  0  0  0  0  0  0  0  0  0
    3.6436   -0.2534   -1.1799 C   0  0  0  0  0  0  0  0  0  0  0  0
   -0.3931    0.9079    0.4688 H   0  0  0  0  0  0  0  0  0  0  0  0
   -0.3910   -0.9006    0.4847 H   0  0  0  0  0  0  0  0  0  0  0  0
   -0.2297   -0.0081   -1.0735 H   0  0  0  0  0  0  0  0  0  0  0  0
    5.2450   -0.1334    2.3574 H   0  0  0  0  0  0  0  0  0  0  0  0
    4.0550    0.0373    4.5307 H   0  0  0  0  0  0  0  0  0  0  0  0
    0.2836    0.1641    2.4775 H   0  0  0  0  0  0  0  0  0  0  0  0
    1.0124    1.2337    5.0834 H   0  0  0  0  0  0  0  0  0  0  0  0
    2.0290   -0.0237    5.7992 H   0  0  0  0  0  0  0  0  0  0  0  0
    2.5027   -2.1630    4.6645 H   0  0  0  0  0  0  0  0  0  0  0  0
   -1.5828   -4.9950    5.1588 H   0  0  0  0  0  0  0  0  0  0  0  0
   -2.9634   -2.9540    5.2302 H   0  0  0  0  0  0  0  0  0  0  0  0
   -3.0640   -0.4229    5.2472 H   0  0  0  0  0  0  0  0  0  0  0  0
   -0.7061   -6.9810    6.1626 H   0  0  0  0  0  0  0  0  0  0  0  0
    0.2298   -8.1678    5.1815 H   0  0  0  0  0  0  0  0  0  0  0  0
   -1.0104   -7.1310    4.3844 H   0  0  0  0  0  0  0  0  0  0  0  0
    3.9063   -3.5188    3.3697 H   0  0  0  0  0  0  0  0  0  0  0  0
    4.7796   -4.9204    4.0873 H   0  0  0  0  0  0  0  0  0  0  0  0
    4.3395   -3.5167    5.1284 H   0  0  0  0  0  0  0  0  0  0  0  0
    4.5132   -0.3518   -1.8426 H   0  0  0  0  0  0  0  0  0  0  0  0
    3.0941    0.6685   -1.3995 H   0  0  0  0  0  0  0  0  0  0  0  0
    2.9943   -1.1321   -1.2585 H   0  0  0  0  0  0  0  0  0  0  0  0
  1  2  1  0  0  0  0
  1 26  1  0  0  0  0
  1 27  1  0  0  0  0
  2  3  1  0  0  0  0
  3  8  1  0  0  0  0
  4  3  2  0  0  0  0
  4  5  1  0  0  0  0
  5  6  2  0  0  0  0
  6  7  1  0  0  0  0
  6 30  1  0  0  0  0
  7  9  1  0  0  0  0
  8 31  1  0  0  0  0
  8  7  2  0  0  0  0
  9 10  1  0  0  0  0
  9 32  1  0  0  0  0
  9 33  1  0  0  0  0
 10 19  2  0  0  0  0
 11 10  1  0  0  0  0
 11 16  2  0  0  0  0
 12 11  1  0  0  0  0
 13 12  2  0  0  0  0
 13 14  1  0  0  0  0
 14 20  1  0  0  0  0
 14 15  2  0  0  0  0
 15 35  1  0  0  0  0
 16 15  1  0  0  0  0
 16 17  1  0  0  0  0
 17 18  1  0  0  0  0
 17 36  1  0  0  0  0
 18 37  1  0  0  0  0
 19 18  2  0  0  0  0
 20 21  1  0  0  0  0
 21 38  1  0  0  0  0
 22 13  1  0  0  0  0
 23 22  1  0  0  0  0
 23 43  1  0  0  0  0
 24  4  1  0  0  0  0
 25 24  1  0  0  0  0
 28  1  1  0  0  0  0
 29  5  1  0  0  0  0
 34 12  1  0  0  0  0
 39 21  1  0  0  0  0
 40 21  1  0  0  0  0
 41 23  1  0  0  0  0
 42 23  1  0  0  0  0
 44 25  1  0  0  0  0
 45 25  1  0  0  0  0
 46 25  1  0  0  0  0
M  RAD  1  17   2
M  END
$$$$
