
     RDKit          3D

 46 48  0  0  0  0  0  0  0  0999 V2000
   -0.0791    0.2126   -0.1088 C   0  0  0  0  0  0  0  0  0  0  0  0
    1.3297    0.1526   -0.1371 O   0  0  0  0  0  0  0  0  0  0  0  0
    2.0052    0.0911    1.0386 C   0  0  0  0  0  0  0  0  0  0  0  0
    3.4204    0.1020    0.9530 C   0  0  0  0  0  0  0  0  0  0  0  0
    4.1679    0.0737    2.1282 C   0  0  0  0  0  0  0  0  0  0  0  0
    3.5445    0.0442    3.3811 C   0  0  0  0  0  0  0  0  0  0  0  0
    2.1512    0.0241    3.4742 C   0  0  0  0  0  0  0  0  0  0  0  0
    1.3918    0.0419    2.2935 C   0  0  0  0  0  0  0  0  0  0  0  0
    1.4507    0.0128    4.8196 C   0  0  0  0  0  0  0  0  0  0  0  0
    0.2527    0.9366    4.9075 C   0  0  0  0  0  0  0  0  0  0  0  0
    0.3983    2.3532    4.7366 C   0  0  0  0  0  0  0  0  0  0  0  0
    1.6437    2.9742    4.4470 C   0  0  0  0  0  0  0  0  0  0  0  0
    1.7331    4.3393    4.2582 C   0  0  0  0  0  0  0  0  0  0  0  0
    0.5598    5.1602    4.4002 C   0  0  0  0  0  0  0  0  0  0  0  0
   -0.6521    4.5693    4.6811 C   0  0  0  0  0  0  0  0  0  0  0  0
   -0.7733    3.1628    4.8399 C   0  0  0  0  0  0  0  0  0  0  0  0
   -2.0072    2.5136    5.0994 C   0  0  0  0  0  0  0  0  0  0  0  0
   -2.0251    1.1427    5.2310 C   0  0  0  0  0  0  0  0  0  0  0  0
   -0.9179    0.3681    5.1348 N   0  0  0  0  0  0  0  0  0  0  0  0
    0.6085    6.5016    4.1898 O   0  0  0  0  0  0  0  0  0  0  0  0
    1.4223    7.2765    5.0604 C   0  0  0  0  0  0  0  0  0  0  0  0
    2.8684    4.9882    3.9081 O   0  0  0  0  0  0  0  0  0  0  0  0
    4.0260    4.2217    3.6430 C   0  0  0  0  0  0  0  0  0  0  0  0
    4.0685    0.1995   -0.2438 O   0  0  0  0  0  0  0  0  0  0  0  0
    3.9203   -0.8866   -1.1454 C   0  0  0  0  0  0  0  0  0  0  0  0
   -0.4365    1.0970    0.4473 H   0  0  0  0  0  0  0  0  0  0  0  0
   -0.5194   -0.6927    0.3458 H   0  0  0  0  0  0  0  0  0  0  0  0
   -0.4094    0.2864   -1.1531 H   0  0  0  0  0  0  0  0  0  0  0  0
    5.2557    0.0887    2.0350 H   0  0  0  0  0  0  0  0  0  0  0  0
    4.1515    0.0373    4.2902 H   0  0  0  0  0  0  0  0  0  0  0  0
    0.3052    0.0409    2.3736 H   0  0  0  0  0  0  0  0  0  0  0  0
    2.1810    0.2700    5.6048 H   0  0  0  0  0  0  0  0  0  0  0  0
    1.0746   -0.9964    5.0463 H   0  0  0  0  0  0  0  0  0  0  0  0
    2.5257    2.3541    4.3232 H   0  0  0  0  0  0  0  0  0  0  0  0
   -1.5298    5.2127    4.7664 H   0  0  0  0  0  0  0  0  0  0  0  0
   -2.9263    3.0977    5.1865 H   0  0  0  0  0  0  0  0  0  0  0  0
   -2.9645    0.6132    5.4231 H   0  0  0  0  0  0  0  0  0  0  0  0
    1.1084    7.1433    6.1115 H   0  0  0  0  0  0  0  0  0  0  0  0
    1.2720    8.3264    4.7745 H   0  0  0  0  0  0  0  0  0  0  0  0
    2.4871    7.0191    4.9625 H   0  0  0  0  0  0  0  0  0  0  0  0
    4.3742    3.6873    4.5446 H   0  0  0  0  0  0  0  0  0  0  0  0
    4.8010    4.9289    3.3212 H   0  0  0  0  0  0  0  0  0  0  0  0
    3.8468    3.4827    2.8431 H   0  0  0  0  0  0  0  0  0  0  0  0
    4.5642   -0.6694   -2.0091 H   0  0  0  0  0  0  0  0  0  0  0  0
    2.8792   -0.9964   -1.4859 H   0  0  0  0  0  0  0  0  0  0  0  0
    4.2517   -1.8338   -0.6816 H   0  0  0  0  0  0  0  0  0  0  0  0
  1  2  1  0
  1 26  1  0
  1 27  1  0
  1 28  1  0
  2  3  1  0
  3  4  2  0
  3  8  1  0
  4  5  1  0
  4 24  1  0
  5  6  2  0
  5 29  1  0
  6  7  1  0
  6 30  1  0
  7  8  2  0
  7  9  1  0
  8 31  1  0
  9 10  1  0
  9 32  1  0
  9 33  1  0
 10 11  1  0
 10 19  2  0
 11 12  2  0
 11 16  1  0
 12 13  1  0
 12 34  1  0
 13 14  2  0
 13 22  1  0
 14 15  1  0
 14 20  1  0
 15 16  2  0
 15 35  1  0
 16 17  1  0
 17 18  2  0
 17 36  1  0
 18 19  1  0
 18 37  1  0
 20 21  1  0
 21 38  1  0
 21 39  1  0
 21 40  1  0
 22 23  1  0
 23 41  1  0
 23 42  1  0
 23 43  1  0
 24 25  1  0
 25 44  1  0
 25 45  1  0
 25 46  1  0
M  END

