46
rmsd207.gzmat
C          0.00000        0.00000        0.00000
O          1.42050        0.00000        0.00000
C          2.05810        0.00000        1.20120
C          1.50720       -0.28910        2.46640
C          2.32600       -0.29880        3.59110
C          3.68750       -0.02740        3.46400
C          4.23850        0.25260        2.21480
C          3.42120        0.27870        1.08280
C          5.70440        0.52860        2.07650
C          6.54630       -0.47270        2.82500
C          6.47100       -1.87930        2.55810
C          5.61130       -2.43670        1.57700
C          5.54290       -3.79330        1.39920
C          6.36700       -4.66830        2.18410
C          7.22330       -4.13850        3.12460
C          7.28960       -2.73650        3.32750
C          8.16050       -2.16770        4.29380
C          8.16950       -0.80100        4.45910
N          7.36540        0.03700        3.73710
O          6.41870       -6.01990        2.11920
C          5.57180       -6.69130        1.19630
O          4.74010       -4.42400        0.49790
C          3.77520       -3.61660       -0.16870
O          0.16910       -0.56250        2.47100
C         -0.45530       -0.66900        3.74310
H         -0.40200        0.80770        0.61870
H         -0.37870       -0.97510        0.32640
H         -0.23160        0.17230       -1.05900
H          1.92070       -0.52390        4.57420
H          4.32600       -0.04120        4.34780
H          3.82620        0.51770        0.10100
H          5.91800        1.56110        2.45340
H          6.02340        0.54550        1.01160
H          5.00150       -1.76090        0.97760
H          7.84980       -4.79870        3.72240
H          8.80360       -2.81400        4.88240
H          8.81980       -0.29620        5.17980
H          4.51720       -6.50650        1.42640
H          5.82820       -7.74360        1.37730
H          5.81350       -6.40580        0.16670
H          3.11240       -3.11840        0.54780
H          3.21840       -4.35820       -0.75520
H          4.26340       -2.89330       -0.82910
H         -1.51000       -0.81080        3.47190
H         -0.33040        0.25010        4.32450
H         -0.08070       -1.54190        4.28740
