46
rmsd106.gzmat
C          0.00000        0.00000        0.00000
O          1.42200        0.00000        0.00000
C          2.03580        0.00000        1.21730
C          3.44730        0.01380        1.18500
C          4.16380        0.02210        2.38330
C          3.48880        0.00560        3.60220
C          2.09670       -0.02210        3.63100
C          1.36990       -0.01320        2.43620
C          1.36250       -0.05300        4.93670
C          0.28110       -1.10300        4.94780
C          0.58220       -2.49880        4.82280
C          1.89880       -2.99050        4.63100
C          2.12940       -4.33600        4.51660
C          1.04360       -5.26890        4.62490
C         -0.24250       -4.80280        4.78990
C         -0.49530       -3.41100        4.88530
C         -1.81160       -2.90510        5.05240
C         -1.99450       -1.54390        5.14700
N         -0.95870       -0.65170        5.09720
O          1.12100       -6.61960        4.56630
C          2.40720       -7.22540        4.56150
O          3.35050       -4.90350        4.31170
C          4.40540       -4.01920        3.94840
O          4.25810        0.02530        0.09370
C          3.65110       -0.00180       -1.19010
H         -0.39120        0.90660        0.47260
H         -0.39290       -0.90230        0.48080
H         -0.22940       -0.00470       -1.07360
H          5.25150        0.04600        2.34990
H          4.06050        0.02000        4.52710
H          0.28180       -0.01920        2.48310
H          0.91360        0.95500        5.12560
H          2.04730       -0.22500        5.79480
H          2.71510       -2.27180        4.56210
H         -1.07210       -5.50570        4.85140
H         -2.64820       -3.59440        5.10610
H         -2.98060       -1.08680        5.27340
H          2.92440       -7.01820        3.61850
H          2.15640       -8.29170        4.64150
H          3.00220       -6.90510        5.42300
H          4.14610       -3.43520        3.05750
H          5.22360       -4.71570        3.72590
H          4.67160       -3.36930        4.78770
H          4.52310       -0.00070       -1.85670
H          3.04000        0.89290       -1.35180
H          3.06250       -0.91550       -1.32530
