46

C          0.01320        0.60010       -0.06230
O          1.00470       -0.37610        0.21990
C          1.80930       -0.15110        1.30090
C          1.30190       -0.13750        2.62140
C          2.19610        0.02870        3.68640
C          3.56940        0.15080        3.45260
C          4.08400        0.12550        2.15380
C          3.18040       -0.01000        1.09110
C          5.57970        0.19370        1.91070
C          6.36080       -0.83800        2.70140
C          6.19860       -2.24010        2.44600
C          5.30930       -2.75080        1.46230
C          5.15760       -4.11000        1.27120
C          5.94410       -5.03220        2.04640
C          6.81260       -4.54920        3.00000
C          6.95500       -3.15580        3.23820
C          7.81690       -2.62000        4.22890
C          7.88190       -1.25350        4.38830
N          7.16700       -0.37840        3.64100
O          5.79580       -6.37600        1.90590
C          6.12530       -6.94590        0.64640
O          4.27900       -4.66520        0.40360
C          3.42030       -3.81120       -0.32650
O         -0.03960       -0.31130        2.75940
C         -0.58930       -0.35100        4.05570
H          0.47040        1.59560       -0.20990
H         -0.73800        0.66280        0.73960
H         -0.47610        0.29160       -0.99670
H          1.82970        0.04270        4.71270
H          4.25200        0.25250        4.29940
H          3.53010       -0.03410        0.05590
H          5.97520        1.17500        2.21100
H          5.77760        0.07470        0.83310
H          4.70300       -2.05930        0.88800
H          7.38610       -5.27090        3.58470
H          8.41300       -3.28700        4.85600
H          8.53370       -0.81170        5.14970
H          5.46020       -6.58590       -0.15240
H          6.00970       -8.03280        0.75630
H          7.17380       -6.72300        0.37770
H          2.80040       -3.18760        0.34000
H          2.76990       -4.46160       -0.92490
H          3.98800       -3.14680       -1.00190
H         -1.66820       -0.51440        3.93370
H         -0.42890        0.59720        4.59990
H         -0.16570       -1.17780        4.65330
