rmsd207.gzmat
 OpenBabel08211713403D

 46 48  0  0  0  0  0  0  0  0999 V2000
    0.0000    0.0000    0.0000 C   0  0  0  0  0  0  0  0  0  0  0  0
    1.4205    0.0000    0.0000 O   0  0  0  0  0  0  0  0  0  0  0  0
    2.0581    0.0000    1.2012 C   0  0  0  0  0  0  0  0  0  0  0  0
    1.5072   -0.2891    2.4664 C   0  0  0  0  0  0  0  0  0  0  0  0
    2.3260   -0.2988    3.5911 C   0  0  0  0  0  0  0  0  0  0  0  0
    3.6875   -0.0274    3.4640 C   0  0  0  0  0  0  0  0  0  0  0  0
    4.2385    0.2526    2.2148 C   0  0  0  0  0  0  0  0  0  0  0  0
    3.4212    0.2787    1.0828 C   0  0  0  0  0  0  0  0  0  0  0  0
    5.7044    0.5286    2.0765 C   0  0  0  0  0  0  0  0  0  0  0  0
    6.5463   -0.4727    2.8250 C   0  0  0  0  0  0  0  0  0  0  0  0
    6.4710   -1.8793    2.5581 C   0  0  0  0  0  0  0  0  0  0  0  0
    5.6113   -2.4367    1.5770 C   0  0  0  0  0  0  0  0  0  0  0  0
    5.5429   -3.7933    1.3992 C   0  0  0  0  0  0  0  0  0  0  0  0
    6.3670   -4.6683    2.1841 C   0  0  0  0  0  0  0  0  0  0  0  0
    7.2233   -4.1385    3.1246 C   0  0  0  0  0  0  0  0  0  0  0  0
    7.2896   -2.7365    3.3275 C   0  0  0  0  0  0  0  0  0  0  0  0
    8.1605   -2.1677    4.2938 C   0  0  0  0  0  0  0  0  0  0  0  0
    8.1695   -0.8010    4.4591 C   0  0  0  0  0  0  0  0  0  0  0  0
    7.3654    0.0370    3.7371 N   0  0  0  0  0  0  0  0  0  0  0  0
    6.4187   -6.0199    2.1192 O   0  0  0  0  0  0  0  0  0  0  0  0
    5.5718   -6.6913    1.1963 C   0  0  0  0  0  0  0  0  0  0  0  0
    4.7401   -4.4240    0.4979 O   0  0  0  0  0  0  0  0  0  0  0  0
    3.7752   -3.6166   -0.1687 C   0  0  0  0  0  0  0  0  0  0  0  0
    0.1691   -0.5625    2.4710 O   0  0  0  0  0  0  0  0  0  0  0  0
   -0.4553   -0.6690    3.7431 C   0  0  0  0  0  0  0  0  0  0  0  0
   -0.4020    0.8077    0.6187 H   0  0  0  0  0  0  0  0  0  0  0  0
   -0.3787   -0.9751    0.3264 H   0  0  0  0  0  0  0  0  0  0  0  0
   -0.2316    0.1723   -1.0590 H   0  0  0  0  0  0  0  0  0  0  0  0
    1.9207   -0.5239    4.5742 H   0  0  0  0  0  0  0  0  0  0  0  0
    4.3260   -0.0412    4.3478 H   0  0  0  0  0  0  0  0  0  0  0  0
    3.8262    0.5177    0.1010 H   0  0  0  0  0  0  0  0  0  0  0  0
    5.9180    1.5611    2.4534 H   0  0  0  0  0  0  0  0  0  0  0  0
    6.0234    0.5455    1.0116 H   0  0  0  0  0  0  0  0  0  0  0  0
    5.0015   -1.7609    0.9776 H   0  0  0  0  0  0  0  0  0  0  0  0
    7.8498   -4.7987    3.7224 H   0  0  0  0  0  0  0  0  0  0  0  0
    8.8036   -2.8140    4.8824 H   0  0  0  0  0  0  0  0  0  0  0  0
    8.8198   -0.2962    5.1798 H   0  0  0  0  0  0  0  0  0  0  0  0
    4.5172   -6.5065    1.4264 H   0  0  0  0  0  0  0  0  0  0  0  0
    5.8282   -7.7436    1.3773 H   0  0  0  0  0  0  0  0  0  0  0  0
    5.8135   -6.4058    0.1667 H   0  0  0  0  0  0  0  0  0  0  0  0
    3.1124   -3.1184    0.5478 H   0  0  0  0  0  0  0  0  0  0  0  0
    3.2184   -4.3582   -0.7552 H   0  0  0  0  0  0  0  0  0  0  0  0
    4.2634   -2.8933   -0.8291 H   0  0  0  0  0  0  0  0  0  0  0  0
   -1.5100   -0.8108    3.4719 H   0  0  0  0  0  0  0  0  0  0  0  0
   -0.3304    0.2501    4.3245 H   0  0  0  0  0  0  0  0  0  0  0  0
   -0.0807   -1.5419    4.2874 H   0  0  0  0  0  0  0  0  0  0  0  0
  1 27  1  0  0  0  0
  1 26  1  0  0  0  0
  2  1  1  0  0  0  0
  2  3  1  0  0  0  0
  3  4  1  0  0  0  0
  4 24  1  0  0  0  0
  4  5  2  0  0  0  0
  5 29  1  0  0  0  0
  6  5  1  0  0  0  0
  6 30  1  0  0  0  0
  7  6  2  0  0  0  0
  8  3  2  0  0  0  0
  8  7  1  0  0  0  0
  9  7  1  0  0  0  0
  9 32  1  0  0  0  0
  9 10  1  0  0  0  0
 10 19  2  0  0  0  0
 11 10  1  0  0  0  0
 11 16  2  0  0  0  0
 12 11  1  0  0  0  0
 13 12  2  0  0  0  0
 13 14  1  0  0  0  0
 14 15  2  0  0  0  0
 15 16  1  0  0  0  0
 15 35  1  0  0  0  0
 16 17  1  0  0  0  0
 17 18  1  0  0  0  0
 17 36  1  0  0  0  0
 18 37  1  0  0  0  0
 19 18  2  0  0  0  0
 20 14  1  0  0  0  0
 21 39  1  0  0  0  0
 21 38  1  0  0  0  0
 21 20  1  0  0  0  0
 22 13  1  0  0  0  0
 23 22  1  0  0  0  0
 23 41  1  0  0  0  0
 24 25  1  0  0  0  0
 25 46  1  0  0  0  0
 25 45  1  0  0  0  0
 28  1  1  0  0  0  0
 31  8  1  0  0  0  0
 33  9  1  0  0  0  0
 34 12  1  0  0  0  0
 40 21  1  0  0  0  0
 42 23  1  0  0  0  0
 43 23  1  0  0  0  0
 44 25  1  0  0  0  0
M  RAD  1  17   2
M  END
$$$$
