46
rmsd80.gzmat
C          0.00000        0.00000        0.00000
O          1.41990        0.00000        0.00000
C          2.06320        0.00000        1.19780
C          1.49450        0.06720        2.48610
C          2.31890        0.06990        3.60680
C          3.70330        0.01700        3.45300
C          4.27120       -0.03330        2.18140
C          3.45140       -0.05790        1.05220
C          5.76120       -0.05170        2.02260
C          6.41720        1.03330        2.83810
C          6.12370        2.41920        2.63150
C          5.20570        2.87550        1.64600
C          4.92420        4.20780        1.52680
C          5.58470        5.16730        2.38270
C          6.49280        4.74680        3.31710
C          6.77360        3.35770        3.46230
C          7.69340        2.89080        4.43440
C          7.91750        1.53480        4.54290
N          7.28320        0.61630        3.75670
O          5.20560        6.44510        2.14270
C          5.81800        7.45010        2.94350
O          4.05740        4.77420        0.64870
C          3.33040        3.87490       -0.18250
O          0.12940        0.11450        2.51960
C         -0.47220        0.29760        3.79350
H         -0.38830        0.92410        0.44180
H         -0.39260       -0.88260        0.51590
H         -0.23000       -0.04650       -1.07260
H          1.89940        0.11480        4.60850
H          4.34570        0.02280        4.33370
H          3.87260       -0.12070        0.05080
H          6.06880        0.05200        0.96000
H          6.15140       -1.05250        2.33630
H          4.72570        2.13900        1.00290
H          7.01380        5.44440        3.96510
H          8.20520        3.59950        5.07600
H          8.61520        1.10800        5.26990
H          5.57130        7.31370        4.00090
H          5.35030        8.36500        2.55460
H          6.90050        7.47430        2.78290
H          4.00350        3.31650       -0.84020
H          2.70390        4.56180       -0.76590
H          2.70620        3.20100        0.41490
H         -1.53910        0.35120        3.54010
H         -0.14140        1.23330        4.25530
H         -0.27820       -0.56130        4.44330
