rmsd173.gzmat
 OpenBabel08211713403D

 46 48  0  0  0  0  0  0  0  0999 V2000
    0.0000    0.0000    0.0000 C   0  0  0  0  0  0  0  0  0  0  0  0
    1.4220    0.0000    0.0000 O   0  0  0  0  0  0  0  0  0  0  0  0
    2.0328    0.0000    1.2181 C   0  0  0  0  0  0  0  0  0  0  0  0
    3.4406    0.0948    1.1860 C   0  0  0  0  0  0  0  0  0  0  0  0
    4.1601    0.0996    2.3811 C   0  0  0  0  0  0  0  0  0  0  0  0
    3.4895    0.0164    3.5995 C   0  0  0  0  0  0  0  0  0  0  0  0
    2.0998   -0.0785    3.6290 C   0  0  0  0  0  0  0  0  0  0  0  0
    1.3710   -0.0951    2.4361 C   0  0  0  0  0  0  0  0  0  0  0  0
    1.3840   -0.1788    4.9402 C   0  0  0  0  0  0  0  0  0  0  0  0
    0.1377    0.6659    4.9983 C   0  0  0  0  0  0  0  0  0  0  0  0
    0.1700    2.0873    4.8325 C   0  0  0  0  0  0  0  0  0  0  0  0
    1.3548    2.8021    4.5044 C   0  0  0  0  0  0  0  0  0  0  0  0
    1.3221    4.1599    4.3495 C   0  0  0  0  0  0  0  0  0  0  0  0
    0.0919    4.8863    4.5706 C   0  0  0  0  0  0  0  0  0  0  0  0
   -1.0602    4.2119    4.8749 C   0  0  0  0  0  0  0  0  0  0  0  0
   -1.0433    2.7926    4.9927 C   0  0  0  0  0  0  0  0  0  0  0  0
   -2.2278    2.0657    5.2709 C   0  0  0  0  0  0  0  0  0  0  0  0
   -2.1575    0.6930    5.3777 C   0  0  0  0  0  0  0  0  0  0  0  0
   -0.9869    0.0024    5.2508 N   0  0  0  0  0  0  0  0  0  0  0  0
    0.2335    6.2262    4.4404 O   0  0  0  0  0  0  0  0  0  0  0  0
   -0.9258    7.0148    4.6865 C   0  0  0  0  0  0  0  0  0  0  0  0
    2.3664    4.9577    4.0087 O   0  0  0  0  0  0  0  0  0  0  0  0
    3.5337    4.2915    3.5367 C   0  0  0  0  0  0  0  0  0  0  0  0
    4.2303    0.2425    0.0874 O   0  0  0  0  0  0  0  0  0  0  0  0
    3.6876   -0.1520   -1.1655 C   0  0  0  0  0  0  0  0  0  0  0  0
   -0.3927    0.8828    0.5157 H   0  0  0  0  0  0  0  0  0  0  0  0
   -0.3906   -0.9240    0.4373 H   0  0  0  0  0  0  0  0  0  0  0  0
   -0.2302    0.0461   -1.0721 H   0  0  0  0  0  0  0  0  0  0  0  0
    5.2461    0.1678    2.3457 H   0  0  0  0  0  0  0  0  0  0  0  0
    4.0612    0.0184    4.5245 H   0  0  0  0  0  0  0  0  0  0  0  0
    0.2867   -0.1793    2.4814 H   0  0  0  0  0  0  0  0  0  0  0  0
    2.0434    0.1008    5.7915 H   0  0  0  0  0  0  0  0  0  0  0  0
    1.1204   -1.2522    5.1235 H   0  0  0  0  0  0  0  0  0  0  0  0
    2.2798    2.2431    4.3641 H   0  0  0  0  0  0  0  0  0  0  0  0
   -2.0022    4.7278    5.0318 H   0  0  0  0  0  0  0  0  0  0  0  0
   -3.1671    2.5932    5.3946 H   0  0  0  0  0  0  0  0  0  0  0  0
   -3.0348    0.0706    5.5785 H   0  0  0  0  0  0  0  0  0  0  0  0
   -1.6992    6.8131    3.9390 H   0  0  0  0  0  0  0  0  0  0  0  0
   -0.5341    8.0348    4.5704 H   0  0  0  0  0  0  0  0  0  0  0  0
   -1.2993    6.8629    5.7040 H   0  0  0  0  0  0  0  0  0  0  0  0
    4.0098    3.7220    4.3402 H   0  0  0  0  0  0  0  0  0  0  0  0
    4.1682    5.1346    3.2331 H   0  0  0  0  0  0  0  0  0  0  0  0
    3.3073    3.6551    2.6739 H   0  0  0  0  0  0  0  0  0  0  0  0
    4.5750   -0.1597   -1.8111 H   0  0  0  0  0  0  0  0  0  0  0  0
    2.9628    0.5932   -1.5118 H   0  0  0  0  0  0  0  0  0  0  0  0
    3.2374   -1.1472   -1.1159 H   0  0  0  0  0  0  0  0  0  0  0  0
  1  2  1  0  0  0  0
  1 27  1  0  0  0  0
  1 26  1  0  0  0  0
  2  3  1  0  0  0  0
  3  8  1  0  0  0  0
  4  3  2  0  0  0  0
  4  5  1  0  0  0  0
  5  6  2  0  0  0  0
  6  7  1  0  0  0  0
  6 30  1  0  0  0  0
  7  9  1  0  0  0  0
  8 31  1  0  0  0  0
  8  7  2  0  0  0  0
  9 10  1  0  0  0  0
  9 33  1  0  0  0  0
  9 32  1  0  0  0  0
 10 19  2  0  0  0  0
 11 16  2  0  0  0  0
 11 10  1  0  0  0  0
 12 11  1  0  0  0  0
 13 12  2  0  0  0  0
 13 14  1  0  0  0  0
 14 15  2  0  0  0  0
 15 16  1  0  0  0  0
 15 35  1  0  0  0  0
 16 17  1  0  0  0  0
 17 18  1  0  0  0  0
 17 36  1  0  0  0  0
 18 37  1  0  0  0  0
 19 18  2  0  0  0  0
 20 14  1  0  0  0  0
 20 21  1  0  0  0  0
 21 40  1  0  0  0  0
 22 13  1  0  0  0  0
 23 22  1  0  0  0  0
 23 41  1  0  0  0  0
 24  4  1  0  0  0  0
 25 46  1  0  0  0  0
 25 24  1  0  0  0  0
 28  1  1  0  0  0  0
 29  5  1  0  0  0  0
 34 12  1  0  0  0  0
 38 21  1  0  0  0  0
 39 21  1  0  0  0  0
 42 23  1  0  0  0  0
 43 23  1  0  0  0  0
 44 25  1  0  0  0  0
 45 25  1  0  0  0  0
M  RAD  1  17   2
M  END
$$$$
