46

C         -0.07910        0.21260       -0.10880
O          1.32970        0.15260       -0.13710
C          2.00520        0.09110        1.03860
C          3.42040        0.10200        0.95300
C          4.16790        0.07370        2.12820
C          3.54450        0.04420        3.38110
C          2.15120        0.02410        3.47420
C          1.39180        0.04190        2.29350
C          1.45070        0.01280        4.81960
C          0.25270        0.93660        4.90750
C          0.39830        2.35320        4.73660
C          1.64370        2.97420        4.44700
C          1.73310        4.33930        4.25820
C          0.55980        5.16020        4.40020
C         -0.65210        4.56930        4.68110
C         -0.77330        3.16280        4.83990
C         -2.00720        2.51360        5.09940
C         -2.02510        1.14270        5.23100
N         -0.91790        0.36810        5.13480
O          0.60850        6.50160        4.18980
C          1.42230        7.27650        5.06040
O          2.86840        4.98820        3.90810
C          4.02600        4.22170        3.64300
O          4.06850        0.19950       -0.24380
C          3.92030       -0.88660       -1.14540
H         -0.43650        1.09700        0.44730
H         -0.51940       -0.69270        0.34580
H         -0.40940        0.28640       -1.15310
H          5.25570        0.08870        2.03500
H          4.15150        0.03730        4.29020
H          0.30520        0.04090        2.37360
H          2.18100        0.27000        5.60480
H          1.07460       -0.99640        5.04630
H          2.52570        2.35410        4.32320
H         -1.52980        5.21270        4.76640
H         -2.92630        3.09770        5.18650
H         -2.96450        0.61320        5.42310
H          1.10840        7.14330        6.11150
H          1.27200        8.32640        4.77450
H          2.48710        7.01910        4.96250
H          4.37420        3.68730        4.54460
H          4.80100        4.92890        3.32120
H          3.84680        3.48270        2.84310
H          4.56420       -0.66940       -2.00910
H          2.87920       -0.99640       -1.48590
H          4.25170       -1.83380       -0.68160
