rmsd180.gzmat
 OpenBabel08211713403D

 46 48  0  0  0  0  0  0  0  0999 V2000
    0.0000    0.0000    0.0000 C   0  0  0  0  0  0  0  0  0  0  0  0
    1.4222    0.0000    0.0000 O   0  0  0  0  0  0  0  0  0  0  0  0
    2.0365    0.0000    1.2171 C   0  0  0  0  0  0  0  0  0  0  0  0
    3.4459    0.0780    1.1856 C   0  0  0  0  0  0  0  0  0  0  0  0
    4.1643    0.0722    2.3825 C   0  0  0  0  0  0  0  0  0  0  0  0
    3.4926    0.0047    3.6013 C   0  0  0  0  0  0  0  0  0  0  0  0
    2.1017   -0.0585    3.6299 C   0  0  0  0  0  0  0  0  0  0  0  0
    1.3741   -0.0757    2.4355 C   0  0  0  0  0  0  0  0  0  0  0  0
    1.3736   -0.1055    4.9381 C   0  0  0  0  0  0  0  0  0  0  0  0
    0.2073    0.8488    4.9625 C   0  0  0  0  0  0  0  0  0  0  0  0
    0.3792    2.2613    4.7863 C   0  0  0  0  0  0  0  0  0  0  0  0
    1.6427    2.8656    4.5603 C   0  0  0  0  0  0  0  0  0  0  0  0
    1.7424    4.2183    4.3693 C   0  0  0  0  0  0  0  0  0  0  0  0
    0.5732    5.0483    4.4370 C   0  0  0  0  0  0  0  0  0  0  0  0
   -0.6586    4.4752    4.6634 C   0  0  0  0  0  0  0  0  0  0  0  0
   -0.7774    3.0721    4.8286 C   0  0  0  0  0  0  0  0  0  0  0  0
   -2.0390    2.4567    5.0415 C   0  0  0  0  0  0  0  0  0  0  0  0
   -2.0941    1.0911    5.2055 C   0  0  0  0  0  0  0  0  0  0  0  0
   -0.9822    0.2948    5.1638 N   0  0  0  0  0  0  0  0  0  0  0  0
    0.5191    6.3912    4.2694 O   0  0  0  0  0  0  0  0  0  0  0  0
    1.7383    7.1226    4.2744 C   0  0  0  0  0  0  0  0  0  0  0  0
    2.9010    4.8906    4.1238 O   0  0  0  0  0  0  0  0  0  0  0  0
    4.0371    4.0972    3.7982 C   0  0  0  0  0  0  0  0  0  0  0  0
    4.2512    0.1829    0.0947 O   0  0  0  0  0  0  0  0  0  0  0  0
    3.6529    0.0533   -1.1873 C   0  0  0  0  0  0  0  0  0  0  0  0
   -0.3956    0.8762    0.5250 H   0  0  0  0  0  0  0  0  0  0  0  0
   -0.3888   -0.9306    0.4259 H   0  0  0  0  0  0  0  0  0  0  0  0
   -0.2294    0.0592   -1.0720 H   0  0  0  0  0  0  0  0  0  0  0  0
    5.2512    0.1200    2.3475 H   0  0  0  0  0  0  0  0  0  0  0  0
    4.0632   -0.0023    4.5272 H   0  0  0  0  0  0  0  0  0  0  0  0
    0.2882   -0.1430    2.4820 H   0  0  0  0  0  0  0  0  0  0  0  0
    2.0440    0.1146    5.7967 H   0  0  0  0  0  0  0  0  0  0  0  0
    1.0149   -1.1505    5.1183 H   0  0  0  0  0  0  0  0  0  0  0  0
    2.5252    2.2271    4.5278 H   0  0  0  0  0  0  0  0  0  0  0  0
   -1.5478    5.1017    4.7146 H   0  0  0  0  0  0  0  0  0  0  0  0
   -2.9342    3.0694    5.0719 H   0  0  0  0  0  0  0  0  0  0  0  0
   -3.0307    0.5531    5.3805 H   0  0  0  0  0  0  0  0  0  0  0  0
    2.3253    6.9131    5.1741 H   0  0  0  0  0  0  0  0  0  0  0  0
    1.3805    8.1608    4.2772 H   0  0  0  0  0  0  0  0  0  0  0  0
    2.3129    6.9151    3.3649 H   0  0  0  0  0  0  0  0  0  0  0  0
    4.3782    3.5355    4.6730 H   0  0  0  0  0  0  0  0  0  0  0  0
    4.7753    4.8578    3.5138 H   0  0  0  0  0  0  0  0  0  0  0  0
    3.8295    3.4312    2.9526 H   0  0  0  0  0  0  0  0  0  0  0  0
    4.5237    0.0952   -1.8542 H   0  0  0  0  0  0  0  0  0  0  0  0
    2.9744    0.8914   -1.3812 H   0  0  0  0  0  0  0  0  0  0  0  0
    3.1368   -0.9072   -1.2870 H   0  0  0  0  0  0  0  0  0  0  0  0
  1  2  1  0  0  0  0
  1 27  1  0  0  0  0
  1 26  1  0  0  0  0
  2  3  1  0  0  0  0
  3  8  1  0  0  0  0
  4  3  2  0  0  0  0
  4  5  1  0  0  0  0
  5  6  2  0  0  0  0
  6  7  1  0  0  0  0
  6 30  1  0  0  0  0
  7  9  1  0  0  0  0
  8 31  1  0  0  0  0
  8  7  2  0  0  0  0
  9 10  1  0  0  0  0
  9 33  1  0  0  0  0
  9 32  1  0  0  0  0
 10 19  2  0  0  0  0
 11 16  1  0  0  0  0
 11 10  1  0  0  0  0
 12 11  2  0  0  0  0
 13 14  2  0  0  0  0
 13 12  1  0  0  0  0
 14 15  1  0  0  0  0
 15 35  1  0  0  0  0
 15 16  2  0  0  0  0
 16 17  1  0  0  0  0
 17 36  1  0  0  0  0
 17 18  1  0  0  0  0
 18 37  1  0  0  0  0
 19 18  2  0  0  0  0
 20 21  1  0  0  0  0
 20 14  1  0  0  0  0
 21 39  1  0  0  0  0
 21 38  1  0  0  0  0
 22 13  1  0  0  0  0
 23 22  1  0  0  0  0
 23 41  1  0  0  0  0
 24  4  1  0  0  0  0
 25 24  1  0  0  0  0
 28  1  1  0  0  0  0
 29  5  1  0  0  0  0
 34 12  1  0  0  0  0
 40 21  1  0  0  0  0
 42 23  1  0  0  0  0
 43 23  1  0  0  0  0
 44 25  1  0  0  0  0
 45 25  1  0  0  0  0
 46 25  1  0  0  0  0
M  RAD  1  17   2
M  END
$$$$
