
     RDKit          3D

 46 48  0  0  0  0  0  0  0  0999 V2000
   -0.1646    0.2738    0.0988 C   0  0  0  0  0  0  0  0  0  0  0  0
    1.2440    0.3350    0.0653 O   0  0  0  0  0  0  0  0  0  0  0  0
    1.9297    0.2603    1.2344 C   0  0  0  0  0  0  0  0  0  0  0  0
    3.3427    0.3317    1.1414 C   0  0  0  0  0  0  0  0  0  0  0  0
    4.0992    0.2917    2.3105 C   0  0  0  0  0  0  0  0  0  0  0  0
    3.4873    0.1713    3.5637 C   0  0  0  0  0  0  0  0  0  0  0  0
    2.0976    0.0788    3.6625 C   0  0  0  0  0  0  0  0  0  0  0  0
    1.3283    0.1280    2.4890 C   0  0  0  0  0  0  0  0  0  0  0  0
    1.4083   -0.0918    5.0030 C   0  0  0  0  0  0  0  0  0  0  0  0
    0.3194   -1.1454    5.0033 C   0  0  0  0  0  0  0  0  0  0  0  0
    0.6280   -2.5238    4.7556 C   0  0  0  0  0  0  0  0  0  0  0  0
    1.9436   -2.9834    4.4759 C   0  0  0  0  0  0  0  0  0  0  0  0
    2.1922   -4.3162    4.2137 C   0  0  0  0  0  0  0  0  0  0  0  0
    1.1154   -5.2691    4.2638 C   0  0  0  0  0  0  0  0  0  0  0  0
   -0.1634   -4.8349    4.5338 C   0  0  0  0  0  0  0  0  0  0  0  0
   -0.4472   -3.4630    4.7698 C   0  0  0  0  0  0  0  0  0  0  0  0
   -1.7535   -2.9713    5.0216 C   0  0  0  0  0  0  0  0  0  0  0  0
   -1.9292   -1.6214    5.2313 C   0  0  0  0  0  0  0  0  0  0  0  0
   -0.9138   -0.7246    5.2205 N   0  0  0  0  0  0  0  0  0  0  0  0
    1.3228   -6.5812    3.9777 O   0  0  0  0  0  0  0  0  0  0  0  0
    2.1840   -7.3145    4.8387 C   0  0  0  0  0  0  0  0  0  0  0  0
    3.4045   -4.8140    3.8721 O   0  0  0  0  0  0  0  0  0  0  0  0
    4.4810   -3.9125    3.7164 C   0  0  0  0  0  0  0  0  0  0  0  0
    3.9793    0.4937   -0.0545 O   0  0  0  0  0  0  0  0  0  0  0  0
    3.8611   -0.5620   -0.9948 C   0  0  0  0  0  0  0  0  0  0  0  0
   -0.5943    1.1067    0.6829 H   0  0  0  0  0  0  0  0  0  0  0  0
   -0.5229   -0.6795    0.5262 H   0  0  0  0  0  0  0  0  0  0  0  0
   -0.5053    0.3524   -0.9419 H   0  0  0  0  0  0  0  0  0  0  0  0
    5.1844    0.3627    2.2121 H   0  0  0  0  0  0  0  0  0  0  0  0
    4.1014    0.1389    4.4675 H   0  0  0  0  0  0  0  0  0  0  0  0
    0.2442    0.0619    2.5750 H   0  0  0  0  0  0  0  0  0  0  0  0
    0.9244    0.8490    5.3061 H   0  0  0  0  0  0  0  0  0  0  0  0
    2.1651   -0.3300    5.7684 H   0  0  0  0  0  0  0  0  0  0  0  0
    2.7526   -2.2620    4.4198 H   0  0  0  0  0  0  0  0  0  0  0  0
   -0.9650   -5.5757    4.5493 H   0  0  0  0  0  0  0  0  0  0  0  0
   -2.6033   -3.6576    5.0414 H   0  0  0  0  0  0  0  0  0  0  0  0
   -2.9275   -1.2118    5.4195 H   0  0  0  0  0  0  0  0  0  0  0  0
    3.2164   -6.9363    4.8039 H   0  0  0  0  0  0  0  0  0  0  0  0
    2.1638   -8.3549    4.4869 H   0  0  0  0  0  0  0  0  0  0  0  0
    1.8170   -7.2816    5.8804 H   0  0  0  0  0  0  0  0  0  0  0  0
    4.2580   -3.1430    2.9571 H   0  0  0  0  0  0  0  0  0  0  0  0
    5.3431   -4.5091    3.3915 H   0  0  0  0  0  0  0  0  0  0  0  0
    4.7278   -3.4066    4.6668 H   0  0  0  0  0  0  0  0  0  0  0  0
    4.4991   -0.2965   -1.8493 H   0  0  0  0  0  0  0  0  0  0  0  0
    2.8237   -0.6893   -1.3401 H   0  0  0  0  0  0  0  0  0  0  0  0
    4.2185   -1.5164   -0.5654 H   0  0  0  0  0  0  0  0  0  0  0  0
  1  2  1  0
  1 26  1  0
  1 27  1  0
  1 28  1  0
  2  3  1  0
  3  4  2  0
  3  8  1  0
  4  5  1  0
  4 24  1  0
  5  6  2  0
  5 29  1  0
  6  7  1  0
  6 30  1  0
  7  8  2  0
  7  9  1  0
  8 31  1  0
  9 10  1  0
  9 32  1  0
  9 33  1  0
 10 11  1  0
 10 19  2  0
 11 12  2  0
 11 16  1  0
 12 13  1  0
 12 34  1  0
 13 14  2  0
 13 22  1  0
 14 15  1  0
 14 20  1  0
 15 16  2  0
 15 35  1  0
 16 17  1  0
 17 18  2  0
 17 36  1  0
 18 19  1  0
 18 37  1  0
 20 21  1  0
 21 38  1  0
 21 39  1  0
 21 40  1  0
 22 23  1  0
 23 41  1  0
 23 42  1  0
 23 43  1  0
 24 25  1  0
 25 44  1  0
 25 45  1  0
 25 46  1  0
M  END

