46
rmsd143.gzmat
C          0.00000        0.00000        0.00000
O          1.42070        0.00000        0.00000
C          2.05990        0.00000        1.20060
C          1.50070       -0.23450        2.47350
C          2.31640       -0.22670        3.60050
C          3.68670       -0.00960        3.46590
C          4.24810        0.19910        2.20750
C          3.43190        0.22600        1.07470
C          5.72890        0.38160        2.06660
C          6.48850       -0.70670        2.78250
C          6.30980       -2.09300        2.46260
C          5.42690       -2.54630        1.44920
C          5.23600       -3.88620        1.23810
C          5.97150       -4.85090        2.00570
C          6.86100       -4.42370        2.96730
C          7.03850       -3.03920        3.21780
C          7.93060       -2.57520        4.22030
C          8.04530       -1.21990        4.43370
N          7.32530       -0.29550        3.72760
O          5.89610       -6.19960        1.90980
C          5.08080       -6.76470        0.89180
O          4.38200       -4.41950        0.32160
C          3.50820       -3.51060       -0.34010
O          0.15370       -0.45970        2.48400
C         -0.44660       -0.68200        3.75250
H         -0.40140        0.81880        0.60500
H         -0.37990       -0.96860        0.34340
H         -0.23160        0.15500       -1.06150
H          1.90250       -0.39490        4.59130
H          4.32380       -0.01260        4.35100
H          3.84500        0.42090        0.08640
H          6.01690        1.38120        2.47930
H          6.04660        0.41150        1.00230
H          4.89660       -1.80470        0.85290
H          7.42660       -5.15200        3.54650
H          8.50480       -3.29050        4.80040
H          8.71580       -0.79410        5.18630
H          4.02460       -6.53460        1.06990
H          5.27010       -7.83890        1.01960
H          5.40110       -6.43200       -0.10120
H          2.92210       -2.92340        0.37610
H          2.85370       -4.18780       -0.90280
H          4.07060       -2.86280       -1.01960
H         -1.50180       -0.82590        3.48610
H         -0.33280        0.19280        4.40050
H         -0.04420       -1.58590        4.22220
