46
rmsd119.gzmat
C          0.00000        0.00000        0.00000
O          1.42260        0.00000        0.00000
C          2.03350        0.00000        1.21890
C          3.42830        0.21490        1.20170
C          4.14150        0.21390        2.40240
C          3.47670        0.01520        3.61030
C          2.09780       -0.18370        3.62580
C          1.37900       -0.20890        2.42640
C          1.37410       -0.36160        4.92530
C          0.09500        0.43450        4.97360
C          0.07880        1.85750        4.79830
C          1.24940        2.61960        4.54880
C          1.16940        3.97160        4.34540
C         -0.09600        4.64360        4.43420
C         -1.23880        3.91760        4.68720
C         -1.17250        2.51140        4.86080
C         -2.33900        1.73790        5.09890
C         -2.21360        0.37620        5.25820
N         -1.00950       -0.26890        5.19250
O         -0.32290        5.96790        4.26130
C          0.79390        6.84850        4.27290
O          2.22540        4.78430        4.06450
C          3.44690        4.14040        3.71710
O          4.22830        0.41580        0.12060
C          3.60830        0.56790       -1.14820
H         -0.39570        0.85870        0.55270
H         -0.38760       -0.94370        0.39780
H         -0.23070        0.08870       -1.06990
H          5.21890        0.36980        2.37810
H          4.04450        0.01580        4.53810
H          0.30580       -0.39150        2.45720
H          2.00870       -0.08230        5.79410
H          1.15020       -1.44870        5.07350
H          2.20790        2.10250        4.50720
H         -2.20110        4.42310        4.75350
H         -3.30580        2.22820        5.15210
H         -3.06900       -0.27970        5.44680
H          1.42020        6.69170        5.15680
H          0.30840        7.83270        4.31290
H          1.37200        6.73920        3.34840
H          3.87100        3.62210        4.58240
H          4.07990        4.98830        3.42690
H          3.31030        3.45880        2.86940
H          4.46510        0.78810       -1.79820
H          2.89910        1.40150       -1.14480
H          3.12270       -0.36540       -1.45360
