46
rmsd146.gzmat
C          0.00000        0.00000        0.00000
O          1.42170        0.00000        0.00000
C          2.03440        0.00000        1.21820
C          3.44290       -0.08910        1.18980
C          4.15840       -0.07470        2.38890
C          3.48470        0.01720        3.60500
C          2.09400        0.09080        3.63000
C          1.36950        0.09140        2.43440
C          1.36170        0.18080        4.93410
C          0.18600       -0.76070        4.98300
C          0.35560       -2.18110        4.93760
C          1.62580       -2.79990        4.77660
C          1.73030       -4.16240        4.74390
C          0.55320       -4.98460        4.91440
C         -0.67940       -4.40360        5.04810
C         -0.80070       -2.98410        5.04690
C         -2.06450       -2.35150        5.15740
C         -2.12200       -0.97390        5.16800
N         -1.00890       -0.18720        5.08900
O          0.82750       -6.31040        4.91870
C         -0.26380       -7.18580        5.18240
O          2.86960       -4.87990        4.56960
C          4.04210       -4.12790        4.27080
O          4.25260       -0.18370        0.10160
C          3.64360       -0.25340       -1.17990
H         -0.39310        0.90790        0.46880
H         -0.39100       -0.90060        0.48470
H         -0.22970       -0.00810       -1.07350
H          5.24500       -0.13340        2.35740
H          4.05500        0.03730        4.53070
H          0.28360        0.16410        2.47750
H          1.01240        1.23370        5.08340
H          2.02900       -0.02370        5.79920
H          2.50270       -2.16300        4.66450
H         -1.58280       -4.99500        5.15880
H         -2.96340       -2.95400        5.23020
H         -3.06400       -0.42290        5.24720
H         -0.70610       -6.98100        6.16260
H          0.22980       -8.16780        5.18150
H         -1.01040       -7.13100        4.38440
H          3.90630       -3.51880        3.36970
H          4.77960       -4.92040        4.08730
H          4.33950       -3.51670        5.12840
H          4.51320       -0.35180       -1.84260
H          3.09410        0.66850       -1.39950
H          2.99430       -1.13210       -1.25850
