rmsd109.gzmat
 OpenBabel08211713383D

 42 44  0  0  0  0  0  0  0  0999 V2000
    0.0000    0.0000    0.0000 C   0  0  0  0  0  0  0  0  0  0  0  0
    1.3377    0.0000    0.0000 C   0  0  0  0  0  0  0  0  0  0  0  0
    2.1433    0.0000    1.2217 C   0  0  0  0  0  0  0  0  0  0  0  0
    2.5739   -1.2066    1.7768 C   0  0  0  0  0  0  0  0  0  0  0  0
    3.3006   -1.1980    2.9656 C   0  0  0  0  0  0  0  0  0  0  0  0
    3.5944    0.0101    3.5888 C   0  0  0  0  0  0  0  0  0  0  0  0
    3.1858    1.2162    3.0279 C   0  0  0  0  0  0  0  0  0  0  0  0
    2.4616    1.2135    1.8385 C   0  0  0  0  0  0  0  0  0  0  0  0
    4.4218    0.0046    5.1870 S   0  0  1  0  0  0  0  0  0  0  0  0
    4.6950   -1.4207    5.4920 O   0  0  0  0  0  0  0  0  0  0  0  0
    6.0098    0.7253    4.6521 C   0  0  0  0  0  0  0  0  0  0  0  0
   -0.8649    0.0273   -1.2131 C   0  0  0  0  0  0  0  0  0  0  0  0
   -2.1743    0.0395   -0.8403 C   0  0  0  0  0  0  0  0  0  0  0  0
   -2.2582    0.0273    0.6270 C   0  0  0  0  0  0  0  0  0  0  0  0
   -3.3509    0.0478    1.4697 C   0  0  0  0  0  0  0  0  0  0  0  0
   -3.0778    0.0168    2.8449 C   0  0  0  0  0  0  0  0  0  0  0  0
   -1.7953   -0.0330    3.3795 C   0  0  0  0  0  0  0  0  0  0  0  0
   -0.7005   -0.0455    2.5054 C   0  0  0  0  0  0  0  0  0  0  0  0
   -0.9282   -0.0093    1.1439 C   0  0  0  0  0  0  0  0  0  0  0  0
   -4.1068    0.0342    3.6797 F   0  0  0  0  0  0  0  0  0  0  0  0
   -3.3649    0.0554   -1.7194 C   0  0  0  0  0  0  0  0  0  0  0  0
   -3.5260    1.4287   -2.3065 C   0  0  0  0  0  0  0  0  0  0  0  0
   -2.9849    1.8954   -3.2738 O   0  0  0  0  0  0  0  0  0  0  0  0
   -4.4231    2.1491   -1.5892 O   0  0  0  0  0  0  0  0  0  0  0  0
   -0.3146    0.0472   -2.5778 C   0  0  0  0  0  0  0  0  0  0  0  0
    1.9134    0.0050   -0.9304 H   0  0  0  0  0  0  0  0  0  0  0  0
    2.3296   -2.1500    1.2903 H   0  0  0  0  0  0  0  0  0  0  0  0
    3.6284   -2.1487    3.4057 H   0  0  0  0  0  0  0  0  0  0  0  0
    3.4128    2.1706    3.5036 H   0  0  0  0  0  0  0  0  0  0  0  0
    2.1281    2.1503    1.3959 H   0  0  0  0  0  0  0  0  0  0  0  0
    5.8728    1.7282    4.2451 H   0  0  0  0  0  0  0  0  0  0  0  0
    6.5143    0.1161    3.8951 H   0  0  0  0  0  0  0  0  0  0  0  0
    6.6892    0.7881    5.5091 H   0  0  0  0  0  0  0  0  0  0  0  0
   -4.3693    0.0951    1.0924 H   0  0  0  0  0  0  0  0  0  0  0  0
   -1.6330   -0.0619    4.4550 H   0  0  0  0  0  0  0  0  0  0  0  0
    0.3121   -0.0852    2.9081 H   0  0  0  0  0  0  0  0  0  0  0  0
   -4.2835   -0.2441   -1.1618 H   0  0  0  0  0  0  0  0  0  0  0  0
   -3.2604   -0.6880   -2.5451 H   0  0  0  0  0  0  0  0  0  0  0  0
   -4.5418    3.0760   -1.9129 H   0  0  0  0  0  0  0  0  0  0  0  0
   -1.0675    0.3429   -3.3305 H   0  0  0  0  0  0  0  0  0  0  0  0
    0.0711   -0.9413   -2.8736 H   0  0  0  0  0  0  0  0  0  0  0  0
    0.5138    0.7656   -2.6803 H   0  0  0  0  0  0  0  0  0  0  0  0
  1  2  2  0  0  0  0
  1 19  1  0  0  0  0
  2  3  1  0  0  0  0
  3  4  2  0  0  0  0
  3  8  1  0  0  0  0
  4  5  1  0  0  0  0
  5 28  1  0  0  0  0
  5  6  2  0  0  0  0
  6  9  1  0  0  0  0
  7 29  1  0  0  0  0
  7  6  1  0  0  0  0
  8  7  2  0  0  0  0
  9 10  2  6  0  0  0
 11  9  1  0  0  0  0
 11 33  1  0  0  0  0
 12 13  2  0  0  0  0
 12  1  1  0  0  0  0
 13 14  1  0  0  0  0
 14 19  1  0  0  0  0
 14 15  2  0  0  0  0
 15 16  1  0  0  0  0
 16 17  2  0  0  0  0
 16 20  1  0  0  0  0
 17 35  1  0  0  0  0
 18 36  1  0  0  0  0
 18 17  1  0  0  0  0
 19 18  2  0  0  0  0
 21 37  1  0  0  0  0
 21 13  1  0  0  0  0
 22 21  1  0  0  0  0
 22 24  1  0  0  0  0
 23 22  2  0  0  0  0
 25 12  1  0  0  0  0
 26  2  1  0  0  0  0
 27  4  1  0  0  0  0
 30  8  1  0  0  0  0
 31 11  1  0  0  0  0
 32 11  1  0  0  0  0
 34 15  1  0  0  0  0
 38 21  1  0  0  0  0
 39 24  1  0  0  0  0
 40 25  1  0  0  0  0
 41 25  1  0  0  0  0
 42 25  1  0  0  0  0
M  END
$$$$
