
     RDKit          3D

 42 44  0  0  0  0  0  0  0  0999 V2000
   -0.0624    0.2404    0.1394 C   0  0  0  0  0  0  0  0  0  0  0  0
    1.2739    0.4714    0.2044 C   0  0  0  0  0  0  0  0  0  0  0  0
    2.1720    0.4236    1.3636 C   0  0  0  0  0  0  0  0  0  0  0  0
    2.0822   -0.5897    2.3379 C   0  0  0  0  0  0  0  0  0  0  0  0
    2.9672   -0.6295    3.4139 C   0  0  0  0  0  0  0  0  0  0  0  0
    3.9645    0.3393    3.5123 C   0  0  0  0  0  0  0  0  0  0  0  0
    4.0837    1.3545    2.5602 C   0  0  0  0  0  0  0  0  0  0  0  0
    3.2030    1.3788    1.4809 C   0  0  0  0  0  0  0  0  0  0  0  0
    5.0531    0.2713    4.9738 S   0  0  0  0  0  0  0  0  0  0  0  0
    4.5367   -0.8500    5.8432 O   0  0  0  0  0  0  0  0  0  0  0  0
    6.5143   -0.4193    4.0944 C   0  0  0  0  0  0  0  0  0  0  0  0
   -0.7945    0.1651   -1.1478 C   0  0  0  0  0  0  0  0  0  0  0  0
   -2.1051   -0.1286   -0.8991 C   0  0  0  0  0  0  0  0  0  0  0  0
   -2.3236   -0.1683    0.5530 C   0  0  0  0  0  0  0  0  0  0  0  0
   -3.5034   -0.3277    1.2755 C   0  0  0  0  0  0  0  0  0  0  0  0
   -3.4195   -0.2604    2.6682 C   0  0  0  0  0  0  0  0  0  0  0  0
   -2.2194   -0.0239    3.3347 C   0  0  0  0  0  0  0  0  0  0  0  0
   -1.0388    0.1371    2.5951 C   0  0  0  0  0  0  0  0  0  0  0  0
   -1.0782    0.0469    1.2041 C   0  0  0  0  0  0  0  0  0  0  0  0
   -4.5422   -0.4108    3.3875 F   0  0  0  0  0  0  0  0  0  0  0  0
   -3.1931   -0.3361   -1.9163 C   0  0  0  0  0  0  0  0  0  0  0  0
   -3.8383    0.9888   -2.2781 C   0  0  0  0  0  0  0  0  0  0  0  0
   -3.5197    1.6832   -3.2100 O   0  0  0  0  0  0  0  0  0  0  0  0
   -4.7980    1.3351   -1.3979 O   0  0  0  0  0  0  0  0  0  0  0  0
   -0.1515    0.3499   -2.4848 C   0  0  0  0  0  0  0  0  0  0  0  0
    1.7676    0.7287   -0.7389 H   0  0  0  0  0  0  0  0  0  0  0  0
    1.3182   -1.3615    2.2342 H   0  0  0  0  0  0  0  0  0  0  0  0
    2.9121   -1.3985    4.1887 H   0  0  0  0  0  0  0  0  0  0  0  0
    4.8584    2.1207    2.6545 H   0  0  0  0  0  0  0  0  0  0  0  0
    3.2948    2.1614    0.7236 H   0  0  0  0  0  0  0  0  0  0  0  0
    6.8695    0.2870    3.3306 H   0  0  0  0  0  0  0  0  0  0  0  0
    6.2079   -1.3751    3.6480 H   0  0  0  0  0  0  0  0  0  0  0  0
    7.2838   -0.5822    4.8617 H   0  0  0  0  0  0  0  0  0  0  0  0
   -4.4737   -0.4606    0.7960 H   0  0  0  0  0  0  0  0  0  0  0  0
   -2.2197    0.0383    4.4239 H   0  0  0  0  0  0  0  0  0  0  0  0
   -0.1091    0.3412    3.1241 H   0  0  0  0  0  0  0  0  0  0  0  0
   -3.9588   -1.0172   -1.5173 H   0  0  0  0  0  0  0  0  0  0  0  0
   -2.7875   -0.7638   -2.8416 H   0  0  0  0  0  0  0  0  0  0  0  0
   -5.1188    2.2165   -1.6567 H   0  0  0  0  0  0  0  0  0  0  0  0
   -0.8990    0.3848   -3.2881 H   0  0  0  0  0  0  0  0  0  0  0  0
    0.5699   -0.4551   -2.7070 H   0  0  0  0  0  0  0  0  0  0  0  0
    0.4058    1.3005   -2.5263 H   0  0  0  0  0  0  0  0  0  0  0  0
  1  2  2  0
  1 12  1  0
  1 19  1  0
  2  3  1  0
  2 26  1  0
  3  4  2  0
  3  8  1  0
  4  5  1  0
  4 27  1  0
  5  6  2  0
  5 28  1  0
  6  7  1  0
  6  9  1  0
  7  8  2  0
  7 29  1  0
  8 30  1  0
  9 10  2  0
  9 11  1  6
 11 31  1  0
 11 32  1  0
 11 33  1  0
 12 13  2  0
 12 25  1  0
 13 14  1  0
 13 21  1  0
 14 15  1  0
 14 19  2  0
 15 16  2  0
 15 34  1  0
 16 17  1  0
 16 20  1  0
 17 18  2  0
 17 35  1  0
 18 19  1  0
 18 36  1  0
 21 22  1  0
 21 37  1  0
 21 38  1  0
 22 23  2  0
 22 24  1  0
 24 39  1  0
 25 40  1  0
 25 41  1  0
 25 42  1  0
M  END

