
     RDKit          3D

 42 44  0  0  0  0  0  0  0  0999 V2000
   -0.1140   -0.1816    0.1556 C   0  0  0  0  0  0  0  0  0  0  0  0
    1.2259   -0.3881    0.2293 C   0  0  0  0  0  0  0  0  0  0  0  0
    2.1185   -0.3141    1.3920 C   0  0  0  0  0  0  0  0  0  0  0  0
    3.1623   -1.2503    1.5279 C   0  0  0  0  0  0  0  0  0  0  0  0
    4.0425   -1.1950    2.6074 C   0  0  0  0  0  0  0  0  0  0  0  0
    3.9060   -0.1703    3.5415 C   0  0  0  0  0  0  0  0  0  0  0  0
    2.8910    0.7833    3.4267 C   0  0  0  0  0  0  0  0  0  0  0  0
    2.0101    0.7149    2.3497 C   0  0  0  0  0  0  0  0  0  0  0  0
    5.0564   -0.1718    4.9568 S   0  0  0  0  0  0  0  0  0  0  0  0
    5.9093   -1.4100    4.8169 O   0  0  0  0  0  0  0  0  0  0  0  0
    6.1021    1.2179    4.3565 C   0  0  0  0  0  0  0  0  0  0  0  0
   -0.8422   -0.1320   -1.1353 C   0  0  0  0  0  0  0  0  0  0  0  0
   -2.1658    0.1034   -0.8935 C   0  0  0  0  0  0  0  0  0  0  0  0
   -2.3805    0.2103    0.5562 C   0  0  0  0  0  0  0  0  0  0  0  0
   -3.5562    0.4169    1.2739 C   0  0  0  0  0  0  0  0  0  0  0  0
   -3.4736    0.3850    2.6677 C   0  0  0  0  0  0  0  0  0  0  0  0
   -2.2783    0.1422    3.3408 C   0  0  0  0  0  0  0  0  0  0  0  0
   -1.0987   -0.0469    2.6064 C   0  0  0  0  0  0  0  0  0  0  0  0
   -1.1357    0.0137    1.2137 C   0  0  0  0  0  0  0  0  0  0  0  0
   -4.5913    0.5850    3.3829 F   0  0  0  0  0  0  0  0  0  0  0  0
   -3.2594    0.2623   -1.9123 C   0  0  0  0  0  0  0  0  0  0  0  0
   -3.4264    1.7228   -2.2892 C   0  0  0  0  0  0  0  0  0  0  0  0
   -2.9019    2.2608   -3.2305 O   0  0  0  0  0  0  0  0  0  0  0  0
   -4.2100    2.3791   -1.4099 O   0  0  0  0  0  0  0  0  0  0  0  0
   -0.1780   -0.2722   -2.4670 C   0  0  0  0  0  0  0  0  0  0  0  0
    1.7302   -0.6414   -0.7094 H   0  0  0  0  0  0  0  0  0  0  0  0
    3.2689   -2.0422    0.7819 H   0  0  0  0  0  0  0  0  0  0  0  0
    4.8414   -1.9267    2.7520 H   0  0  0  0  0  0  0  0  0  0  0  0
    2.7893    1.5826    4.1664 H   0  0  0  0  0  0  0  0  0  0  0  0
    1.2344    1.4728    2.2330 H   0  0  0  0  0  0  0  0  0  0  0  0
    5.5094    2.1413    4.2892 H   0  0  0  0  0  0  0  0  0  0  0  0
    6.5058    0.9259    3.3774 H   0  0  0  0  0  0  0  0  0  0  0  0
    6.9131    1.3287    5.0896 H   0  0  0  0  0  0  0  0  0  0  0  0
   -4.5148    0.6066    0.7901 H   0  0  0  0  0  0  0  0  0  0  0  0
   -2.2808    0.1057    4.4312 H   0  0  0  0  0  0  0  0  0  0  0  0
   -0.1706   -0.2472    3.1398 H   0  0  0  0  0  0  0  0  0  0  0  0
   -4.2090   -0.1192   -1.5085 H   0  0  0  0  0  0  0  0  0  0  0  0
   -3.0211   -0.2859   -2.8319 H   0  0  0  0  0  0  0  0  0  0  0  0
   -4.2218    3.3136   -1.6807 H   0  0  0  0  0  0  0  0  0  0  0  0
   -0.8865   -0.1162   -3.2909 H   0  0  0  0  0  0  0  0  0  0  0  0
    0.2846   -1.2668   -2.5882 H   0  0  0  0  0  0  0  0  0  0  0  0
    0.6252    0.4731   -2.5887 H   0  0  0  0  0  0  0  0  0  0  0  0
  1  2  2  0
  1 12  1  0
  1 19  1  0
  2  3  1  0
  2 26  1  0
  3  4  2  0
  3  8  1  0
  4  5  1  0
  4 27  1  0
  5  6  2  0
  5 28  1  0
  6  7  1  0
  6  9  1  0
  7  8  2  0
  7 29  1  0
  8 30  1  0
  9 10  2  0
  9 11  1  6
 11 31  1  0
 11 32  1  0
 11 33  1  0
 12 13  2  0
 12 25  1  0
 13 14  1  0
 13 21  1  0
 14 15  1  0
 14 19  2  0
 15 16  2  0
 15 34  1  0
 16 17  1  0
 16 20  1  0
 17 18  2  0
 17 35  1  0
 18 19  1  0
 18 36  1  0
 21 22  1  0
 21 37  1  0
 21 38  1  0
 22 23  2  0
 22 24  1  0
 24 39  1  0
 25 40  1  0
 25 41  1  0
 25 42  1  0
M  END

