42

C         -0.06240        0.24040        0.13940
C          1.27390        0.47140        0.20440
C          2.17200        0.42360        1.36360
C          2.08220       -0.58970        2.33790
C          2.96720       -0.62950        3.41390
C          3.96450        0.33930        3.51230
C          4.08370        1.35450        2.56020
C          3.20300        1.37880        1.48090
S          5.05310        0.27130        4.97380
O          4.53670       -0.85000        5.84320
C          6.51430       -0.41930        4.09440
C         -0.79450        0.16510       -1.14780
C         -2.10510       -0.12860       -0.89910
C         -2.32360       -0.16830        0.55300
C         -3.50340       -0.32770        1.27550
C         -3.41950       -0.26040        2.66820
C         -2.21940       -0.02390        3.33470
C         -1.03880        0.13710        2.59510
C         -1.07820        0.04690        1.20410
F         -4.54220       -0.41080        3.38750
C         -3.19310       -0.33610       -1.91630
C         -3.83830        0.98880       -2.27810
O         -3.51970        1.68320       -3.21000
O         -4.79800        1.33510       -1.39790
C         -0.15150        0.34990       -2.48480
H          1.76760        0.72870       -0.73890
H          1.31820       -1.36150        2.23420
H          2.91210       -1.39850        4.18870
H          4.85840        2.12070        2.65450
H          3.29480        2.16140        0.72360
H          6.86950        0.28700        3.33060
H          6.20790       -1.37510        3.64800
H          7.28380       -0.58220        4.86170
H         -4.47370       -0.46060        0.79600
H         -2.21970        0.03830        4.42390
H         -0.10910        0.34120        3.12410
H         -3.95880       -1.01720       -1.51730
H         -2.78750       -0.76380       -2.84160
H         -5.11880        2.21650       -1.65670
H         -0.89900        0.38480       -3.28810
H          0.56990       -0.45510       -2.70700
H          0.40580        1.30050       -2.52630
