42
rmsd17.gzmat
C          0.00000        0.00000        0.00000
C          1.33760        0.00000        0.00000
C          2.15130        0.00000        1.21640
C          2.53560       -1.20510        1.80760
C          3.28820       -1.18860        2.98020
C          3.65660        0.02600        3.54870
C          3.28660        1.22950        2.95640
C          2.53420        1.21800        1.78450
S          4.54640        0.04350        5.11310
O          4.65430       -1.37640        5.52890
C          6.18380        0.50400        4.45220
C         -0.86200        0.03570       -1.21560
C         -2.17240        0.04270       -0.84630
C         -2.25960        0.01960        0.62070
C         -3.35440        0.03080        1.46080
C         -3.08460       -0.01080        2.83650
C         -1.80310       -0.05560        3.37400
C         -0.70570       -0.05400        2.50280
C         -0.93080       -0.01510        1.14080
F         -4.11610       -0.00770        3.66820
C         -3.36200        0.06830       -1.72610
C         -3.53530        1.45450       -2.27780
O         -2.89360        2.00960       -3.12920
O         -4.58630        2.07000       -1.68010
C         -0.30670        0.07410       -2.57800
H          1.91050        0.01060       -0.93300
H          2.23920       -2.15240        1.35930
H          3.57680       -2.13690        3.45150
H          3.56620        2.18880        3.39250
H          2.23360        2.15300        1.31510
H          6.14970        1.46370        3.93440
H          6.57750       -0.24440        3.75640
H          6.90440        0.57970        5.27330
H         -4.37230        0.07810        1.08230
H         -1.64390       -0.09190        4.45000
H          0.30650       -0.08430        2.90770
H         -4.27820       -0.25600       -1.17720
H         -3.25140       -0.65210       -2.57090
H         -4.73030        3.00010       -1.98360
H         -1.06620        0.34360       -3.33330
H          0.12000       -0.89760       -2.87100
H          0.49180        0.82700       -2.67620
