42
rmsd109.gzmat
C          0.00000        0.00000        0.00000
C          1.33770        0.00000        0.00000
C          2.14330        0.00000        1.22170
C          2.57390       -1.20660        1.77680
C          3.30060       -1.19800        2.96560
C          3.59440        0.01010        3.58880
C          3.18580        1.21620        3.02790
C          2.46160        1.21350        1.83850
S          4.42180        0.00460        5.18700
O          4.69500       -1.42070        5.49200
C          6.00980        0.72530        4.65210
C         -0.86490        0.02730       -1.21310
C         -2.17430        0.03950       -0.84030
C         -2.25820        0.02730        0.62700
C         -3.35090        0.04780        1.46970
C         -3.07780        0.01680        2.84490
C         -1.79530       -0.03300        3.37950
C         -0.70050       -0.04550        2.50540
C         -0.92820       -0.00930        1.14390
F         -4.10680        0.03420        3.67970
C         -3.36490        0.05540       -1.71940
C         -3.52600        1.42870       -2.30650
O         -2.98490        1.89540       -3.27380
O         -4.42310        2.14910       -1.58920
C         -0.31460        0.04720       -2.57780
H          1.91340        0.00500       -0.93040
H          2.32960       -2.15000        1.29030
H          3.62840       -2.14870        3.40570
H          3.41280        2.17060        3.50360
H          2.12810        2.15030        1.39590
H          5.87280        1.72820        4.24510
H          6.51430        0.11610        3.89510
H          6.68920        0.78810        5.50910
H         -4.36930        0.09510        1.09240
H         -1.63300       -0.06190        4.45500
H          0.31210       -0.08520        2.90810
H         -4.28350       -0.24410       -1.16180
H         -3.26040       -0.68800       -2.54510
H         -4.54180        3.07600       -1.91290
H         -1.06750        0.34290       -3.33050
H          0.07110       -0.94130       -2.87360
H          0.51380        0.76560       -2.68030
