42

C         -0.11400       -0.18160        0.15560
C          1.22590       -0.38810        0.22930
C          2.11850       -0.31410        1.39200
C          3.16230       -1.25030        1.52790
C          4.04250       -1.19500        2.60740
C          3.90600       -0.17030        3.54150
C          2.89100        0.78330        3.42670
C          2.01010        0.71490        2.34970
S          5.05640       -0.17180        4.95680
O          5.90930       -1.41000        4.81690
C          6.10210        1.21790        4.35650
C         -0.84220       -0.13200       -1.13530
C         -2.16580        0.10340       -0.89350
C         -2.38050        0.21030        0.55620
C         -3.55620        0.41690        1.27390
C         -3.47360        0.38500        2.66770
C         -2.27830        0.14220        3.34080
C         -1.09870       -0.04690        2.60640
C         -1.13570        0.01370        1.21370
F         -4.59130        0.58500        3.38290
C         -3.25940        0.26230       -1.91230
C         -3.42640        1.72280       -2.28920
O         -2.90190        2.26080       -3.23050
O         -4.21000        2.37910       -1.40990
C         -0.17800       -0.27220       -2.46700
H          1.73020       -0.64140       -0.70940
H          3.26890       -2.04220        0.78190
H          4.84140       -1.92670        2.75200
H          2.78930        1.58260        4.16640
H          1.23440        1.47280        2.23300
H          5.50940        2.14130        4.28920
H          6.50580        0.92590        3.37740
H          6.91310        1.32870        5.08960
H         -4.51480        0.60660        0.79010
H         -2.28080        0.10570        4.43120
H         -0.17060       -0.24720        3.13980
H         -4.20900       -0.11920       -1.50850
H         -3.02110       -0.28590       -2.83190
H         -4.22180        3.31360       -1.68070
H         -0.88650       -0.11620       -3.29090
H          0.28460       -1.26680       -2.58820
H          0.62520        0.47310       -2.58870
