42

C         -0.06520       -0.17320        0.13730
C          1.27570       -0.37560        0.20550
C          2.16980       -0.31680        1.36720
C          3.23060       -1.23780        1.47430
C          4.11230       -1.19790        2.55330
C          3.95970       -0.20320        3.51680
C          2.92760        0.73520        3.43140
C          2.04570        0.68220        2.35450
S          5.11280       -0.22520        4.92970
O          5.98750       -1.44320        4.75250
C          6.13240        1.19990        4.36850
C         -0.79350       -0.09360       -1.15160
C         -2.10970        0.17630       -0.90450
C         -2.33470        0.19150        0.54700
C         -3.51990        0.32000        1.26710
C         -3.44080        0.22980        2.65870
C         -2.24010       -0.00090        3.32630
C         -1.05400       -0.13030        2.58920
C         -1.08860       -0.01390        1.20000
F         -4.56850        0.35030        3.37590
C         -3.19660        0.38090       -1.92350
C         -3.82000       -0.94840       -2.30680
O         -3.49230       -1.62080       -3.25140
O         -4.77110       -1.32610       -1.43010
C         -0.14230       -0.24970       -2.48820
H          1.77880       -0.61210       -0.73810
H          3.34950       -2.00590        0.70560
H          4.92440       -1.91910        2.67520
H          2.81340        1.51090        4.19400
H          1.25650        1.42930        2.26120
H          5.52320        2.11410        4.32880
H          6.53950        0.94360        3.38090
H          6.94250        1.30390        5.10350
H         -4.49030        0.44450        0.78560
H         -2.24520       -0.08580        4.41400
H         -0.12350       -0.33360        3.11720
H         -2.79400        0.82790       -2.84100
H         -3.97450        1.04440       -1.51850
H         -5.07740       -2.20840       -1.70300
H         -0.88600       -0.28980       -3.29480
H          0.43420       -1.18830       -2.53860
H          0.56370        0.57210       -2.69830
