42
rmsd158.gzmat
C          0.00000        0.00000        0.00000
C          1.33780        0.00000        0.00000
C          2.15440        0.00000        1.21440
C          2.72250       -1.18880        1.67580
C          3.48530       -1.18220        2.84230
C          3.67680        0.00670        3.53820
C          3.11870        1.19560        3.07840
C          2.36030        1.19480        1.91050
S          4.58950       -0.01440        5.08950
O          5.07770       -1.40600        5.24650
C          6.02380        0.97410        4.54610
C         -0.86470        0.03450       -1.21400
C         -2.17420        0.04250       -0.84160
C         -2.25880        0.02600        0.62530
C         -3.35260        0.04790        1.46670
C         -3.08090        0.00120        2.84150
C         -1.79920       -0.06730        3.37630
C         -0.70310       -0.07670        2.50360
C         -0.92890       -0.01970        1.14250
F         -4.11000        0.01990        3.67600
C         -3.36680        0.04850       -1.71750
C         -3.56000        1.42590       -2.28360
O         -2.96910        1.95360       -3.18800
O         -4.56370        2.06620       -1.63410
C         -0.31320        0.06620       -2.57790
H          1.90990        0.00420       -0.93350
H          2.56110       -2.11830        1.13160
H          3.92810       -2.11920        3.20430
H          3.25700        2.13390        3.61600
H          1.91770        2.11850        1.54110
H          5.77950        2.03740        4.53350
H          6.38690        0.69330        3.55310
H          6.85900        0.82090        5.23880
H         -4.37020        0.10670        1.08820
H         -1.63860       -0.11360        4.45140
H          0.30850       -0.13120        2.90730
H         -4.27760       -0.28110       -1.16280
H         -3.24950       -0.67930       -2.55520
H         -4.71570        2.99220       -1.94620
H         -1.07040        0.34780       -3.33140
H          0.09570       -0.91310       -2.87240
H          0.49800        0.80510       -2.67870
