rmsd17.gzmat
 OpenBabel08211713383D

 42 44  0  0  0  0  0  0  0  0999 V2000
    0.0000    0.0000    0.0000 C   0  0  0  0  0  0  0  0  0  0  0  0
    1.3376    0.0000    0.0000 C   0  0  0  0  0  0  0  0  0  0  0  0
    2.1513    0.0000    1.2164 C   0  0  0  0  0  0  0  0  0  0  0  0
    2.5356   -1.2051    1.8076 C   0  0  0  0  0  0  0  0  0  0  0  0
    3.2882   -1.1886    2.9802 C   0  0  0  0  0  0  0  0  0  0  0  0
    3.6566    0.0260    3.5487 C   0  0  0  0  0  0  0  0  0  0  0  0
    3.2866    1.2295    2.9564 C   0  0  0  0  0  0  0  0  0  0  0  0
    2.5342    1.2180    1.7845 C   0  0  0  0  0  0  0  0  0  0  0  0
    4.5464    0.0435    5.1131 S   0  0  1  0  0  0  0  0  0  0  0  0
    4.6543   -1.3764    5.5289 O   0  0  0  0  0  0  0  0  0  0  0  0
    6.1838    0.5040    4.4522 C   0  0  0  0  0  0  0  0  0  0  0  0
   -0.8620    0.0357   -1.2156 C   0  0  0  0  0  0  0  0  0  0  0  0
   -2.1724    0.0427   -0.8463 C   0  0  0  0  0  0  0  0  0  0  0  0
   -2.2596    0.0196    0.6207 C   0  0  0  0  0  0  0  0  0  0  0  0
   -3.3544    0.0308    1.4608 C   0  0  0  0  0  0  0  0  0  0  0  0
   -3.0846   -0.0108    2.8365 C   0  0  0  0  0  0  0  0  0  0  0  0
   -1.8031   -0.0556    3.3740 C   0  0  0  0  0  0  0  0  0  0  0  0
   -0.7057   -0.0540    2.5028 C   0  0  0  0  0  0  0  0  0  0  0  0
   -0.9308   -0.0151    1.1408 C   0  0  0  0  0  0  0  0  0  0  0  0
   -4.1161   -0.0077    3.6682 F   0  0  0  0  0  0  0  0  0  0  0  0
   -3.3620    0.0683   -1.7261 C   0  0  0  0  0  0  0  0  0  0  0  0
   -3.5353    1.4545   -2.2778 C   0  0  0  0  0  0  0  0  0  0  0  0
   -2.8936    2.0096   -3.1292 O   0  0  0  0  0  0  0  0  0  0  0  0
   -4.5863    2.0700   -1.6801 O   0  0  0  0  0  0  0  0  0  0  0  0
   -0.3067    0.0741   -2.5780 C   0  0  0  0  0  0  0  0  0  0  0  0
    1.9105    0.0106   -0.9330 H   0  0  0  0  0  0  0  0  0  0  0  0
    2.2392   -2.1524    1.3593 H   0  0  0  0  0  0  0  0  0  0  0  0
    3.5768   -2.1369    3.4515 H   0  0  0  0  0  0  0  0  0  0  0  0
    3.5662    2.1888    3.3925 H   0  0  0  0  0  0  0  0  0  0  0  0
    2.2336    2.1530    1.3151 H   0  0  0  0  0  0  0  0  0  0  0  0
    6.1497    1.4637    3.9344 H   0  0  0  0  0  0  0  0  0  0  0  0
    6.5775   -0.2444    3.7564 H   0  0  0  0  0  0  0  0  0  0  0  0
    6.9044    0.5797    5.2733 H   0  0  0  0  0  0  0  0  0  0  0  0
   -4.3723    0.0781    1.0823 H   0  0  0  0  0  0  0  0  0  0  0  0
   -1.6439   -0.0919    4.4500 H   0  0  0  0  0  0  0  0  0  0  0  0
    0.3065   -0.0843    2.9077 H   0  0  0  0  0  0  0  0  0  0  0  0
   -4.2782   -0.2560   -1.1772 H   0  0  0  0  0  0  0  0  0  0  0  0
   -3.2514   -0.6521   -2.5709 H   0  0  0  0  0  0  0  0  0  0  0  0
   -4.7303    3.0001   -1.9836 H   0  0  0  0  0  0  0  0  0  0  0  0
   -1.0662    0.3436   -3.3333 H   0  0  0  0  0  0  0  0  0  0  0  0
    0.1200   -0.8976   -2.8710 H   0  0  0  0  0  0  0  0  0  0  0  0
    0.4918    0.8270   -2.6762 H   0  0  0  0  0  0  0  0  0  0  0  0
  1  2  2  0  0  0  0
  1 19  1  0  0  0  0
  2  3  1  0  0  0  0
  3  8  1  0  0  0  0
  3  4  2  0  0  0  0
  4  5  1  0  0  0  0
  5 28  1  0  0  0  0
  5  6  2  0  0  0  0
  6  9  1  0  0  0  0
  7 29  1  0  0  0  0
  7  6  1  0  0  0  0
  8  7  2  0  0  0  0
  9 10  2  6  0  0  0
 11  9  1  0  0  0  0
 11 33  1  0  0  0  0
 12 13  2  0  0  0  0
 12  1  1  0  0  0  0
 13 14  1  0  0  0  0
 14 19  1  0  0  0  0
 14 15  2  0  0  0  0
 15 16  1  0  0  0  0
 16 17  2  0  0  0  0
 16 20  1  0  0  0  0
 17 35  1  0  0  0  0
 18 36  1  0  0  0  0
 18 17  1  0  0  0  0
 19 18  2  0  0  0  0
 21 37  1  0  0  0  0
 21 13  1  0  0  0  0
 22 21  1  0  0  0  0
 22 24  1  0  0  0  0
 23 22  2  0  0  0  0
 25 12  1  0  0  0  0
 26  2  1  0  0  0  0
 27  4  1  0  0  0  0
 30  8  1  0  0  0  0
 31 11  1  0  0  0  0
 32 11  1  0  0  0  0
 34 15  1  0  0  0  0
 38 21  1  0  0  0  0
 39 24  1  0  0  0  0
 40 25  1  0  0  0  0
 41 25  1  0  0  0  0
 42 25  1  0  0  0  0
M  END
$$$$
