42
rmsd149.gzmat
C          0.00000        0.00000        0.00000
C          1.33740        0.00000        0.00000
C          2.15640        0.00000        1.21280
C          2.46040       -1.19980        1.85970
C          3.23890       -1.18230        3.01540
C          3.70660        0.02820        3.51570
C          3.40580        1.22620        2.87540
C          2.63280        1.21350        1.71680
S          4.65490        0.05700        5.04580
O          4.67160       -1.34270        5.53520
C          6.28820        0.35810        4.28930
C         -0.86490        0.01990       -1.21410
C         -2.17430       -0.00070       -0.84170
C         -2.25880       -0.01730        0.62560
C         -3.35170       -0.02420        1.46830
C         -3.07770       -0.03800        2.84370
C         -1.79420       -0.04080        3.37870
C         -0.69920       -0.02740        2.50450
C         -0.92880       -0.01690        1.14300
F         -4.10780       -0.04850        3.67720
C         -3.36720       -0.00590       -1.71740
C         -3.57800        1.37450       -2.27120
O         -2.98350        1.92470       -3.15970
O         -4.60150        1.98930       -1.62790
C         -0.31470        0.06850       -2.57840
H          1.91000        0.00860       -0.93290
H          2.08270       -2.14290        1.46670
H          3.47230       -2.12550        3.52600
H          3.75810        2.18260        3.26250
H          2.38980        2.14510        1.20920
H          6.29710        1.29610        3.73220
H          6.58760       -0.44400        3.60710
H          7.05440        0.41160        5.06930
H         -4.37170       -0.01000        1.09240
H         -1.63100       -0.05320        4.45460
H          0.31470       -0.02580        2.90590
H         -4.27250       -0.35140       -1.16290
H         -3.24160       -0.72510       -2.56140
H         -4.76560        2.91640       -1.93120
H         -1.06080        0.41010       -3.31850
H          0.04300       -0.91940       -2.90730
H          0.53140        0.76920       -2.66010
