
     RDKit          3D

 42 44  0  0  0  0  0  0  0  0999 V2000
   -0.0652   -0.1732    0.1373 C   0  0  0  0  0  0  0  0  0  0  0  0
    1.2757   -0.3756    0.2055 C   0  0  0  0  0  0  0  0  0  0  0  0
    2.1698   -0.3168    1.3672 C   0  0  0  0  0  0  0  0  0  0  0  0
    3.2306   -1.2378    1.4743 C   0  0  0  0  0  0  0  0  0  0  0  0
    4.1123   -1.1979    2.5533 C   0  0  0  0  0  0  0  0  0  0  0  0
    3.9597   -0.2032    3.5168 C   0  0  0  0  0  0  0  0  0  0  0  0
    2.9276    0.7352    3.4314 C   0  0  0  0  0  0  0  0  0  0  0  0
    2.0457    0.6822    2.3545 C   0  0  0  0  0  0  0  0  0  0  0  0
    5.1128   -0.2252    4.9297 S   0  0  0  0  0  0  0  0  0  0  0  0
    5.9875   -1.4432    4.7525 O   0  0  0  0  0  0  0  0  0  0  0  0
    6.1324    1.1999    4.3685 C   0  0  0  0  0  0  0  0  0  0  0  0
   -0.7935   -0.0936   -1.1516 C   0  0  0  0  0  0  0  0  0  0  0  0
   -2.1097    0.1763   -0.9045 C   0  0  0  0  0  0  0  0  0  0  0  0
   -2.3347    0.1915    0.5470 C   0  0  0  0  0  0  0  0  0  0  0  0
   -3.5199    0.3200    1.2671 C   0  0  0  0  0  0  0  0  0  0  0  0
   -3.4408    0.2298    2.6587 C   0  0  0  0  0  0  0  0  0  0  0  0
   -2.2401   -0.0009    3.3263 C   0  0  0  0  0  0  0  0  0  0  0  0
   -1.0540   -0.1303    2.5892 C   0  0  0  0  0  0  0  0  0  0  0  0
   -1.0886   -0.0139    1.2000 C   0  0  0  0  0  0  0  0  0  0  0  0
   -4.5685    0.3503    3.3759 F   0  0  0  0  0  0  0  0  0  0  0  0
   -3.1966    0.3809   -1.9235 C   0  0  0  0  0  0  0  0  0  0  0  0
   -3.8200   -0.9484   -2.3068 C   0  0  0  0  0  0  0  0  0  0  0  0
   -3.4923   -1.6208   -3.2514 O   0  0  0  0  0  0  0  0  0  0  0  0
   -4.7711   -1.3261   -1.4301 O   0  0  0  0  0  0  0  0  0  0  0  0
   -0.1423   -0.2497   -2.4882 C   0  0  0  0  0  0  0  0  0  0  0  0
    1.7788   -0.6121   -0.7381 H   0  0  0  0  0  0  0  0  0  0  0  0
    3.3495   -2.0059    0.7056 H   0  0  0  0  0  0  0  0  0  0  0  0
    4.9244   -1.9191    2.6752 H   0  0  0  0  0  0  0  0  0  0  0  0
    2.8134    1.5109    4.1940 H   0  0  0  0  0  0  0  0  0  0  0  0
    1.2565    1.4293    2.2612 H   0  0  0  0  0  0  0  0  0  0  0  0
    5.5232    2.1141    4.3288 H   0  0  0  0  0  0  0  0  0  0  0  0
    6.5395    0.9436    3.3809 H   0  0  0  0  0  0  0  0  0  0  0  0
    6.9425    1.3039    5.1035 H   0  0  0  0  0  0  0  0  0  0  0  0
   -4.4903    0.4445    0.7856 H   0  0  0  0  0  0  0  0  0  0  0  0
   -2.2452   -0.0858    4.4140 H   0  0  0  0  0  0  0  0  0  0  0  0
   -0.1235   -0.3336    3.1172 H   0  0  0  0  0  0  0  0  0  0  0  0
   -2.7940    0.8279   -2.8410 H   0  0  0  0  0  0  0  0  0  0  0  0
   -3.9745    1.0444   -1.5185 H   0  0  0  0  0  0  0  0  0  0  0  0
   -5.0774   -2.2084   -1.7030 H   0  0  0  0  0  0  0  0  0  0  0  0
   -0.8860   -0.2898   -3.2948 H   0  0  0  0  0  0  0  0  0  0  0  0
    0.4342   -1.1883   -2.5386 H   0  0  0  0  0  0  0  0  0  0  0  0
    0.5637    0.5721   -2.6983 H   0  0  0  0  0  0  0  0  0  0  0  0
  1  2  2  0
  1 12  1  0
  1 19  1  0
  2  3  1  0
  2 26  1  0
  3  4  2  0
  3  8  1  0
  4  5  1  0
  4 27  1  0
  5  6  2  0
  5 28  1  0
  6  7  1  0
  6  9  1  0
  7  8  2  0
  7 29  1  0
  8 30  1  0
  9 10  2  0
  9 11  1  6
 11 31  1  0
 11 32  1  0
 11 33  1  0
 12 13  2  0
 12 25  1  0
 13 14  1  0
 13 21  1  0
 14 15  1  0
 14 19  2  0
 15 16  2  0
 15 34  1  0
 16 17  1  0
 16 20  1  0
 17 18  2  0
 17 35  1  0
 18 19  1  0
 18 36  1  0
 21 22  1  0
 21 37  1  0
 21 38  1  0
 22 23  2  0
 22 24  1  0
 24 39  1  0
 25 40  1  0
 25 41  1  0
 25 42  1  0
M  END

