rmsd196.gzmat
 OpenBabel08211713363D

 46 49  0  0  1  0  0  0  0  0999 V2000
    0.0000    0.0000    0.0000 C   0  0  0  0  0  0  0  0  0  0  0  0
    1.4036    0.0000    0.0000 C   0  0  0  0  0  0  0  0  0  0  0  0
    2.1993    0.0000    1.5265 Cl  0  0  0  0  0  0  0  0  0  0  0  0
    2.1799   -0.0382   -1.1339 C   0  0  0  0  0  0  0  0  0  0  0  0
    1.4914   -0.0670   -2.3549 C   0  0  0  0  0  0  0  0  0  0  0  0
    0.0194   -0.0864   -2.4042 C   0  0  0  0  0  0  0  0  0  0  0  0
   -0.6951   -0.0610   -1.2301 C   0  0  0  0  0  0  0  0  0  0  0  0
   -0.3359   -0.1177   -3.7810 C   0  0  0  0  0  0  0  0  0  0  0  0
    0.8443   -0.1135   -4.5369 C   0  0  0  0  0  0  0  0  0  0  0  0
    1.9483   -0.0869   -3.6336 N   0  0  0  0  0  0  0  0  0  0  0  0
    2.9217   -0.0651   -4.0077 H   0  0  0  0  0  0  0  0  0  0  0  0
    1.0907   -0.1231   -5.9294 C   0  0  2  0  0  0  0  0  0  0  0  0
    0.0057   -0.1659   -6.8455 C   0  0  0  0  0  0  0  0  0  0  0  0
    0.2119   -0.1691   -8.1954 C   0  0  0  0  0  0  0  0  0  0  0  0
    1.5352   -0.1283   -8.7180 C   0  0  0  0  0  0  0  0  0  0  0  0
    2.6076   -0.0984   -7.8712 C   0  0  0  0  0  0  0  0  0  0  0  0
    3.8160   -0.1434   -8.4946 O   0  0  0  0  0  0  0  0  0  0  0  0
    4.9714    0.3274   -7.7960 C   0  0  0  0  0  0  0  0  0  0  0  0
    6.0836    0.2127   -8.8612 C   0  0  0  0  0  0  0  0  0  0  0  0
    6.4936    1.6491   -9.2198 C   0  0  0  0  0  0  0  0  0  0  0  0
    6.0591    2.5212   -8.0274 C   0  0  0  0  0  0  0  0  0  0  0  0
    4.8429    1.8115   -7.4157 C   0  0  0  0  0  0  0  0  0  0  0  0
    2.4373   -0.0911   -6.4204 C   0  0  0  0  0  0  0  0  0  0  0  0
    3.4198   -0.0495   -5.6551 O   0  0  0  0  0  0  0  0  0  0  0  0
   -0.7687    0.0672    1.2241 C   0  0  0  0  0  0  0  0  0  0  0  0
   -1.6985   -0.8847    1.4884 N   0  0  0  0  0  0  0  0  0  0  0  0
   -2.3052   -0.8683    2.2843 H   0  0  0  0  0  0  0  0  0  0  0  0
   -1.8099   -1.6626    0.8488 H   0  0  0  0  0  0  0  0  0  0  0  0
   -0.6101    1.0942    2.0934 N   0  0  0  0  0  0  0  0  0  0  0  0
    3.2683   -0.0517   -1.1042 H   0  0  0  0  0  0  0  0  0  0  0  0
   -1.7814   -0.0599   -1.2505 H   0  0  0  0  0  0  0  0  0  0  0  0
   -1.3283   -0.1345   -4.1667 H   0  0  0  0  0  0  0  0  0  0  0  0
   -1.0046   -0.1969   -6.4425 H   0  0  0  0  0  0  0  0  0  0  0  0
   -0.6170   -0.2024   -8.8914 H   0  0  0  0  0  0  0  0  0  0  0  0
    1.6836   -0.1284   -9.7946 H   0  0  0  0  0  0  0  0  0  0  0  0
    5.1440   -0.3343   -6.9241 H   0  0  0  0  0  0  0  0  0  0  0  0
    5.7157   -0.3387   -9.7446 H   0  0  0  0  0  0  0  0  0  0  0  0
    6.9336   -0.3618   -8.4650 H   0  0  0  0  0  0  0  0  0  0  0  0
    7.5718    1.7317   -9.4142 H   0  0  0  0  0  0  0  0  0  0  0  0
    5.9800    1.9762  -10.1401 H   0  0  0  0  0  0  0  0  0  0  0  0
    6.8738    2.6017   -7.2891 H   0  0  0  0  0  0  0  0  0  0  0  0
    5.8182    3.5471   -8.3413 H   0  0  0  0  0  0  0  0  0  0  0  0
    4.7892    1.9367   -6.3220 H   0  0  0  0  0  0  0  0  0  0  0  0
    3.8983    2.2217   -7.8149 H   0  0  0  0  0  0  0  0  0  0  0  0
    0.0773    1.8143    1.8993 H   0  0  0  0  0  0  0  0  0  0  0  0
   -1.0572    1.1410    2.9884 H   0  0  0  0  0  0  0  0  0  0  0  0
  1  2  1  0  0  0  0
  1 25  1  0  0  0  0
  2  3  1  0  0  0  0
  4 30  1  0  0  0  0
  4  2  2  0  0  0  0
  5  4  1  0  0  0  0
  6  5  2  0  0  0  0
  6  7  1  0  0  0  0
  7  1  2  0  0  0  0
  8  6  1  0  0  0  0
  9  8  2  0  0  0  0
  9 10  1  0  0  0  0
 10  5  1  0  0  0  0
 11 10  1  0  0  0  0
 12  9  1  1  0  0  0
 13 33  1  0  0  0  0
 13 12  1  0  0  0  0
 14 13  2  0  0  0  0
 15 14  1  0  0  0  0
 15 16  2  0  0  0  0
 16 23  1  0  0  0  0
 17 16  1  0  0  0  0
 17 18  1  0  0  0  0
 18 22  1  0  0  0  0
 18 36  1  0  0  0  0
 19 38  1  0  0  0  0
 19 18  1  0  0  0  0
 20 19  1  0  0  0  0
 20 21  1  0  0  0  0
 21 22  1  0  0  0  0
 21 41  1  0  0  0  0
 22 43  1  0  0  0  0
 23 12  1  0  0  0  0
 23 24  2  0  0  0  0
 25 26  2  0  0  0  0
 25 29  1  0  0  0  0
 26 27  1  0  0  0  0
 28 26  1  0  0  0  0
 29 46  1  0  0  0  0
 31  7  1  0  0  0  0
 32  8  1  0  0  0  0
 34 14  1  0  0  0  0
 35 15  1  0  0  0  0
 37 19  1  0  0  0  0
 39 20  1  0  0  0  0
 40 20  1  0  0  0  0
 42 21  1  0  0  0  0
 44 22  1  0  0  0  0
 45 29  1  0  0  0  0
M  RAD  1  12   2
M  END
$$$$
