46
rmsd199.gzmat
C          0.00000        0.00000        0.00000
C          1.40310        0.00000        0.00000
Cl         2.19530        0.00000        1.52840
C          2.17740       -0.03740       -1.13490
C          1.48620       -0.06650       -2.35400
C          0.01450       -0.07040       -2.40400
C         -0.69810       -0.04500       -1.22780
C         -0.33920       -0.10410       -3.78150
C          0.84170       -0.12370       -4.53650
N          1.94380       -0.10110       -3.63220
H          2.91940       -0.10640       -4.00410
C          1.09310       -0.16160       -5.92860
C          0.01280       -0.20460       -6.84990
C          0.22780       -0.25100       -8.19790
C          1.55430       -0.24600       -8.71310
C          2.62280       -0.20490       -7.86110
O          3.83230       -0.25770       -8.48270
C          4.99900        0.13990       -7.75940
C          6.12890       -0.03820       -8.79740
C          6.69990        1.36260       -9.07010
C          6.26500        2.23770       -7.87960
C          4.94700        1.62920       -7.38170
C          2.44240       -0.16730       -6.41240
O          3.42110       -0.13730       -5.64050
C         -0.75670        0.03840        1.23480
N         -0.63750        1.07930        2.09290
H         -1.07360        1.11280        2.99420
H          0.01320        1.82880        1.88320
N         -1.62440       -0.96250        1.52230
H          3.26560       -0.05010       -1.10850
H         -1.78430       -0.03600       -1.24520
H         -1.33140       -0.11150       -4.16800
H         -1.00020       -0.20160       -6.45250
H         -0.59660       -0.28950       -8.89910
H          1.70930       -0.27810       -9.78820
H          5.11720       -0.52890       -6.88420
H          5.73600       -0.50370       -9.71900
H          6.89990       -0.71940       -8.40810
H          7.79280        1.34430       -9.18400
H          6.29100        1.76720      -10.01150
H          7.02710        2.21530       -7.08280
H          6.14570        3.29120       -8.17050
H          4.80620        1.75970       -6.29630
H          4.07660        2.10800       -7.86460
H         -1.70310       -1.74970        0.88880
H         -2.21270       -0.97850        2.33240
