rmsd213.gzmat
 OpenBabel08211713363D

 46 49  0  0  1  0  0  0  0  0999 V2000
    0.0000    0.0000    0.0000 C   0  0  0  0  0  0  0  0  0  0  0  0
    1.4044    0.0000    0.0000 C   0  0  0  0  0  0  0  0  0  0  0  0
    2.2091    0.0000    1.5223 Cl  0  0  0  0  0  0  0  0  0  0  0  0
    2.1816   -0.0488   -1.1323 C   0  0  0  0  0  0  0  0  0  0  0  0
    1.4960   -0.0996   -2.3544 C   0  0  0  0  0  0  0  0  0  0  0  0
    0.0239   -0.1065   -2.4066 C   0  0  0  0  0  0  0  0  0  0  0  0
   -0.6912   -0.0592   -1.2346 C   0  0  0  0  0  0  0  0  0  0  0  0
   -0.3277   -0.1728   -3.7838 C   0  0  0  0  0  0  0  0  0  0  0  0
    0.8541   -0.2120   -4.5353 C   0  0  0  0  0  0  0  0  0  0  0  0
    1.9561   -0.1571   -3.6297 N   0  0  0  0  0  0  0  0  0  0  0  0
    2.9318   -0.1766   -4.0008 H   0  0  0  0  0  0  0  0  0  0  0  0
    1.1064   -0.3044   -5.9238 C   0  0  2  0  0  0  0  0  0  0  0  0
    0.0251   -0.3750   -6.8425 C   0  0  0  0  0  0  0  0  0  0  0  0
    0.2384   -0.4850   -8.1868 C   0  0  0  0  0  0  0  0  0  0  0  0
    1.5652   -0.5323   -8.7002 C   0  0  0  0  0  0  0  0  0  0  0  0
    2.6340   -0.4485   -7.8525 C   0  0  0  0  0  0  0  0  0  0  0  0
    3.8438   -0.4218   -8.4753 O   0  0  0  0  0  0  0  0  0  0  0  0
    5.0069   -0.7926   -7.7319 C   0  0  0  0  0  0  0  0  0  0  0  0
    4.9210   -2.2425   -7.2285 C   0  0  0  0  0  0  0  0  0  0  0  0
    6.2484   -2.9009   -7.6259 C   0  0  0  0  0  0  0  0  0  0  0  0
    6.7177   -2.1526   -8.8880 C   0  0  0  0  0  0  0  0  0  0  0  0
    6.1302   -0.7351   -8.7903 C   0  0  0  0  0  0  0  0  0  0  0  0
    2.4558   -0.3316   -6.4074 C   0  0  0  0  0  0  0  0  0  0  0  0
    3.4345   -0.2717   -5.6380 O   0  0  0  0  0  0  0  0  0  0  0  0
   -0.7732    0.0377    1.2206 C   0  0  0  0  0  0  0  0  0  0  0  0
   -1.7456   -0.8875    1.4262 N   0  0  0  0  0  0  0  0  0  0  0  0
   -2.3592   -0.8859    2.2169 H   0  0  0  0  0  0  0  0  0  0  0  0
   -1.8872   -1.6217    0.7429 H   0  0  0  0  0  0  0  0  0  0  0  0
   -0.5836    1.0029    2.1535 N   0  0  0  0  0  0  0  0  0  0  0  0
    3.2700   -0.0581   -1.1017 H   0  0  0  0  0  0  0  0  0  0  0  0
   -1.7775   -0.0433   -1.2585 H   0  0  0  0  0  0  0  0  0  0  0  0
   -1.3194   -0.1890   -4.1713 H   0  0  0  0  0  0  0  0  0  0  0  0
   -0.9874   -0.3400   -6.4449 H   0  0  0  0  0  0  0  0  0  0  0  0
   -0.5869   -0.5385   -8.8862 H   0  0  0  0  0  0  0  0  0  0  0  0
    1.7192   -0.6293   -9.7715 H   0  0  0  0  0  0  0  0  0  0  0  0
    5.1507   -0.0567   -6.9160 H   0  0  0  0  0  0  0  0  0  0  0  0
    4.0628   -2.7537   -7.6998 H   0  0  0  0  0  0  0  0  0  0  0  0
    4.7412   -2.2771   -6.1417 H   0  0  0  0  0  0  0  0  0  0  0  0
    6.9887   -2.7991   -6.8149 H   0  0  0  0  0  0  0  0  0  0  0  0
    6.1323   -3.9785   -7.8110 H   0  0  0  0  0  0  0  0  0  0  0  0
    7.8141   -2.1350   -8.9658 H   0  0  0  0  0  0  0  0  0  0  0  0
    6.3462   -2.6626   -9.7932 H   0  0  0  0  0  0  0  0  0  0  0  0
    6.8944    0.0010   -8.5000 H   0  0  0  0  0  0  0  0  0  0  0  0
    5.7256   -0.3966   -9.7612 H   0  0  0  0  0  0  0  0  0  0  0  0
    0.1255    1.7127    2.0075 H   0  0  0  0  0  0  0  0  0  0  0  0
   -1.0245    0.9998    3.0530 H   0  0  0  0  0  0  0  0  0  0  0  0
  1  2  1  0  0  0  0
  1 25  1  0  0  0  0
  2  3  1  0  0  0  0
  4 30  1  0  0  0  0
  4  2  2  0  0  0  0
  5  4  1  0  0  0  0
  6  5  2  0  0  0  0
  6  7  1  0  0  0  0
  7  1  2  0  0  0  0
  8  6  1  0  0  0  0
  9  8  2  0  0  0  0
  9 10  1  0  0  0  0
 10  5  1  0  0  0  0
 11 10  1  0  0  0  0
 12  9  1  1  0  0  0
 13 33  1  0  0  0  0
 13 12  1  0  0  0  0
 14 13  2  0  0  0  0
 15 14  1  0  0  0  0
 15 16  2  0  0  0  0
 16 23  1  0  0  0  0
 17 16  1  0  0  0  0
 17 18  1  0  0  0  0
 18 19  1  0  0  0  0
 18 36  1  0  0  0  0
 19 38  1  0  0  0  0
 20 19  1  0  0  0  0
 20 39  1  0  0  0  0
 21 22  1  0  0  0  0
 21 20  1  0  0  0  0
 22 43  1  0  0  0  0
 22 18  1  0  0  0  0
 23 12  1  0  0  0  0
 23 24  2  0  0  0  0
 25 26  2  0  0  0  0
 25 29  1  0  0  0  0
 26 27  1  0  0  0  0
 28 26  1  0  0  0  0
 29 46  1  0  0  0  0
 31  7  1  0  0  0  0
 32  8  1  0  0  0  0
 34 14  1  0  0  0  0
 35 15  1  0  0  0  0
 37 19  1  0  0  0  0
 40 20  1  0  0  0  0
 41 21  1  0  0  0  0
 42 21  1  0  0  0  0
 44 22  1  0  0  0  0
 45 29  1  0  0  0  0
M  RAD  1  12   2
M  END
$$$$
