46
rmsd28.gzmat
C          0.00000        0.00000        0.00000
C          1.40350        0.00000        0.00000
Cl         2.20310        0.00000        1.52490
C          2.17970        0.03920       -1.13380
C          1.49270        0.06980       -2.35570
C          0.02050        0.07100       -2.40560
C         -0.69430        0.04220       -1.23190
C         -0.33460        0.09910       -3.78250
C          0.84580        0.11170       -4.53750
N          1.94970        0.10330       -3.63410
H          2.92370        0.10770       -4.00950
C          1.09230        0.11770       -5.93020
C          0.00650        0.12880       -6.84590
C          0.21260        0.12130       -8.19590
C          1.53620        0.09250       -8.71790
C          2.60920        0.09080       -7.87130
O          3.81760        0.13470       -8.49630
C          4.96920       -0.33540       -7.79330
C          4.83650       -1.81880       -7.41200
C          6.15010       -2.47650       -7.85390
C          6.63370       -1.65090       -9.06130
C          6.09050       -0.22790       -8.85030
C          2.43950        0.10950       -6.42100
O          3.42170        0.10650       -5.65380
C         -0.76800       -0.02890        1.22590
N         -0.61260       -1.02530        2.13040
H         -1.04940       -1.03290        3.03190
H          0.06760       -1.75770        1.95820
N         -1.69300        0.93570        1.45960
H          3.26790        0.05150       -1.10190
H         -1.78030        0.02350       -1.25300
H         -1.32720        0.10590       -4.16820
H         -1.00420        0.14370       -6.44230
H         -0.61620        0.13380       -8.89280
H          1.68480        0.07450       -9.79410
H          5.14120        0.32400       -6.91950
H          3.97010       -2.26530       -7.93180
H          4.64430       -1.93770       -6.33360
H          6.89180       -2.44330       -7.03850
H          6.01370       -3.53610       -8.11140
H          7.72910       -1.66160       -9.14850
H          6.23870       -2.07800       -9.99870
H          6.87790        0.45930       -8.50780
H          5.69210        0.19680       -9.78970
H         -1.80490        1.68940        0.79170
H         -2.29690        0.95030        2.25760
