rmsd198.gzmat
 OpenBabel08211713363D

 46 49  0  0  1  0  0  0  0  0999 V2000
    0.0000    0.0000    0.0000 C   0  0  0  0  0  0  0  0  0  0  0  0
    1.4035    0.0000    0.0000 C   0  0  0  0  0  0  0  0  0  0  0  0
    2.1985    0.0000    1.5273 Cl  0  0  0  0  0  0  0  0  0  0  0  0
    2.1802   -0.0390   -1.1337 C   0  0  0  0  0  0  0  0  0  0  0  0
    1.4927   -0.0722   -2.3550 C   0  0  0  0  0  0  0  0  0  0  0  0
    0.0207   -0.0866   -2.4043 C   0  0  0  0  0  0  0  0  0  0  0  0
   -0.6943   -0.0551   -1.2304 C   0  0  0  0  0  0  0  0  0  0  0  0
   -0.3346   -0.1238   -3.7807 C   0  0  0  0  0  0  0  0  0  0  0  0
    0.8455   -0.1294   -4.5366 C   0  0  0  0  0  0  0  0  0  0  0  0
    1.9500   -0.1011   -3.6339 N   0  0  0  0  0  0  0  0  0  0  0  0
    2.9232   -0.0840   -4.0082 H   0  0  0  0  0  0  0  0  0  0  0  0
    1.0898   -0.1494   -5.9295 C   0  0  2  0  0  0  0  0  0  0  0  0
    0.0026   -0.2078   -6.8421 C   0  0  0  0  0  0  0  0  0  0  0  0
    0.2059   -0.2208   -8.1923 C   0  0  0  0  0  0  0  0  0  0  0  0
    1.5275   -0.1677   -8.7180 C   0  0  0  0  0  0  0  0  0  0  0  0
    2.6021   -0.1207   -7.8745 C   0  0  0  0  0  0  0  0  0  0  0  0
    3.8083   -0.1474   -8.5037 O   0  0  0  0  0  0  0  0  0  0  0  0
    4.9622    0.3278   -7.8058 C   0  0  0  0  0  0  0  0  0  0  0  0
    6.0738    0.2245   -8.8729 C   0  0  0  0  0  0  0  0  0  0  0  0
    6.4830    1.6646   -9.2192 C   0  0  0  0  0  0  0  0  0  0  0  0
    6.0393    2.5283   -8.0240 C   0  0  0  0  0  0  0  0  0  0  0  0
    4.8234    1.8100   -7.4218 C   0  0  0  0  0  0  0  0  0  0  0  0
    2.4354   -0.1138   -6.4232 C   0  0  0  0  0  0  0  0  0  0  0  0
    3.4187   -0.0712   -5.6587 O   0  0  0  0  0  0  0  0  0  0  0  0
   -0.7658    0.0499    1.2273 C   0  0  0  0  0  0  0  0  0  0  0  0
   -0.6161    1.0710    2.1053 N   0  0  0  0  0  0  0  0  0  0  0  0
   -1.0558    1.1018    3.0047 H   0  0  0  0  0  0  0  0  0  0  0  0
    0.0610    1.8015    1.9141 H   0  0  0  0  0  0  0  0  0  0  0  0
   -1.6802   -0.9173    1.4880 N   0  0  0  0  0  0  0  0  0  0  0  0
    3.2686   -0.0504   -1.1033 H   0  0  0  0  0  0  0  0  0  0  0  0
   -1.7806   -0.0450   -1.2523 H   0  0  0  0  0  0  0  0  0  0  0  0
   -1.3270   -0.1390   -4.1662 H   0  0  0  0  0  0  0  0  0  0  0  0
   -1.0064   -0.2440   -6.4353 H   0  0  0  0  0  0  0  0  0  0  0  0
   -0.6236   -0.2707   -8.8865 H   0  0  0  0  0  0  0  0  0  0  0  0
    1.6742   -0.1715   -9.7948 H   0  0  0  0  0  0  0  0  0  0  0  0
    5.1400   -0.3344   -6.9353 H   0  0  0  0  0  0  0  0  0  0  0  0
    5.7061   -0.3190   -9.7613 H   0  0  0  0  0  0  0  0  0  0  0  0
    6.9249   -0.3535   -8.4830 H   0  0  0  0  0  0  0  0  0  0  0  0
    7.5627    1.7502   -9.4060 H   0  0  0  0  0  0  0  0  0  0  0  0
    5.9755    1.9976  -10.1409 H   0  0  0  0  0  0  0  0  0  0  0  0
    6.8503    2.6092   -7.2817 H   0  0  0  0  0  0  0  0  0  0  0  0
    5.7941    3.5548   -8.3331 H   0  0  0  0  0  0  0  0  0  0  0  0
    4.7625    1.9317   -6.3282 H   0  0  0  0  0  0  0  0  0  0  0  0
    3.8791    2.2158   -7.8270 H   0  0  0  0  0  0  0  0  0  0  0  0
   -1.7845   -1.6907    0.8415 H   0  0  0  0  0  0  0  0  0  0  0  0
   -2.2812   -0.9186    2.2887 H   0  0  0  0  0  0  0  0  0  0  0  0
  1  2  1  0  0  0  0
  1 25  1  0  0  0  0
  2  3  1  0  0  0  0
  4 30  1  0  0  0  0
  4  2  2  0  0  0  0
  5  4  1  0  0  0  0
  6  5  2  0  0  0  0
  6  7  1  0  0  0  0
  7  1  2  0  0  0  0
  8  6  1  0  0  0  0
  9  8  2  0  0  0  0
  9 10  1  0  0  0  0
 10  5  1  0  0  0  0
 11 10  1  0  0  0  0
 12  9  1  1  0  0  0
 13 33  1  0  0  0  0
 13 12  1  0  0  0  0
 14 13  2  0  0  0  0
 15 14  1  0  0  0  0
 15 16  2  0  0  0  0
 16 23  1  0  0  0  0
 17 16  1  0  0  0  0
 17 18  1  0  0  0  0
 18 22  1  0  0  0  0
 18 36  1  0  0  0  0
 19 38  1  0  0  0  0
 19 18  1  0  0  0  0
 20 19  1  0  0  0  0
 20 21  1  0  0  0  0
 21 22  1  0  0  0  0
 21 41  1  0  0  0  0
 22 43  1  0  0  0  0
 23 12  1  0  0  0  0
 23 24  2  0  0  0  0
 25 29  2  0  0  0  0
 25 26  1  0  0  0  0
 26 27  1  0  0  0  0
 28 26  1  0  0  0  0
 29 46  1  0  0  0  0
 31  7  1  0  0  0  0
 32  8  1  0  0  0  0
 34 14  1  0  0  0  0
 35 15  1  0  0  0  0
 37 19  1  0  0  0  0
 39 20  1  0  0  0  0
 40 20  1  0  0  0  0
 42 21  1  0  0  0  0
 44 22  1  0  0  0  0
 45 29  1  0  0  0  0
M  RAD  1  12   2
M  END
$$$$
