46
rmsd183.gzmat
C          0.00000        0.00000        0.00000
C          1.40340        0.00000        0.00000
Cl         2.19790        0.00000        1.52740
C          2.17930        0.04180       -1.13380
C          1.49170        0.06880       -2.35500
C          0.01990        0.06910       -2.40450
C         -0.69490        0.04440       -1.23030
C         -0.33540        0.10420       -3.78120
C          0.84470        0.12840       -4.53680
N          1.94860        0.10160       -3.63380
H          2.92240        0.12720       -4.00840
C          1.09070        0.17980       -5.92880
C          0.00490        0.19220       -6.84460
C          0.21060        0.26330       -8.19280
C          1.53390        0.32590       -8.71300
C          2.60720        0.29650       -7.86730
O          3.81480        0.27940       -8.49550
C          4.97040        0.70440       -7.77090
C          6.09590        0.62350       -8.82630
C          6.67840        2.04030       -8.96060
C          6.18920        2.82370       -7.72770
C          4.85640        2.17400       -7.33410
C          2.43760        0.22030       -6.41870
O          3.41960        0.20260       -5.65150
C         -0.76400       -0.02900        1.22940
N         -1.66830        0.95080        1.47930
H         -2.26460        0.97110        2.28320
H         -1.76710        1.71540        0.82150
N         -0.62160       -1.03950        2.12050
H          3.26730        0.06080       -1.10410
H         -1.78130        0.03690       -1.25170
H         -1.32800        0.10940       -4.16610
H         -1.00470        0.14180       -6.44130
H         -0.61780        0.27370       -8.89020
H          1.68200        0.38980       -9.78790
H          5.13030        0.00860       -6.92330
H          5.69350        0.25820       -9.78810
H          6.86240       -0.10140       -8.51580
H          7.77560        2.02620       -9.02360
H          6.31720        2.52000       -9.88620
H          6.91630        2.74370       -6.90220
H          6.07580        3.89540       -7.94320
H          4.64780        2.25630       -6.25550
H          4.00740        2.65560       -7.85100
H          0.04450       -1.78210        1.93490
H         -1.05620       -1.05240        3.02300
