rmsd199.gzmat
 OpenBabel08211713363D

 46 49  0  0  1  0  0  0  0  0999 V2000
    0.0000    0.0000    0.0000 C   0  0  0  0  0  0  0  0  0  0  0  0
    1.4031    0.0000    0.0000 C   0  0  0  0  0  0  0  0  0  0  0  0
    2.1953    0.0000    1.5284 Cl  0  0  0  0  0  0  0  0  0  0  0  0
    2.1774   -0.0374   -1.1349 C   0  0  0  0  0  0  0  0  0  0  0  0
    1.4862   -0.0665   -2.3540 C   0  0  0  0  0  0  0  0  0  0  0  0
    0.0145   -0.0704   -2.4040 C   0  0  0  0  0  0  0  0  0  0  0  0
   -0.6981   -0.0450   -1.2278 C   0  0  0  0  0  0  0  0  0  0  0  0
   -0.3392   -0.1041   -3.7815 C   0  0  0  0  0  0  0  0  0  0  0  0
    0.8417   -0.1237   -4.5365 C   0  0  0  0  0  0  0  0  0  0  0  0
    1.9438   -0.1011   -3.6322 N   0  0  0  0  0  0  0  0  0  0  0  0
    2.9194   -0.1064   -4.0041 H   0  0  0  0  0  0  0  0  0  0  0  0
    1.0931   -0.1616   -5.9286 C   0  0  2  0  0  0  0  0  0  0  0  0
    0.0128   -0.2046   -6.8499 C   0  0  0  0  0  0  0  0  0  0  0  0
    0.2278   -0.2510   -8.1979 C   0  0  0  0  0  0  0  0  0  0  0  0
    1.5543   -0.2460   -8.7131 C   0  0  0  0  0  0  0  0  0  0  0  0
    2.6228   -0.2049   -7.8611 C   0  0  0  0  0  0  0  0  0  0  0  0
    3.8323   -0.2577   -8.4827 O   0  0  0  0  0  0  0  0  0  0  0  0
    4.9990    0.1399   -7.7594 C   0  0  0  0  0  0  0  0  0  0  0  0
    6.1289   -0.0382   -8.7974 C   0  0  0  0  0  0  0  0  0  0  0  0
    6.6999    1.3626   -9.0701 C   0  0  0  0  0  0  0  0  0  0  0  0
    6.2650    2.2377   -7.8796 C   0  0  0  0  0  0  0  0  0  0  0  0
    4.9470    1.6292   -7.3817 C   0  0  0  0  0  0  0  0  0  0  0  0
    2.4424   -0.1673   -6.4124 C   0  0  0  0  0  0  0  0  0  0  0  0
    3.4211   -0.1373   -5.6405 O   0  0  0  0  0  0  0  0  0  0  0  0
   -0.7567    0.0384    1.2348 C   0  0  0  0  0  0  0  0  0  0  0  0
   -0.6375    1.0793    2.0929 N   0  0  0  0  0  0  0  0  0  0  0  0
   -1.0736    1.1128    2.9942 H   0  0  0  0  0  0  0  0  0  0  0  0
    0.0132    1.8288    1.8832 H   0  0  0  0  0  0  0  0  0  0  0  0
   -1.6244   -0.9625    1.5223 N   0  0  0  0  0  0  0  0  0  0  0  0
    3.2656   -0.0501   -1.1085 H   0  0  0  0  0  0  0  0  0  0  0  0
   -1.7843   -0.0360   -1.2452 H   0  0  0  0  0  0  0  0  0  0  0  0
   -1.3314   -0.1115   -4.1680 H   0  0  0  0  0  0  0  0  0  0  0  0
   -1.0002   -0.2016   -6.4525 H   0  0  0  0  0  0  0  0  0  0  0  0
   -0.5966   -0.2895   -8.8991 H   0  0  0  0  0  0  0  0  0  0  0  0
    1.7093   -0.2781   -9.7882 H   0  0  0  0  0  0  0  0  0  0  0  0
    5.1172   -0.5289   -6.8842 H   0  0  0  0  0  0  0  0  0  0  0  0
    5.7360   -0.5037   -9.7190 H   0  0  0  0  0  0  0  0  0  0  0  0
    6.8999   -0.7194   -8.4081 H   0  0  0  0  0  0  0  0  0  0  0  0
    7.7928    1.3443   -9.1840 H   0  0  0  0  0  0  0  0  0  0  0  0
    6.2910    1.7672  -10.0115 H   0  0  0  0  0  0  0  0  0  0  0  0
    7.0271    2.2153   -7.0828 H   0  0  0  0  0  0  0  0  0  0  0  0
    6.1457    3.2912   -8.1705 H   0  0  0  0  0  0  0  0  0  0  0  0
    4.8062    1.7597   -6.2963 H   0  0  0  0  0  0  0  0  0  0  0  0
    4.0766    2.1080   -7.8646 H   0  0  0  0  0  0  0  0  0  0  0  0
   -1.7031   -1.7497    0.8888 H   0  0  0  0  0  0  0  0  0  0  0  0
   -2.2127   -0.9785    2.3324 H   0  0  0  0  0  0  0  0  0  0  0  0
  1  2  1  0  0  0  0
  1 25  1  0  0  0  0
  2  3  1  0  0  0  0
  4 30  1  0  0  0  0
  4  2  2  0  0  0  0
  5  4  1  0  0  0  0
  6  5  2  0  0  0  0
  6  7  1  0  0  0  0
  7  1  2  0  0  0  0
  8  6  1  0  0  0  0
  9  8  2  0  0  0  0
  9 10  1  0  0  0  0
 10  5  1  0  0  0  0
 11 10  1  0  0  0  0
 12  9  1  1  0  0  0
 13 33  1  0  0  0  0
 13 12  1  0  0  0  0
 14 13  2  0  0  0  0
 15 14  1  0  0  0  0
 15 16  2  0  0  0  0
 16 23  1  0  0  0  0
 17 16  1  0  0  0  0
 17 18  1  0  0  0  0
 18 22  1  0  0  0  0
 18 36  1  0  0  0  0
 19 38  1  0  0  0  0
 19 18  1  0  0  0  0
 20 19  1  0  0  0  0
 20 21  1  0  0  0  0
 21 22  1  0  0  0  0
 21 41  1  0  0  0  0
 22 43  1  0  0  0  0
 23 12  1  0  0  0  0
 23 24  2  0  0  0  0
 25 29  2  0  0  0  0
 25 26  1  0  0  0  0
 26 27  1  0  0  0  0
 28 26  1  0  0  0  0
 29 46  1  0  0  0  0
 31  7  1  0  0  0  0
 32  8  1  0  0  0  0
 34 14  1  0  0  0  0
 35 15  1  0  0  0  0
 37 19  1  0  0  0  0
 39 20  1  0  0  0  0
 40 20  1  0  0  0  0
 42 21  1  0  0  0  0
 44 22  1  0  0  0  0
 45 29  1  0  0  0  0
M  RAD  1  12   2
M  END
$$$$
