46
rmsd81.gzmat
C          0.00000        0.00000        0.00000
C          1.40330        0.00000        0.00000
Cl         2.19960        0.00000        1.52650
C          2.17890       -0.04370       -1.13360
C          1.48950       -0.07850       -2.35370
C          0.01770       -0.07320       -2.40490
C         -0.69610       -0.04180       -1.23010
C         -0.33510       -0.11280       -3.78260
C          0.84630       -0.14480       -4.53600
N          1.94830       -0.11940       -3.63090
H          2.92300       -0.16770       -4.00230
C          1.09930       -0.19420       -5.92720
C          0.02010       -0.16480       -6.85070
C          0.23520       -0.21080       -8.19840
C          1.56010       -0.29870       -8.71040
C          2.62690       -0.34220       -7.85620
O          3.82660       -0.49600       -8.47820
C          5.03130       -0.26520       -7.74540
C          6.12940       -0.58890       -8.78280
C          6.84470        0.73590       -9.08970
C          6.54380        1.66400       -7.89870
C          5.17740        1.21620       -7.36160
C          2.44690       -0.27750       -6.40830
O          3.42470       -0.28940       -5.63460
C         -0.76060        0.02060        1.23140
N         -0.62250        1.02740        2.12710
H         -1.05840        1.03440        3.02920
H          0.04440        1.77030        1.94810
N         -1.65620       -0.96710        1.48030
H          3.26700       -0.05830       -1.10480
H         -1.78250       -0.02780       -1.24920
H         -1.32700       -0.12050       -4.16970
H         -0.99140       -0.10090       -6.45470
H         -0.58750       -0.18250       -8.90230
H          1.71480       -0.33770       -9.78530
H          5.05510       -0.94770       -6.87360
H          5.68360       -1.03010       -9.69220
H          6.82570       -1.33900       -8.38010
H          7.92470        0.59510       -9.23490
H          6.45400        1.17520      -10.02340
H          7.31840        1.56070       -7.12080
H          6.53990        2.72140       -8.19880
H          5.08840        1.35500       -6.27180
H          4.35640        1.80210       -7.81140
H         -1.74420       -1.73490        0.82500
H         -2.25460       -0.99090        2.28210
