50

C          0.08840       -0.03830       -0.09480
C          1.62750       -0.00340        0.00100
C          2.12770       -0.07970        1.43690
C          1.62060        1.12980        2.21230
C          0.15700        1.43310        1.98310
C         -0.55410        0.88100        0.96600
C         -2.00190        1.10030        0.80010
C         -2.93380        0.97510        1.77050
C         -4.38480        1.15030        1.64020
C         -5.01590        1.09250        0.43280
C         -6.41970        1.27970        0.16640
C         -6.96370        1.19610       -1.07390
C         -8.38020        1.35360       -1.43100
C         -9.36880        1.08110       -0.54810
C        -10.84650        1.22980       -0.73630
C         -8.62080        1.82010       -2.84770
C         -5.10750        1.37810        2.94470
C         -0.39930        2.43270        2.96520
C         -0.29720        0.41380       -1.51850
C         -0.42510       -1.47800        0.11690
H          2.04120       -0.82340       -0.60930
H          1.99080        0.93740       -0.44990
H          3.22840       -0.12240        1.46670
H          1.76570       -1.00630        1.91320
H          2.21130        2.02790        1.94260
H          1.78690        0.99580        3.29650
H         -2.34560        1.34190       -0.21050
H         -2.58560        0.72050        2.77780
H         -4.40270        0.86800       -0.44650
H         -7.07690        1.52050        1.00670
H         -6.27960        1.02200       -1.91470
H         -9.06690        0.69200        0.43110
H        -11.12320        1.61770       -1.72610
H        -11.26890        1.91590        0.02010
H        -11.36360        0.26390       -0.59430
H         -8.18690        2.82180       -3.00940
H         -9.68430        1.86450       -3.11420
H         -8.12240        1.14310       -3.56270
H         -4.88300        0.56240        3.65360
H         -6.19730        1.43610        2.83480
H         -4.76420        2.31150        3.42380
H          0.33690        3.23850        3.13170
H         -0.57690        1.97110        3.95330
H         -1.34180        2.88370        2.63090
H         -0.07440        1.48180       -1.67110
H         -1.36220        0.24900       -1.73780
H          0.27990       -0.16250       -2.25930
H         -0.11830       -1.87500        1.09620
H         -0.03400       -2.14930       -0.66540
H         -1.52450       -1.51130        0.07940
