50
rmsd15.gzmat
C          0.00000        0.00000        0.00000
C          1.54590        0.00000        0.00000
C          2.09670        0.00000        1.42730
C          1.66040        1.27950        2.15010
C          0.20280        1.56870        1.95800
C         -0.53640        1.01460        0.98490
C         -1.95150        1.36000        0.80810
C         -2.94100        0.72940        1.45320
C         -4.35420        1.05370        1.26480
C         -4.77820        2.32890        1.17890
C         -6.16990        2.71320        1.02390
C         -6.54030        3.88430        0.48210
C         -7.94140        4.27590        0.32990
C         -8.81040        4.18030        1.34900
C        -10.24070        4.57890        1.25630
C         -8.32480        4.79190       -1.01870
C         -5.27000       -0.12330        1.18840
C         -0.36180        2.54160        2.94170
C         -0.47600        0.33600       -1.42590
C         -0.52750       -1.39230        0.39400
H          1.92260       -0.87360       -0.56020
H          1.91500        0.89290       -0.53970
H          3.19850       -0.07760        1.41580
H          1.73300       -0.88840        1.97710
H          2.24960        2.14340        1.77490
H          1.90040        1.19880        3.22920
H         -2.13970        2.16460        0.09370
H         -2.73510       -0.08000        2.15550
H         -4.06300        3.15210        1.23110
H         -6.91510        1.99510        1.37160
H         -5.81100        4.60540        0.11220
H         -8.49360        3.80950        2.32210
H        -10.72940        4.14750        0.37050
H        -10.34230        5.67240        1.17930
H        -10.81820        4.25970        2.13330
H         -7.47360        4.84640       -1.70960
H         -8.75860        5.80010       -0.95350
H         -9.07840        4.14130       -1.48770
H         -5.84050       -0.24180        2.12120
H         -4.73160       -1.06430        1.01360
H         -5.99780       -0.01750        0.37070
H          0.33530        3.36240        3.15420
H         -0.58370        2.03950        3.89520
H         -1.30070        2.99750        2.59680
H         -0.20380        1.35990       -1.70160
H         -1.56460        0.24670       -1.51650
H         -0.03000       -0.34170       -2.16050
H         -0.26410       -1.63580        1.42850
H         -0.11400       -2.17150       -0.25220
H         -1.61930       -1.43760        0.31400
