rmsd8.gzmat
 OpenBabel08211713423D

 50 50  0  0  0  0  0  0  0  0999 V2000
    0.0000    0.0000    0.0000 C   0  0  0  0  0  0  0  0  0  0  0  0
    1.5457    0.0000    0.0000 C   0  0  0  0  0  0  0  0  0  0  0  0
    2.0975    0.0000    1.4270 C   0  0  0  0  0  0  0  0  0  0  0  0
    1.6601    1.2778    2.1521 C   0  0  0  0  0  0  0  0  0  0  0  0
    0.2003    1.5602    1.9662 C   0  0  0  0  0  0  0  0  0  0  0  0
   -0.5401    1.0023    0.9966 C   0  0  0  0  0  0  0  0  0  0  0  0
   -1.9662    1.3104    0.8396 C   0  0  0  0  0  0  0  0  0  0  0  0
   -2.9156    0.7216    1.5772 C   0  0  0  0  0  0  0  0  0  0  0  0
   -4.3434    0.9904    1.4070 C   0  0  0  0  0  0  0  0  0  0  0  0
   -4.9139    0.9639    0.1870 C   0  0  0  0  0  0  0  0  0  0  0  0
   -6.3304    1.1622   -0.0541 C   0  0  0  0  0  0  0  0  0  0  0  0
   -6.8967    0.9393   -1.2521 C   0  0  0  0  0  0  0  0  0  0  0  0
   -8.3288    1.1027   -1.4951 C   0  0  0  0  0  0  0  0  0  0  0  0
   -9.0129    2.1553   -1.0172 C   0  0  0  0  0  0  0  0  0  0  0  0
  -10.4704    2.3636   -1.2317 C   0  0  0  0  0  0  0  0  0  0  0  0
   -8.9660    0.0284   -2.3156 C   0  0  0  0  0  0  0  0  0  0  0  0
   -5.0947    1.2502    2.6702 C   0  0  0  0  0  0  0  0  0  0  0  0
   -0.3628    2.5317    2.9525 C   0  0  0  0  0  0  0  0  0  0  0  0
   -0.4787    0.3493   -1.4222 C   0  0  0  0  0  0  0  0  0  0  0  0
   -0.5267   -1.3965    0.3794 C   0  0  0  0  0  0  0  0  0  0  0  0
    1.9211   -0.8752   -0.5584 H   0  0  0  0  0  0  0  0  0  0  0  0
    1.9170    0.8906   -0.5413 H   0  0  0  0  0  0  0  0  0  0  0  0
    3.1993   -0.0765    1.4147 H   0  0  0  0  0  0  0  0  0  0  0  0
    1.7354   -0.8895    1.9762 H   0  0  0  0  0  0  0  0  0  0  0  0
    2.2458    2.1435    1.7763 H   0  0  0  0  0  0  0  0  0  0  0  0
    1.9022    1.1965    3.2309 H   0  0  0  0  0  0  0  0  0  0  0  0
   -2.1993    2.0503    0.0717 H   0  0  0  0  0  0  0  0  0  0  0  0
   -2.6662    0.0006    2.3575 H   0  0  0  0  0  0  0  0  0  0  0  0
   -4.3042    0.7626   -0.6965 H   0  0  0  0  0  0  0  0  0  0  0  0
   -6.9336    1.4868    0.7956 H   0  0  0  0  0  0  0  0  0  0  0  0
   -6.3130    0.6017   -2.1092 H   0  0  0  0  0  0  0  0  0  0  0  0
   -8.5157    2.9281   -0.4337 H   0  0  0  0  0  0  0  0  0  0  0  0
  -10.7653    2.1742   -2.2738 H   0  0  0  0  0  0  0  0  0  0  0  0
  -10.7834    3.3874   -0.9897 H   0  0  0  0  0  0  0  0  0  0  0  0
  -11.0623    1.6830   -0.6009 H   0  0  0  0  0  0  0  0  0  0  0  0
   -9.3293    0.4245   -3.2747 H   0  0  0  0  0  0  0  0  0  0  0  0
   -9.8290   -0.4097   -1.7936 H   0  0  0  0  0  0  0  0  0  0  0  0
   -8.2771   -0.7954   -2.5430 H   0  0  0  0  0  0  0  0  0  0  0  0
   -5.7196    2.1515    2.5902 H   0  0  0  0  0  0  0  0  0  0  0  0
   -4.4314    1.3991    3.5324 H   0  0  0  0  0  0  0  0  0  0  0  0
   -5.7615    0.4100    2.9141 H   0  0  0  0  0  0  0  0  0  0  0  0
    0.3163    3.3768    3.1257 H   0  0  0  0  0  0  0  0  0  0  0  0
   -0.5389    2.0423    3.9214 H   0  0  0  0  0  0  0  0  0  0  0  0
   -1.3239    2.9550    2.6273 H   0  0  0  0  0  0  0  0  0  0  0  0
   -0.2323    1.3845   -1.6795 H   0  0  0  0  0  0  0  0  0  0  0  0
   -1.5637    0.2302   -1.5186 H   0  0  0  0  0  0  0  0  0  0  0  0
   -0.0116   -0.3031   -2.1664 H   0  0  0  0  0  0  0  0  0  0  0  0
   -0.2169   -1.6740    1.3922 H   0  0  0  0  0  0  0  0  0  0  0  0
   -0.1578   -2.1623   -0.3085 H   0  0  0  0  0  0  0  0  0  0  0  0
   -1.6224   -1.4248    0.3555 H   0  0  0  0  0  0  0  0  0  0  0  0
  1  2  1  0  0  0  0
  1 20  1  0  0  0  0
  1  6  1  0  0  0  0
  2  3  1  0  0  0  0
  3 24  1  0  0  0  0
  3  4  1  0  0  0  0
  4 26  1  0  0  0  0
  5  4  1  0  0  0  0
  5 18  1  0  0  0  0
  6  5  2  0  0  0  0
  7  6  1  0  0  0  0
  7  8  2  0  0  0  0
  8 28  1  0  0  0  0
  9  8  1  0  0  0  0
  9 17  1  0  0  0  0
 10  9  2  0  0  0  0
 11 10  1  0  0  0  0
 11 30  1  0  0  0  0
 12 11  2  0  0  0  0
 13 12  1  0  0  0  0
 13 14  2  0  0  0  0
 14 32  1  0  0  0  0
 15 14  1  0  0  0  0
 15 34  1  0  0  0  0
 15 35  1  0  0  0  0
 16 37  1  0  0  0  0
 16 13  1  0  0  0  0
 17 41  1  0  0  0  0
 17 40  1  0  0  0  0
 18 42  1  0  0  0  0
 18 43  1  0  0  0  0
 19  1  1  0  0  0  0
 20 48  1  0  0  0  0
 21  2  1  0  0  0  0
 22  2  1  0  0  0  0
 23  3  1  0  0  0  0
 25  4  1  0  0  0  0
 27  7  1  0  0  0  0
 29 10  1  0  0  0  0
 31 12  1  0  0  0  0
 33 15  1  0  0  0  0
 36 16  1  0  0  0  0
 38 16  1  0  0  0  0
 39 17  1  0  0  0  0
 44 18  1  0  0  0  0
 45 19  1  0  0  0  0
 46 19  1  0  0  0  0
 47 19  1  0  0  0  0
 49 20  1  0  0  0  0
 50 20  1  0  0  0  0
M  END
$$$$
