50
rmsd244.gzmat
C          0.00000        0.00000        0.00000
C          1.54670        0.00000        0.00000
C          2.09960        0.00000        1.42680
C          1.66980        1.28630        2.14130
C          0.20490        1.54940        1.97560
C         -0.54010        0.98120        1.01430
C         -1.96810        1.29710        0.89250
C         -2.92390        0.61360        1.53320
C         -4.34370        0.95850        1.43820
C         -4.75720        2.21860        1.67170
C         -6.14050        2.65430        1.63810
C         -6.48490        3.93760        1.83920
C         -7.86570        4.41600        1.81150
C         -8.86340        3.73430        2.39760
C        -10.28180        4.18450        2.40910
C         -8.07470        5.70790        1.08960
C         -5.25570       -0.17300        1.10150
C         -0.36800        2.50690        2.96990
C         -0.47890        0.38640       -1.41260
C         -0.52440       -1.40680        0.34290
H          1.92390       -0.87330       -0.56000
H          1.91630        0.89300       -0.53910
H          3.20060       -0.08530        1.41540
H          1.72910       -0.88290        1.98100
H          2.23980        2.15040        1.73800
H          1.93470        1.22650        3.21580
H         -2.19610        2.14280        0.23960
H         -2.69120       -0.23990        2.17160
H         -4.02490        2.99180        1.91810
H         -6.89520        1.89290        1.43850
H         -5.73170        4.70470        2.02520
H         -8.67060        2.79840        2.91940
H        -10.63890        4.43160        1.39890
H        -10.40810        5.08740        3.02590
H        -10.95720        3.42030        2.81430
H         -7.16220        6.31660        1.04430
H         -8.85020        6.32570        1.56160
H         -8.39000        5.52000        0.05220
H         -5.88460       -0.44620        1.96190
H         -4.71040       -1.07720        0.79840
H         -5.92940        0.08550        0.27150
H          0.34980        3.28570        3.25690
H         -0.66720        1.97670        3.88650
H         -1.26400        3.02040        2.59290
H         -0.21360        1.42120       -1.65140
H         -1.56700        0.29520       -1.50350
H         -0.03040       -0.25980       -2.17300
H         -0.24250       -1.69630        1.36050
H         -0.12600       -2.15860       -0.34440
H         -1.61800       -1.44490        0.28100
