50

C         -0.29780       -0.30360        0.37290
C          1.20290       -0.59890        0.17710
C          2.04840       -0.16260        1.36490
C          1.91060        1.34200        1.57150
C          0.49070        1.85730        1.46910
C         -0.50880        1.13200        0.90050
C         -1.88850        1.62560        0.77380
C         -2.27570        2.84060        0.32400
C         -3.65260        3.32830        0.20500
C         -4.65300        2.84090        0.99390
C         -6.05190        3.18600        0.94770
C         -6.98240        2.65530        1.78040
C         -8.41900        2.96300        1.81260
C         -8.89740        4.15930        1.39920
C        -10.32230        4.61260        1.32580
C         -9.28570        1.85040        2.35400
C         -3.85950        4.39910       -0.83700
C          0.31330        3.23730        2.05000
C         -0.99030       -0.47560       -0.99340
C         -0.90760       -1.31190        1.37030
H          1.33230       -1.67480       -0.02850
H          1.55240       -0.06380       -0.72370
H          3.10580       -0.43250        1.21150
H          1.72140       -0.69270        2.27500
H          2.52480        1.88150        0.82270
H          2.33000        1.63710        2.54890
H         -2.67710        0.89980        1.00380
H         -1.50050        3.52360       -0.04060
H         -4.37500        2.11320        1.76400
H         -6.38180        3.89920        0.18690
H         -6.64560        1.88990        2.49170
H         -8.16040        4.90640        1.08290
H        -11.04040        3.84840        1.65270
H        -10.58790        4.89830        0.29180
H        -10.48380        5.51500        1.94240
H         -8.94060        1.55170        3.35890
H         -9.21280        0.95190        1.71750
H        -10.34510        2.12550        2.43180
H         -3.14880        5.22850       -0.67870
H         -4.87230        4.82070       -0.83210
H         -3.65920        4.00540       -1.84880
H          0.74180        4.00810        1.38360
H          0.86010        3.31880        3.00470
H         -0.73770        3.49750        2.22480
H         -0.63730        0.28220       -1.71010
H         -2.08340       -0.38160       -0.92050
H         -0.76490       -1.47150       -1.40860
H         -0.41120       -1.26060        2.35030
H         -0.80900       -2.34070        0.98620
H         -1.97930       -1.12150        1.53250
