
     RDKit          3D

 50 50  0  0  0  0  0  0  0  0999 V2000
   -0.2978   -0.3036    0.3729 C   0  0  0  0  0  0  0  0  0  0  0  0
    1.2029   -0.5989    0.1771 C   0  0  0  0  0  0  0  0  0  0  0  0
    2.0484   -0.1626    1.3649 C   0  0  0  0  0  0  0  0  0  0  0  0
    1.9106    1.3420    1.5715 C   0  0  0  0  0  0  0  0  0  0  0  0
    0.4907    1.8573    1.4691 C   0  0  0  0  0  0  0  0  0  0  0  0
   -0.5088    1.1320    0.9005 C   0  0  0  0  0  0  0  0  0  0  0  0
   -1.8885    1.6256    0.7738 C   0  0  0  0  0  0  0  0  0  0  0  0
   -2.2757    2.8406    0.3240 C   0  0  0  0  0  0  0  0  0  0  0  0
   -3.6526    3.3283    0.2050 C   0  0  0  0  0  0  0  0  0  0  0  0
   -4.6530    2.8409    0.9939 C   0  0  0  0  0  0  0  0  0  0  0  0
   -6.0519    3.1860    0.9477 C   0  0  0  0  0  0  0  0  0  0  0  0
   -6.9824    2.6553    1.7804 C   0  0  0  0  0  0  0  0  0  0  0  0
   -8.4190    2.9630    1.8126 C   0  0  0  0  0  0  0  0  0  0  0  0
   -8.8974    4.1593    1.3992 C   0  0  0  0  0  0  0  0  0  0  0  0
  -10.3223    4.6126    1.3258 C   0  0  0  0  0  0  0  0  0  0  0  0
   -9.2857    1.8504    2.3540 C   0  0  0  0  0  0  0  0  0  0  0  0
   -3.8595    4.3991   -0.8370 C   0  0  0  0  0  0  0  0  0  0  0  0
    0.3133    3.2373    2.0500 C   0  0  0  0  0  0  0  0  0  0  0  0
   -0.9903   -0.4756   -0.9934 C   0  0  0  0  0  0  0  0  0  0  0  0
   -0.9076   -1.3119    1.3703 C   0  0  0  0  0  0  0  0  0  0  0  0
    1.3323   -1.6748   -0.0285 H   0  0  0  0  0  0  0  0  0  0  0  0
    1.5524   -0.0638   -0.7237 H   0  0  0  0  0  0  0  0  0  0  0  0
    3.1058   -0.4325    1.2115 H   0  0  0  0  0  0  0  0  0  0  0  0
    1.7214   -0.6927    2.2750 H   0  0  0  0  0  0  0  0  0  0  0  0
    2.5248    1.8815    0.8227 H   0  0  0  0  0  0  0  0  0  0  0  0
    2.3300    1.6371    2.5489 H   0  0  0  0  0  0  0  0  0  0  0  0
   -2.6771    0.8998    1.0038 H   0  0  0  0  0  0  0  0  0  0  0  0
   -1.5005    3.5236   -0.0406 H   0  0  0  0  0  0  0  0  0  0  0  0
   -4.3750    2.1132    1.7640 H   0  0  0  0  0  0  0  0  0  0  0  0
   -6.3818    3.8992    0.1869 H   0  0  0  0  0  0  0  0  0  0  0  0
   -6.6456    1.8899    2.4917 H   0  0  0  0  0  0  0  0  0  0  0  0
   -8.1604    4.9064    1.0829 H   0  0  0  0  0  0  0  0  0  0  0  0
  -11.0404    3.8484    1.6527 H   0  0  0  0  0  0  0  0  0  0  0  0
  -10.5879    4.8983    0.2918 H   0  0  0  0  0  0  0  0  0  0  0  0
  -10.4838    5.5150    1.9424 H   0  0  0  0  0  0  0  0  0  0  0  0
   -8.9406    1.5517    3.3589 H   0  0  0  0  0  0  0  0  0  0  0  0
   -9.2128    0.9519    1.7175 H   0  0  0  0  0  0  0  0  0  0  0  0
  -10.3451    2.1255    2.4318 H   0  0  0  0  0  0  0  0  0  0  0  0
   -3.1488    5.2285   -0.6787 H   0  0  0  0  0  0  0  0  0  0  0  0
   -4.8723    4.8207   -0.8321 H   0  0  0  0  0  0  0  0  0  0  0  0
   -3.6592    4.0054   -1.8488 H   0  0  0  0  0  0  0  0  0  0  0  0
    0.7418    4.0081    1.3836 H   0  0  0  0  0  0  0  0  0  0  0  0
    0.8601    3.3188    3.0047 H   0  0  0  0  0  0  0  0  0  0  0  0
   -0.7377    3.4975    2.2248 H   0  0  0  0  0  0  0  0  0  0  0  0
   -0.6373    0.2822   -1.7101 H   0  0  0  0  0  0  0  0  0  0  0  0
   -2.0834   -0.3816   -0.9205 H   0  0  0  0  0  0  0  0  0  0  0  0
   -0.7649   -1.4715   -1.4086 H   0  0  0  0  0  0  0  0  0  0  0  0
   -0.4112   -1.2606    2.3503 H   0  0  0  0  0  0  0  0  0  0  0  0
   -0.8090   -2.3407    0.9862 H   0  0  0  0  0  0  0  0  0  0  0  0
   -1.9793   -1.1215    1.5325 H   0  0  0  0  0  0  0  0  0  0  0  0
  1  2  1  0
  1  6  1  0
  1 19  1  0
  1 20  1  0
  2  3  1  0
  2 21  1  0
  2 22  1  0
  3  4  1  0
  3 23  1  0
  3 24  1  0
  4  5  1  0
  4 25  1  0
  4 26  1  0
  5  6  2  0
  5 18  1  0
  6  7  1  0
  7  8  2  0
  7 27  1  0
  8  9  1  0
  8 28  1  0
  9 10  2  0
  9 17  1  0
 10 11  1  0
 10 29  1  0
 11 12  2  0
 11 30  1  0
 12 13  1  0
 12 31  1  0
 13 14  2  0
 13 16  1  0
 14 15  1  0
 14 32  1  0
 15 33  1  0
 15 34  1  0
 15 35  1  0
 16 36  1  0
 16 37  1  0
 16 38  1  0
 17 39  1  0
 17 40  1  0
 17 41  1  0
 18 42  1  0
 18 43  1  0
 18 44  1  0
 19 45  1  0
 19 46  1  0
 19 47  1  0
 20 48  1  0
 20 49  1  0
 20 50  1  0
M  END

