50
rmsd121.gzmat
C          0.00000        0.00000        0.00000
C          1.54570        0.00000        0.00000
C          2.10140        0.00000        1.42530
C          1.66160        1.27510        2.15350
C          0.19710        1.54120        1.98290
C         -0.54290        0.98440        1.01240
C         -1.97050        1.28690        0.85920
C         -2.92450        0.65750        1.55670
C         -4.35110        0.91690        1.36410
C         -4.88010        0.96680        0.12610
C         -6.28580        1.18940       -0.15470
C         -6.81970        0.96530       -1.36680
C         -8.23770        1.17220       -1.66440
C         -8.87090        2.29440       -1.28890
C        -10.29550        2.61160       -1.57360
C         -8.88200        0.06070       -2.42700
C         -5.15080        1.08240        2.61280
C         -0.37340        2.49390        2.98290
C         -0.47600        0.37890       -1.41590
C         -0.52460       -1.40500        0.34880
H          1.92020       -0.87670       -0.55700
H          1.91620        0.89060       -0.54210
H          3.20360       -0.07260        1.40710
H          1.74360       -0.89140        1.97450
H          2.23220        2.14700        1.76880
H          1.92000        1.19840        3.22870
H         -2.20030        2.05990        0.12260
H         -2.67940       -0.09230        2.31000
H         -4.24000        0.81840       -0.74660
H         -6.90350        1.54130        0.67300
H         -6.22070        0.59600       -2.19990
H         -8.33770        3.07410       -0.74360
H        -10.87440        1.74060       -1.90710
H        -10.37400        3.37230       -2.36540
H        -10.80150        3.01470       -0.68480
H         -8.90480        0.28460       -3.50320
H         -9.91770       -0.11340       -2.10340
H         -8.34720       -0.89100       -2.30200
H         -5.67480        2.04990        2.62470
H         -4.53420        1.04250        3.52070
H         -5.91450        0.29550        2.70370
H          0.29550        3.34440        3.16820
H         -0.54200        1.99000        3.94560
H         -1.34040        2.90990        2.66580
H         -0.22630        1.41850       -1.65120
H         -1.56090        0.26560       -1.51700
H         -0.00880       -0.25930       -2.17210
H         -0.19890       -1.71240        1.34770
H         -0.16830       -2.15170       -0.36670
H         -1.62080       -1.42990        0.34020
