
     RDKit          3D

 50 50  0  0  0  0  0  0  0  0999 V2000
    0.0884   -0.0383   -0.0948 C   0  0  0  0  0  0  0  0  0  0  0  0
    1.6275   -0.0034    0.0010 C   0  0  0  0  0  0  0  0  0  0  0  0
    2.1277   -0.0797    1.4369 C   0  0  0  0  0  0  0  0  0  0  0  0
    1.6206    1.1298    2.2123 C   0  0  0  0  0  0  0  0  0  0  0  0
    0.1570    1.4331    1.9831 C   0  0  0  0  0  0  0  0  0  0  0  0
   -0.5541    0.8810    0.9660 C   0  0  0  0  0  0  0  0  0  0  0  0
   -2.0019    1.1003    0.8001 C   0  0  0  0  0  0  0  0  0  0  0  0
   -2.9338    0.9751    1.7705 C   0  0  0  0  0  0  0  0  0  0  0  0
   -4.3848    1.1503    1.6402 C   0  0  0  0  0  0  0  0  0  0  0  0
   -5.0159    1.0925    0.4328 C   0  0  0  0  0  0  0  0  0  0  0  0
   -6.4197    1.2797    0.1664 C   0  0  0  0  0  0  0  0  0  0  0  0
   -6.9637    1.1961   -1.0739 C   0  0  0  0  0  0  0  0  0  0  0  0
   -8.3802    1.3536   -1.4310 C   0  0  0  0  0  0  0  0  0  0  0  0
   -9.3688    1.0811   -0.5481 C   0  0  0  0  0  0  0  0  0  0  0  0
  -10.8465    1.2298   -0.7363 C   0  0  0  0  0  0  0  0  0  0  0  0
   -8.6208    1.8201   -2.8477 C   0  0  0  0  0  0  0  0  0  0  0  0
   -5.1075    1.3781    2.9447 C   0  0  0  0  0  0  0  0  0  0  0  0
   -0.3993    2.4327    2.9652 C   0  0  0  0  0  0  0  0  0  0  0  0
   -0.2972    0.4138   -1.5185 C   0  0  0  0  0  0  0  0  0  0  0  0
   -0.4251   -1.4780    0.1169 C   0  0  0  0  0  0  0  0  0  0  0  0
    2.0412   -0.8234   -0.6093 H   0  0  0  0  0  0  0  0  0  0  0  0
    1.9908    0.9374   -0.4499 H   0  0  0  0  0  0  0  0  0  0  0  0
    3.2284   -0.1224    1.4667 H   0  0  0  0  0  0  0  0  0  0  0  0
    1.7657   -1.0063    1.9132 H   0  0  0  0  0  0  0  0  0  0  0  0
    2.2113    2.0279    1.9426 H   0  0  0  0  0  0  0  0  0  0  0  0
    1.7869    0.9958    3.2965 H   0  0  0  0  0  0  0  0  0  0  0  0
   -2.3456    1.3419   -0.2105 H   0  0  0  0  0  0  0  0  0  0  0  0
   -2.5856    0.7205    2.7778 H   0  0  0  0  0  0  0  0  0  0  0  0
   -4.4027    0.8680   -0.4465 H   0  0  0  0  0  0  0  0  0  0  0  0
   -7.0769    1.5205    1.0067 H   0  0  0  0  0  0  0  0  0  0  0  0
   -6.2796    1.0220   -1.9147 H   0  0  0  0  0  0  0  0  0  0  0  0
   -9.0669    0.6920    0.4311 H   0  0  0  0  0  0  0  0  0  0  0  0
  -11.1232    1.6177   -1.7261 H   0  0  0  0  0  0  0  0  0  0  0  0
  -11.2689    1.9159    0.0201 H   0  0  0  0  0  0  0  0  0  0  0  0
  -11.3636    0.2639   -0.5943 H   0  0  0  0  0  0  0  0  0  0  0  0
   -8.1869    2.8218   -3.0094 H   0  0  0  0  0  0  0  0  0  0  0  0
   -9.6843    1.8645   -3.1142 H   0  0  0  0  0  0  0  0  0  0  0  0
   -8.1224    1.1431   -3.5627 H   0  0  0  0  0  0  0  0  0  0  0  0
   -4.8830    0.5624    3.6536 H   0  0  0  0  0  0  0  0  0  0  0  0
   -6.1973    1.4361    2.8348 H   0  0  0  0  0  0  0  0  0  0  0  0
   -4.7642    2.3115    3.4238 H   0  0  0  0  0  0  0  0  0  0  0  0
    0.3369    3.2385    3.1317 H   0  0  0  0  0  0  0  0  0  0  0  0
   -0.5769    1.9711    3.9533 H   0  0  0  0  0  0  0  0  0  0  0  0
   -1.3418    2.8837    2.6309 H   0  0  0  0  0  0  0  0  0  0  0  0
   -0.0744    1.4818   -1.6711 H   0  0  0  0  0  0  0  0  0  0  0  0
   -1.3622    0.2490   -1.7378 H   0  0  0  0  0  0  0  0  0  0  0  0
    0.2799   -0.1625   -2.2593 H   0  0  0  0  0  0  0  0  0  0  0  0
   -0.1183   -1.8750    1.0962 H   0  0  0  0  0  0  0  0  0  0  0  0
   -0.0340   -2.1493   -0.6654 H   0  0  0  0  0  0  0  0  0  0  0  0
   -1.5245   -1.5113    0.0794 H   0  0  0  0  0  0  0  0  0  0  0  0
  1  2  1  0
  1  6  1  0
  1 19  1  0
  1 20  1  0
  2  3  1  0
  2 21  1  0
  2 22  1  0
  3  4  1  0
  3 23  1  0
  3 24  1  0
  4  5  1  0
  4 25  1  0
  4 26  1  0
  5  6  2  0
  5 18  1  0
  6  7  1  0
  7  8  2  0
  7 27  1  0
  8  9  1  0
  8 28  1  0
  9 10  2  0
  9 17  1  0
 10 11  1  0
 10 29  1  0
 11 12  2  0
 11 30  1  0
 12 13  1  0
 12 31  1  0
 13 14  2  0
 13 16  1  0
 14 15  1  0
 14 32  1  0
 15 33  1  0
 15 34  1  0
 15 35  1  0
 16 36  1  0
 16 37  1  0
 16 38  1  0
 17 39  1  0
 17 40  1  0
 17 41  1  0
 18 42  1  0
 18 43  1  0
 18 44  1  0
 19 45  1  0
 19 46  1  0
 19 47  1  0
 20 48  1  0
 20 49  1  0
 20 50  1  0
M  END

