50

C         -0.01210        0.18390       -0.23250
C          1.52930        0.13410       -0.20120
C          2.07670       -0.23070        1.17160
C          1.66010        0.83450        2.17790
C          0.20600        1.23640        2.07680
C         -0.57030        0.91320        1.00820
C         -2.00920        1.21610        0.95770
C         -2.89990        0.99960        1.95270
C         -4.33090        1.31300        1.92760
C         -4.83110        2.29980        1.12920
C         -6.21250        2.67710        0.96430
C         -6.62200        3.68270        0.15060
C         -8.00110        4.14330       -0.06170
C         -8.95280        3.99350        0.88850
C        -10.40140        4.36420        0.81590
C         -8.24330        4.79930       -1.40080
C         -5.18210        0.47460        2.84840
C         -0.25880        2.05990        3.25100
C         -0.42410        0.91240       -1.52850
C         -0.58880       -1.24680       -0.27070
H          1.87880       -0.57390       -0.97100
H          1.92320        1.12620       -0.48560
H          3.17420       -0.32570        1.14370
H          1.68550       -1.21330        1.48490
H          2.28370        1.74160        2.04960
H          1.86060        0.49630        3.21070
H         -2.39840        1.59310        0.00700
H         -2.54240        0.49870        2.85940
H         -4.11180        2.89030        0.55170
H         -6.97080        2.10860        1.51020
H         -5.85420        4.19660       -0.44230
H         -8.63770        3.55490        1.84220
H        -10.69060        4.80640       -0.14710
H        -10.66740        5.08260        1.61200
H        -11.03970        3.47710        0.98010
H         -7.53710        5.63410       -1.55070
H         -9.26010        5.19700       -1.51040
H         -8.06560        4.08650       -2.22420
H         -4.77690        0.50310        3.87460
H         -5.17000       -0.58460        2.53740
H         -6.22810        0.80250        2.89240
H          0.52470        2.78780        3.52560
H         -0.41920        1.43130        4.14530
H         -1.19010        2.60470        3.05330
H         -0.15380        1.97950       -1.48800
H         -1.50250        0.83690       -1.72950
H          0.09840        0.46270       -2.38810
H         -0.26690       -1.83410        0.60250
H         -0.26060       -1.77470       -1.18140
H         -1.68910       -1.22510       -0.26450
