rmsd94.gzmat
 OpenBabel08211713423D

 50 50  0  0  0  0  0  0  0  0999 V2000
    0.0000    0.0000    0.0000 C   0  0  0  0  0  0  0  0  0  0  0  0
    1.5459    0.0000    0.0000 C   0  0  0  0  0  0  0  0  0  0  0  0
    2.1023    0.0000    1.4250 C   0  0  0  0  0  0  0  0  0  0  0  0
    1.6625    1.2780    2.1479 C   0  0  0  0  0  0  0  0  0  0  0  0
    0.1935    1.5296    1.9919 C   0  0  0  0  0  0  0  0  0  0  0  0
   -0.5480    0.9710    1.0230 C   0  0  0  0  0  0  0  0  0  0  0  0
   -1.9816    1.2513    0.8875 C   0  0  0  0  0  0  0  0  0  0  0  0
   -2.9086    0.7251    1.6967 C   0  0  0  0  0  0  0  0  0  0  0  0
   -4.3376    1.0046    1.5382 C   0  0  0  0  0  0  0  0  0  0  0  0
   -4.9683    0.7358    0.3799 C   0  0  0  0  0  0  0  0  0  0  0  0
   -6.3749    0.9953    0.1332 C   0  0  0  0  0  0  0  0  0  0  0  0
   -7.0194    0.4941   -0.9332 C   0  0  0  0  0  0  0  0  0  0  0  0
   -8.4333    0.7492   -1.2060 C   0  0  0  0  0  0  0  0  0  0  0  0
   -8.9480    1.9883   -1.1541 C   0  0  0  0  0  0  0  0  0  0  0  0
  -10.3690    2.3081   -1.4575 C   0  0  0  0  0  0  0  0  0  0  0  0
   -9.2401   -0.4546   -1.5697 C   0  0  0  0  0  0  0  0  0  0  0  0
   -5.0094    1.5827    2.7382 C   0  0  0  0  0  0  0  0  0  0  0  0
   -0.3754    2.4705    3.0042 C   0  0  0  0  0  0  0  0  0  0  0  0
   -0.4739    0.3889   -1.4139 C   0  0  0  0  0  0  0  0  0  0  0  0
   -0.5267   -1.4068    0.3388 C   0  0  0  0  0  0  0  0  0  0  0  0
    1.9216   -0.8745   -0.5599 H   0  0  0  0  0  0  0  0  0  0  0  0
    1.9164    0.8917   -0.5405 H   0  0  0  0  0  0  0  0  0  0  0  0
    3.2045   -0.0733    1.4088 H   0  0  0  0  0  0  0  0  0  0  0  0
    1.7439   -0.8898    1.9763 H   0  0  0  0  0  0  0  0  0  0  0  0
    2.2234    2.1497    1.7487 H   0  0  0  0  0  0  0  0  0  0  0  0
    1.9330    1.2135    3.2207 H   0  0  0  0  0  0  0  0  0  0  0  0
   -2.2440    1.9234    0.0674 H   0  0  0  0  0  0  0  0  0  0  0  0
   -2.6461    0.0672    2.5250 H   0  0  0  0  0  0  0  0  0  0  0  0
   -4.4159    0.2873   -0.4487 H   0  0  0  0  0  0  0  0  0  0  0  0
   -6.8954    1.6213    0.8597 H   0  0  0  0  0  0  0  0  0  0  0  0
   -6.5178   -0.1498   -1.6569 H   0  0  0  0  0  0  0  0  0  0  0  0
   -8.3255    2.8428   -0.8958 H   0  0  0  0  0  0  0  0  0  0  0  0
  -11.0620    1.6703   -0.8899 H   0  0  0  0  0  0  0  0  0  0  0  0
  -10.5900    2.1536   -2.5244 H   0  0  0  0  0  0  0  0  0  0  0  0
  -10.6204    3.3496   -1.2212 H   0  0  0  0  0  0  0  0  0  0  0  0
   -9.4894   -0.4548   -2.6403 H   0  0  0  0  0  0  0  0  0  0  0  0
  -10.1889   -0.4850   -1.0156 H   0  0  0  0  0  0  0  0  0  0  0  0
   -8.7141   -1.3936   -1.3546 H   0  0  0  0  0  0  0  0  0  0  0  0
   -4.3288    1.6934    3.5928 H   0  0  0  0  0  0  0  0  0  0  0  0
   -5.8472    0.9530    3.0714 H   0  0  0  0  0  0  0  0  0  0  0  0
   -5.4177    2.5812    2.5214 H   0  0  0  0  0  0  0  0  0  0  0  0
    0.2907    3.3229    3.1906 H   0  0  0  0  0  0  0  0  0  0  0  0
   -0.5337    1.9584    3.9644 H   0  0  0  0  0  0  0  0  0  0  0  0
   -1.3468    2.8839    2.6973 H   0  0  0  0  0  0  0  0  0  0  0  0
   -0.2306    1.4324   -1.6392 H   0  0  0  0  0  0  0  0  0  0  0  0
   -1.5574    0.2677   -1.5215 H   0  0  0  0  0  0  0  0  0  0  0  0
    0.0003   -0.2387   -2.1747 H   0  0  0  0  0  0  0  0  0  0  0  0
   -0.2063   -1.7183    1.3384 H   0  0  0  0  0  0  0  0  0  0  0  0
   -0.1677   -2.1505   -0.3782 H   0  0  0  0  0  0  0  0  0  0  0  0
   -1.6228   -1.4300    0.3267 H   0  0  0  0  0  0  0  0  0  0  0  0
  1  2  1  0  0  0  0
  1 20  1  0  0  0  0
  1  6  1  0  0  0  0
  2  3  1  0  0  0  0
  3 24  1  0  0  0  0
  3  4  1  0  0  0  0
  4 26  1  0  0  0  0
  5  4  1  0  0  0  0
  5 18  1  0  0  0  0
  6  5  2  0  0  0  0
  7  6  1  0  0  0  0
  7  8  2  0  0  0  0
  8 28  1  0  0  0  0
  9  8  1  0  0  0  0
  9 17  1  0  0  0  0
 10  9  2  0  0  0  0
 11 10  1  0  0  0  0
 11 30  1  0  0  0  0
 12 11  2  0  0  0  0
 13 14  2  0  0  0  0
 13 12  1  0  0  0  0
 14 32  1  0  0  0  0
 15 35  1  0  0  0  0
 15 14  1  0  0  0  0
 15 33  1  0  0  0  0
 16 38  1  0  0  0  0
 16 13  1  0  0  0  0
 16 37  1  0  0  0  0
 17 40  1  0  0  0  0
 17 39  1  0  0  0  0
 18 42  1  0  0  0  0
 18 43  1  0  0  0  0
 19  1  1  0  0  0  0
 20 48  1  0  0  0  0
 21  2  1  0  0  0  0
 22  2  1  0  0  0  0
 23  3  1  0  0  0  0
 25  4  1  0  0  0  0
 27  7  1  0  0  0  0
 29 10  1  0  0  0  0
 31 12  1  0  0  0  0
 34 15  1  0  0  0  0
 36 16  1  0  0  0  0
 41 17  1  0  0  0  0
 44 18  1  0  0  0  0
 45 19  1  0  0  0  0
 46 19  1  0  0  0  0
 47 19  1  0  0  0  0
 49 20  1  0  0  0  0
 50 20  1  0  0  0  0
M  END
$$$$
