50

C          0.08810       -0.10420       -0.04860
C          1.62630       -0.04740        0.05100
C          2.12000       -0.01780        1.49080
C          1.59750        1.23790        2.17740
C          0.13220        1.50990        1.92110
C         -0.56820        0.88120        0.94180
C         -2.01700        1.07570        0.75390
C         -2.95330        1.00620        1.72550
C         -4.40490        1.15770        1.57450
C         -5.02760        0.99650        0.37210
C         -6.43060        1.15260        0.08290
C         -6.96880        0.94780       -1.14590
C         -8.37680        1.11120       -1.53260
C         -9.19690        1.96730       -0.88030
C        -10.65420        2.21580       -1.11630
C         -8.80490        0.26590       -2.70930
C         -5.13680        1.48910        2.85130
C         -0.43900        2.57010        2.82840
C         -0.29540        0.24220       -1.50220
C         -0.41260       -1.53040        0.26240
H          2.05080       -0.90420       -0.49840
H          1.98260        0.86290       -0.46350
H          3.22100       -0.04730        1.52820
H          1.76470       -0.91230        2.02940
H          2.18080        2.12080        1.84800
H          1.75960        1.18180        3.26910
H         -2.35720        1.24820       -0.27200
H         -2.60900        0.82460        2.74990
H         -4.40650        0.70600       -0.48190
H         -7.09720        1.44360        0.89970
H         -6.29670        0.59710       -1.93980
H         -8.75110        2.57030       -0.08090
H        -11.07530        1.60420       -1.92580
H        -10.84130        3.27680       -1.36080
H        -11.23870        2.00590       -0.20220
H         -9.83900        0.45410       -3.02400
H         -8.71000       -0.80840       -2.47540
H         -8.14890        0.45720       -3.57600
H         -4.80360        2.46240        3.25210
H         -4.90980        0.73780        3.62730
H         -6.22630        1.52760        2.73160
H          0.28810        3.39320        2.94120
H         -0.61680        2.17690        3.84560
H         -1.38430        2.98660        2.45920
H         -0.08170        1.29870       -1.72920
H         -1.35780        0.05220       -1.71310
H          0.29040       -0.37960       -2.19810
H         -0.10590       -1.85440        1.26830
H         -0.01180       -2.25140       -0.46920
H         -1.51150       -1.57700        0.22360
