rmsd92.gzmat
 OpenBabel08211713423D

 50 50  0  0  0  0  0  0  0  0999 V2000
    0.0000    0.0000    0.0000 C   0  0  0  0  0  0  0  0  0  0  0  0
    1.5461    0.0000    0.0000 C   0  0  0  0  0  0  0  0  0  0  0  0
    2.1021    0.0000    1.4254 C   0  0  0  0  0  0  0  0  0  0  0  0
    1.6592    1.2731    2.1556 C   0  0  0  0  0  0  0  0  0  0  0  0
    0.1989    1.5519    1.9724 C   0  0  0  0  0  0  0  0  0  0  0  0
   -0.5404    0.9978    0.9996 C   0  0  0  0  0  0  0  0  0  0  0  0
   -1.9599    1.3316    0.8366 C   0  0  0  0  0  0  0  0  0  0  0  0
   -2.9437    0.6846    1.4744 C   0  0  0  0  0  0  0  0  0  0  0  0
   -4.3566    1.0244    1.3040 C   0  0  0  0  0  0  0  0  0  0  0  0
   -4.8703    1.2765    0.0843 C   0  0  0  0  0  0  0  0  0  0  0  0
   -6.2564    1.6218   -0.1683 C   0  0  0  0  0  0  0  0  0  0  0  0
   -6.6936    1.9998   -1.3813 C   0  0  0  0  0  0  0  0  0  0  0  0
   -8.0820    2.3757   -1.6437 C   0  0  0  0  0  0  0  0  0  0  0  0
   -9.1113    1.6362   -1.2004 C   0  0  0  0  0  0  0  0  0  0  0  0
  -10.5401    1.9723   -1.4437 C   0  0  0  0  0  0  0  0  0  0  0  0
   -8.2666    3.6253   -2.4420 C   0  0  0  0  0  0  0  0  0  0  0  0
   -5.1562    1.0471    2.5645 C   0  0  0  0  0  0  0  0  0  0  0  0
   -0.3706    2.5195    2.9590 C   0  0  0  0  0  0  0  0  0  0  0  0
   -0.4762    0.3610   -1.4204 C   0  0  0  0  0  0  0  0  0  0  0  0
   -0.5283   -1.3977    0.3709 C   0  0  0  0  0  0  0  0  0  0  0  0
    1.9212   -0.8751   -0.5592 H   0  0  0  0  0  0  0  0  0  0  0  0
    1.9166    0.8914   -0.5411 H   0  0  0  0  0  0  0  0  0  0  0  0
    3.2050   -0.0667    1.4080 H   0  0  0  0  0  0  0  0  0  0  0  0
    1.7500   -0.8943    1.9729 H   0  0  0  0  0  0  0  0  0  0  0  0
    2.2391    2.1431    1.7798 H   0  0  0  0  0  0  0  0  0  0  0  0
    1.9054    1.1906    3.2331 H   0  0  0  0  0  0  0  0  0  0  0  0
   -2.1580    2.1590    0.1510 H   0  0  0  0  0  0  0  0  0  0  0  0
   -2.7343   -0.1266    2.1726 H   0  0  0  0  0  0  0  0  0  0  0  0
   -4.2277    1.2249   -0.7980 H   0  0  0  0  0  0  0  0  0  0  0  0
   -6.9410    1.5707    0.6801 H   0  0  0  0  0  0  0  0  0  0  0  0
   -6.0244    2.0629   -2.2400 H   0  0  0  0  0  0  0  0  0  0  0  0
   -8.9415    0.7283   -0.6244 H   0  0  0  0  0  0  0  0  0  0  0  0
  -10.7077    2.3619   -2.4580 H   0  0  0  0  0  0  0  0  0  0  0  0
  -10.8864    2.7449   -0.7406 H   0  0  0  0  0  0  0  0  0  0  0  0
  -11.1964    1.1015   -1.3189 H   0  0  0  0  0  0  0  0  0  0  0  0
   -7.3215    4.1521   -2.6272 H   0  0  0  0  0  0  0  0  0  0  0  0
   -8.9316    4.3306   -1.9231 H   0  0  0  0  0  0  0  0  0  0  0  0
   -8.7189    3.4086   -3.4201 H   0  0  0  0  0  0  0  0  0  0  0  0
   -4.5255    1.1163    3.4611 H   0  0  0  0  0  0  0  0  0  0  0  0
   -5.7605    0.1331    2.6613 H   0  0  0  0  0  0  0  0  0  0  0  0
   -5.8468    1.9019    2.5973 H   0  0  0  0  0  0  0  0  0  0  0  0
    0.3387    3.3193    3.2076 H   0  0  0  0  0  0  0  0  0  0  0  0
   -0.6348    2.0082    3.8960 H   0  0  0  0  0  0  0  0  0  0  0  0
   -1.2866    3.0047    2.5922 H   0  0  0  0  0  0  0  0  0  0  0  0
   -0.2196    1.3949   -1.6724 H   0  0  0  0  0  0  0  0  0  0  0  0
   -1.5626    0.2565   -1.5167 H   0  0  0  0  0  0  0  0  0  0  0  0
   -0.0160   -0.2915   -2.1689 H   0  0  0  0  0  0  0  0  0  0  0  0
   -0.2402   -1.6719    1.3910 H   0  0  0  0  0  0  0  0  0  0  0  0
   -0.1409   -2.1631   -0.3071 H   0  0  0  0  0  0  0  0  0  0  0  0
   -1.6231   -1.4303    0.3204 H   0  0  0  0  0  0  0  0  0  0  0  0
  1  2  1  0  0  0  0
  1 20  1  0  0  0  0
  1  6  1  0  0  0  0
  2  3  1  0  0  0  0
  3 24  1  0  0  0  0
  3  4  1  0  0  0  0
  4 26  1  0  0  0  0
  5  4  1  0  0  0  0
  5 18  1  0  0  0  0
  6  5  2  0  0  0  0
  7  6  1  0  0  0  0
  7  8  2  0  0  0  0
  8 28  1  0  0  0  0
  9  8  1  0  0  0  0
  9 17  1  0  0  0  0
 10  9  2  0  0  0  0
 11 10  1  0  0  0  0
 11 30  1  0  0  0  0
 12 11  2  0  0  0  0
 13 12  1  0  0  0  0
 13 14  2  0  0  0  0
 14 32  1  0  0  0  0
 15 35  1  0  0  0  0
 15 14  1  0  0  0  0
 15 34  1  0  0  0  0
 16 37  1  0  0  0  0
 16 13  1  0  0  0  0
 17 41  1  0  0  0  0
 17 40  1  0  0  0  0
 17 39  1  0  0  0  0
 18 42  1  0  0  0  0
 18 43  1  0  0  0  0
 19  1  1  0  0  0  0
 20 48  1  0  0  0  0
 21  2  1  0  0  0  0
 22  2  1  0  0  0  0
 23  3  1  0  0  0  0
 25  4  1  0  0  0  0
 27  7  1  0  0  0  0
 29 10  1  0  0  0  0
 31 12  1  0  0  0  0
 33 15  1  0  0  0  0
 36 16  1  0  0  0  0
 38 16  1  0  0  0  0
 44 18  1  0  0  0  0
 45 19  1  0  0  0  0
 46 19  1  0  0  0  0
 47 19  1  0  0  0  0
 49 20  1  0  0  0  0
 50 20  1  0  0  0  0
M  END
$$$$
