50
rmsd8.gzmat
C          0.00000        0.00000        0.00000
C          1.54570        0.00000        0.00000
C          2.09750        0.00000        1.42700
C          1.66010        1.27780        2.15210
C          0.20030        1.56020        1.96620
C         -0.54010        1.00230        0.99660
C         -1.96620        1.31040        0.83960
C         -2.91560        0.72160        1.57720
C         -4.34340        0.99040        1.40700
C         -4.91390        0.96390        0.18700
C         -6.33040        1.16220       -0.05410
C         -6.89670        0.93930       -1.25210
C         -8.32880        1.10270       -1.49510
C         -9.01290        2.15530       -1.01720
C        -10.47040        2.36360       -1.23170
C         -8.96600        0.02840       -2.31560
C         -5.09470        1.25020        2.67020
C         -0.36280        2.53170        2.95250
C         -0.47870        0.34930       -1.42220
C         -0.52670       -1.39650        0.37940
H          1.92110       -0.87520       -0.55840
H          1.91700        0.89060       -0.54130
H          3.19930       -0.07650        1.41470
H          1.73540       -0.88950        1.97620
H          2.24580        2.14350        1.77630
H          1.90220        1.19650        3.23090
H         -2.19930        2.05030        0.07170
H         -2.66620        0.00060        2.35750
H         -4.30420        0.76260       -0.69650
H         -6.93360        1.48680        0.79560
H         -6.31300        0.60170       -2.10920
H         -8.51570        2.92810       -0.43370
H        -10.76530        2.17420       -2.27380
H        -10.78340        3.38740       -0.98970
H        -11.06230        1.68300       -0.60090
H         -9.32930        0.42450       -3.27470
H         -9.82900       -0.40970       -1.79360
H         -8.27710       -0.79540       -2.54300
H         -5.71960        2.15150        2.59020
H         -4.43140        1.39910        3.53240
H         -5.76150        0.41000        2.91410
H          0.31630        3.37680        3.12570
H         -0.53890        2.04230        3.92140
H         -1.32390        2.95500        2.62730
H         -0.23230        1.38450       -1.67950
H         -1.56370        0.23020       -1.51860
H         -0.01160       -0.30310       -2.16640
H         -0.21690       -1.67400        1.39220
H         -0.15780       -2.16230       -0.30850
H         -1.62240       -1.42480        0.35550
