
     RDKit          3D

 50 50  0  0  0  0  0  0  0  0999 V2000
   -0.0226    0.5315   -0.2365 C   0  0  0  0  0  0  0  0  0  0  0  0
    1.5192    0.5772   -0.2180 C   0  0  0  0  0  0  0  0  0  0  0  0
    2.1122   -0.1233    0.9965 C   0  0  0  0  0  0  0  0  0  0  0  0
    1.6456    0.5846    2.2622 C   0  0  0  0  0  0  0  0  0  0  0  0
    0.1671    0.9006    2.2766 C   0  0  0  0  0  0  0  0  0  0  0  0
   -0.6051    0.8408    1.1590 C   0  0  0  0  0  0  0  0  0  0  0  0
   -2.0614    1.0473    1.1940 C   0  0  0  0  0  0  0  0  0  0  0  0
   -2.9183    0.4993    2.0861 C   0  0  0  0  0  0  0  0  0  0  0  0
   -4.3671    0.7081    2.1479 C   0  0  0  0  0  0  0  0  0  0  0  0
   -4.9461    1.8420    1.6575 C   0  0  0  0  0  0  0  0  0  0  0  0
   -6.3523    2.1539    1.6025 C   0  0  0  0  0  0  0  0  0  0  0  0
   -6.8425    3.3162    1.1026 C   0  0  0  0  0  0  0  0  0  0  0  0
   -8.2529    3.7210    1.0249 C   0  0  0  0  0  0  0  0  0  0  0  0
   -9.1760    3.2455    1.8925 C   0  0  0  0  0  0  0  0  0  0  0  0
  -10.6472    3.5204    1.9235 C   0  0  0  0  0  0  0  0  0  0  0  0
   -8.5616    4.7074   -0.0770 C   0  0  0  0  0  0  0  0  0  0  0  0
   -5.1441   -0.4111    2.7952 C   0  0  0  0  0  0  0  0  0  0  0  0
   -0.3295    1.3263    3.6350 C   0  0  0  0  0  0  0  0  0  0  0  0
   -0.5026    1.5686   -1.2730 C   0  0  0  0  0  0  0  0  0  0  0  0
   -0.5068   -0.8647   -0.6807 C   0  0  0  0  0  0  0  0  0  0  0  0
    1.9001    0.1402   -1.1561 H   0  0  0  0  0  0  0  0  0  0  0  0
    1.8438    1.6331   -0.2095 H   0  0  0  0  0  0  0  0  0  0  0  0
    3.2129   -0.1339    0.9447 H   0  0  0  0  0  0  0  0  0  0  0  0
    1.7897   -1.1779    1.0186 H   0  0  0  0  0  0  0  0  0  0  0  0
    2.2072    1.5306    2.3964 H   0  0  0  0  0  0  0  0  0  0  0  0
    1.8854   -0.0169    3.1577 H   0  0  0  0  0  0  0  0  0  0  0  0
   -2.4914    1.6490    0.3874 H   0  0  0  0  0  0  0  0  0  0  0  0
   -2.5125   -0.2108    2.8154 H   0  0  0  0  0  0  0  0  0  0  0  0
   -4.2782    2.6187    1.2699 H   0  0  0  0  0  0  0  0  0  0  0  0
   -7.0611    1.4042    1.9656 H   0  0  0  0  0  0  0  0  0  0  0  0
   -6.1214    4.0274    0.6792 H   0  0  0  0  0  0  0  0  0  0  0  0
   -8.8158    2.5802    2.6856 H   0  0  0  0  0  0  0  0  0  0  0  0
  -10.9821    4.1934    1.1224 H   0  0  0  0  0  0  0  0  0  0  0  0
  -10.9470    3.9672    2.8884 H   0  0  0  0  0  0  0  0  0  0  0  0
  -11.2217    2.5809    1.8309 H   0  0  0  0  0  0  0  0  0  0  0  0
   -9.6048    5.0476   -0.0738 H   0  0  0  0  0  0  0  0  0  0  0  0
   -8.3495    4.2682   -1.0668 H   0  0  0  0  0  0  0  0  0  0  0  0
   -7.9165    5.5981    0.0157 H   0  0  0  0  0  0  0  0  0  0  0  0
   -4.7231   -0.6435    3.7886 H   0  0  0  0  0  0  0  0  0  0  0  0
   -5.0674   -1.3374    2.1994 H   0  0  0  0  0  0  0  0  0  0  0  0
   -6.2085   -0.1813    2.9283 H   0  0  0  0  0  0  0  0  0  0  0  0
    0.4102    1.9976    4.1056 H   0  0  0  0  0  0  0  0  0  0  0  0
   -0.4337    0.4616    4.3148 H   0  0  0  0  0  0  0  0  0  0  0  0
   -1.2971    1.8415    3.5977 H   0  0  0  0  0  0  0  0  0  0  0  0
   -0.3000    2.5959   -0.9307 H   0  0  0  0  0  0  0  0  0  0  0  0
   -1.5774    1.4824   -1.4887 H   0  0  0  0  0  0  0  0  0  0  0  0
    0.0325    1.4165   -2.2242 H   0  0  0  0  0  0  0  0  0  0  0  0
   -0.1322   -1.6527   -0.0101 H   0  0  0  0  0  0  0  0  0  0  0  0
   -0.1614   -1.0893   -1.7034 H   0  0  0  0  0  0  0  0  0  0  0  0
   -1.6059   -0.9191   -0.6699 H   0  0  0  0  0  0  0  0  0  0  0  0
  1  2  1  0
  1  6  1  0
  1 19  1  0
  1 20  1  0
  2  3  1  0
  2 21  1  0
  2 22  1  0
  3  4  1  0
  3 23  1  0
  3 24  1  0
  4  5  1  0
  4 25  1  0
  4 26  1  0
  5  6  2  0
  5 18  1  0
  6  7  1  0
  7  8  2  0
  7 27  1  0
  8  9  1  0
  8 28  1  0
  9 10  2  0
  9 17  1  0
 10 11  1  0
 10 29  1  0
 11 12  2  0
 11 30  1  0
 12 13  1  0
 12 31  1  0
 13 14  2  0
 13 16  1  0
 14 15  1  0
 14 32  1  0
 15 33  1  0
 15 34  1  0
 15 35  1  0
 16 36  1  0
 16 37  1  0
 16 38  1  0
 17 39  1  0
 17 40  1  0
 17 41  1  0
 18 42  1  0
 18 43  1  0
 18 44  1  0
 19 45  1  0
 19 46  1  0
 19 47  1  0
 20 48  1  0
 20 49  1  0
 20 50  1  0
M  END

