
     RDKit          3D

 50 50  0  0  0  0  0  0  0  0999 V2000
    0.1216    0.1567   -0.1690 C   0  0  0  0  0  0  0  0  0  0  0  0
    1.6521    0.0920    0.0113 C   0  0  0  0  0  0  0  0  0  0  0  0
    2.0613   -0.2244    1.4431 C   0  0  0  0  0  0  0  0  0  0  0  0
    1.5655    0.8824    2.3654 C   0  0  0  0  0  0  0  0  0  0  0  0
    0.1340    1.2965    2.1088 C   0  0  0  0  0  0  0  0  0  0  0  0
   -0.5396    0.9421    0.9838 C   0  0  0  0  0  0  0  0  0  0  0  0
   -1.9629    1.2641    0.7775 C   0  0  0  0  0  0  0  0  0  0  0  0
   -2.9564    1.0476    1.6672 C   0  0  0  0  0  0  0  0  0  0  0  0
   -4.3869    1.3219    1.4897 C   0  0  0  0  0  0  0  0  0  0  0  0
   -4.9460    1.4838    0.2565 C   0  0  0  0  0  0  0  0  0  0  0  0
   -6.3204    1.7887   -0.0508 C   0  0  0  0  0  0  0  0  0  0  0  0
   -6.7920    1.9247   -1.3160 C   0  0  0  0  0  0  0  0  0  0  0  0
   -8.1749    2.2155   -1.7182 C   0  0  0  0  0  0  0  0  0  0  0  0
   -9.2272    1.8719   -0.9398 C   0  0  0  0  0  0  0  0  0  0  0  0
  -10.6817    2.1327   -1.1796 C   0  0  0  0  0  0  0  0  0  0  0  0
   -8.3064    2.9012   -3.0579 C   0  0  0  0  0  0  0  0  0  0  0  0
   -5.1754    1.3901    2.7740 C   0  0  0  0  0  0  0  0  0  0  0  0
   -0.4329    2.1679    3.2007 C   0  0  0  0  0  0  0  0  0  0  0  0
   -0.1567    0.8357   -1.5259 C   0  0  0  0  0  0  0  0  0  0  0  0
   -0.4705   -1.2680   -0.2047 C   0  0  0  0  0  0  0  0  0  0  0  0
    2.0629   -0.6498   -0.6938 H   0  0  0  0  0  0  0  0  0  0  0  0
    2.0852    1.0679   -0.2723 H   0  0  0  0  0  0  0  0  0  0  0  0
    3.1552   -0.3314    1.5235 H   0  0  0  0  0  0  0  0  0  0  0  0
    1.6290   -1.1903    1.7539 H   0  0  0  0  0  0  0  0  0  0  0  0
    2.2124    1.7767    2.2662 H   0  0  0  0  0  0  0  0  0  0  0  0
    1.6602    0.5797    3.4240 H   0  0  0  0  0  0  0  0  0  0  0  0
   -2.2330    1.6732   -0.2010 H   0  0  0  0  0  0  0  0  0  0  0  0
   -2.6819    0.6258    2.6405 H   0  0  0  0  0  0  0  0  0  0  0  0
   -4.2923    1.3608   -0.6137 H   0  0  0  0  0  0  0  0  0  0  0  0
   -7.0148    1.9366    0.7810 H   0  0  0  0  0  0  0  0  0  0  0  0
   -6.0676    1.8407   -2.1366 H   0  0  0  0  0  0  0  0  0  0  0  0
   -9.0044    1.3243   -0.0169 H   0  0  0  0  0  0  0  0  0  0  0  0
  -10.8790    2.6777   -2.1127 H   0  0  0  0  0  0  0  0  0  0  0  0
  -11.1138    2.7232   -0.3515 H   0  0  0  0  0  0  0  0  0  0  0  0
  -11.2540    1.1883   -1.2115 H   0  0  0  0  0  0  0  0  0  0  0  0
   -7.8024    2.3092   -3.8413 H   0  0  0  0  0  0  0  0  0  0  0  0
   -7.8120    3.8876   -3.0434 H   0  0  0  0  0  0  0  0  0  0  0  0
   -9.3484    3.0489   -3.3682 H   0  0  0  0  0  0  0  0  0  0  0  0
   -4.8180    2.2199    3.4084 H   0  0  0  0  0  0  0  0  0  0  0  0
   -5.0327    0.4655    3.3597 H   0  0  0  0  0  0  0  0  0  0  0  0
   -6.2526    1.5246    2.6174 H   0  0  0  0  0  0  0  0  0  0  0  0
    0.3284    2.8988    3.5251 H   0  0  0  0  0  0  0  0  0  0  0  0
   -0.6897    1.5750    4.0971 H   0  0  0  0  0  0  0  0  0  0  0  0
   -1.3322    2.7142    2.8904 H   0  0  0  0  0  0  0  0  0  0  0  0
    0.1250    1.9004   -1.5035 H   0  0  0  0  0  0  0  0  0  0  0  0
   -1.2132    0.7647   -1.8227 H   0  0  0  0  0  0  0  0  0  0  0  0
    0.4359    0.3445   -2.3144 H   0  0  0  0  0  0  0  0  0  0  0  0
   -0.2414   -1.8224    0.7178 H   0  0  0  0  0  0  0  0  0  0  0  0
   -0.0652   -1.8362   -1.0582 H   0  0  0  0  0  0  0  0  0  0  0  0
   -1.5660   -1.2346   -0.3038 H   0  0  0  0  0  0  0  0  0  0  0  0
  1  2  1  0
  1  6  1  0
  1 19  1  0
  1 20  1  0
  2  3  1  0
  2 21  1  0
  2 22  1  0
  3  4  1  0
  3 23  1  0
  3 24  1  0
  4  5  1  0
  4 25  1  0
  4 26  1  0
  5  6  2  0
  5 18  1  0
  6  7  1  0
  7  8  2  0
  7 27  1  0
  8  9  1  0
  8 28  1  0
  9 10  2  0
  9 17  1  0
 10 11  1  0
 10 29  1  0
 11 12  2  0
 11 30  1  0
 12 13  1  0
 12 31  1  0
 13 14  2  0
 13 16  1  0
 14 15  1  0
 14 32  1  0
 15 33  1  0
 15 34  1  0
 15 35  1  0
 16 36  1  0
 16 37  1  0
 16 38  1  0
 17 39  1  0
 17 40  1  0
 17 41  1  0
 18 42  1  0
 18 43  1  0
 18 44  1  0
 19 45  1  0
 19 46  1  0
 19 47  1  0
 20 48  1  0
 20 49  1  0
 20 50  1  0
M  END

