rmsd189.gzmat
 OpenBabel08211713423D

 50 50  0  0  0  0  0  0  0  0999 V2000
    0.0000    0.0000    0.0000 C   0  0  0  0  0  0  0  0  0  0  0  0
    1.5462    0.0000    0.0000 C   0  0  0  0  0  0  0  0  0  0  0  0
    2.0963    0.0000    1.4279 C   0  0  0  0  0  0  0  0  0  0  0  0
    1.6650    1.2830    2.1472 C   0  0  0  0  0  0  0  0  0  0  0  0
    0.2074    1.5710    1.9569 C   0  0  0  0  0  0  0  0  0  0  0  0
   -0.5364    1.0049    0.9941 C   0  0  0  0  0  0  0  0  0  0  0  0
   -1.9610    1.3279    0.8499 C   0  0  0  0  0  0  0  0  0  0  0  0
   -2.9209    0.6384    1.4771 C   0  0  0  0  0  0  0  0  0  0  0  0
   -4.3459    0.9456    1.3439 C   0  0  0  0  0  0  0  0  0  0  0  0
   -4.8186    2.1745    1.6254 C   0  0  0  0  0  0  0  0  0  0  0  0
   -6.2226    2.5370    1.5760 C   0  0  0  0  0  0  0  0  0  0  0  0
   -6.6718    3.7465    1.9504 C   0  0  0  0  0  0  0  0  0  0  0  0
   -8.0907    4.1054    1.9282 C   0  0  0  0  0  0  0  0  0  0  0  0
   -9.0203    3.2922    2.4539 C   0  0  0  0  0  0  0  0  0  0  0  0
  -10.4805    3.5722    2.4879 C   0  0  0  0  0  0  0  0  0  0  0  0
   -8.4035    5.4280    1.3073 C   0  0  0  0  0  0  0  0  0  0  0  0
   -5.2007   -0.1994    0.9122 C   0  0  0  0  0  0  0  0  0  0  0  0
   -0.3574    2.5532    2.9318 C   0  0  0  0  0  0  0  0  0  0  0  0
   -0.4793    0.3552   -1.4202 C   0  0  0  0  0  0  0  0  0  0  0  0
   -0.5245   -1.3983    0.3765 C   0  0  0  0  0  0  0  0  0  0  0  0
    1.9225   -0.8746   -0.5589 H   0  0  0  0  0  0  0  0  0  0  0  0
    1.9169    0.8920   -0.5400 H   0  0  0  0  0  0  0  0  0  0  0  0
    3.1974   -0.0842    1.4176 H   0  0  0  0  0  0  0  0  0  0  0  0
    1.7274   -0.8855    1.9790 H   0  0  0  0  0  0  0  0  0  0  0  0
    2.2553    2.1446    1.7696 H   0  0  0  0  0  0  0  0  0  0  0  0
    1.9053    1.2058    3.2268 H   0  0  0  0  0  0  0  0  0  0  0  0
   -2.1826    2.1660    0.1865 H   0  0  0  0  0  0  0  0  0  0  0  0
   -2.6873   -0.2034    2.1312 H   0  0  0  0  0  0  0  0  0  0  0  0
   -4.1316    2.9659    1.9331 H   0  0  0  0  0  0  0  0  0  0  0  0
   -6.9151    1.7717    1.2206 H   0  0  0  0  0  0  0  0  0  0  0  0
   -5.9986    4.5334    2.2910 H   0  0  0  0  0  0  0  0  0  0  0  0
   -8.7346    2.3420    2.9061 H   0  0  0  0  0  0  0  0  0  0  0  0
  -10.7323    4.5980    2.1904 H   0  0  0  0  0  0  0  0  0  0  0  0
  -10.8917    3.4212    3.4966 H   0  0  0  0  0  0  0  0  0  0  0  0
  -11.0221    2.8950    1.8102 H   0  0  0  0  0  0  0  0  0  0  0  0
   -8.7737    6.1406    2.0578 H   0  0  0  0  0  0  0  0  0  0  0  0
   -9.1779    5.3320    0.5329 H   0  0  0  0  0  0  0  0  0  0  0  0
   -7.5283    5.8848    0.8274 H   0  0  0  0  0  0  0  0  0  0  0  0
   -5.9108   -0.4882    1.7009 H   0  0  0  0  0  0  0  0  0  0  0  0
   -4.6141   -1.0935    0.6606 H   0  0  0  0  0  0  0  0  0  0  0  0
   -5.7879    0.0562    0.0178 H   0  0  0  0  0  0  0  0  0  0  0  0
    0.3709    3.3259    3.2095 H   0  0  0  0  0  0  0  0  0  0  0  0
   -0.6689    2.0446    3.8563 H   0  0  0  0  0  0  0  0  0  0  0  0
   -1.2434    3.0728    2.5400 H   0  0  0  0  0  0  0  0  0  0  0  0
   -0.2218    1.3880   -1.6770 H   0  0  0  0  0  0  0  0  0  0  0  0
   -1.5665    0.2534   -1.5120 H   0  0  0  0  0  0  0  0  0  0  0  0
   -0.0239   -0.3020   -2.1673 H   0  0  0  0  0  0  0  0  0  0  0  0
   -0.2583   -1.6542    1.4076 H   0  0  0  0  0  0  0  0  0  0  0  0
   -0.1110   -2.1683   -0.2811 H   0  0  0  0  0  0  0  0  0  0  0  0
   -1.6167   -1.4446    0.2991 H   0  0  0  0  0  0  0  0  0  0  0  0
  1 20  1  0  0  0  0
  1  6  1  0  0  0  0
  2  1  1  0  0  0  0
  2  3  1  0  0  0  0
  3 24  1  0  0  0  0
  3  4  1  0  0  0  0
  4 26  1  0  0  0  0
  5  4  1  0  0  0  0
  5 18  1  0  0  0  0
  6  5  2  0  0  0  0
  7  6  1  0  0  0  0
  7  8  2  0  0  0  0
  8 28  1  0  0  0  0
  9  8  1  0  0  0  0
  9 10  2  0  0  0  0
 10 29  1  0  0  0  0
 11 10  1  0  0  0  0
 11 12  2  0  0  0  0
 12 31  1  0  0  0  0
 13 12  1  0  0  0  0
 13 14  2  0  0  0  0
 14 15  1  0  0  0  0
 14 32  1  0  0  0  0
 15 34  1  0  0  0  0
 16 13  1  0  0  0  0
 16 36  1  0  0  0  0
 17  9  1  0  0  0  0
 17 39  1  0  0  0  0
 18 42  1  0  0  0  0
 18 43  1  0  0  0  0
 19  1  1  0  0  0  0
 20 48  1  0  0  0  0
 21  2  1  0  0  0  0
 22  2  1  0  0  0  0
 23  3  1  0  0  0  0
 25  4  1  0  0  0  0
 27  7  1  0  0  0  0
 30 11  1  0  0  0  0
 33 15  1  0  0  0  0
 35 15  1  0  0  0  0
 37 16  1  0  0  0  0
 38 16  1  0  0  0  0
 40 17  1  0  0  0  0
 41 17  1  0  0  0  0
 44 18  1  0  0  0  0
 45 19  1  0  0  0  0
 46 19  1  0  0  0  0
 47 19  1  0  0  0  0
 49 20  1  0  0  0  0
 50 20  1  0  0  0  0
M  END
$$$$
