rmsd21.gzmat
 OpenBabel08211713423D

 43 45  0  0  1  0  0  0  0  0999 V2000
    0.0000    0.0000    0.0000 C   0  0  0  0  0  0  0  0  0  0  0  0
    1.4140    0.0000    0.0000 C   0  0  0  0  0  0  0  0  0  0  0  0
    2.1363    0.0000    1.1774 C   0  0  0  0  0  0  0  0  0  0  0  0
    1.4049    0.0033    2.3700 C   0  0  1  0  0  0  0  0  0  0  0  0
   -0.0339   -0.0025    2.3763 C   0  0  0  0  0  0  0  0  0  0  0  0
   -0.7406   -0.0057    1.1687 C   0  0  0  0  0  0  0  0  0  0  0  0
   -0.4834   -0.0013    3.6961 N   0  0  0  0  0  0  0  0  0  0  0  0
    0.6114    0.0102    4.4770 C   0  0  0  0  0  0  0  0  0  0  0  0
    1.7909    0.0010    3.7064 N   0  0  0  0  0  0  0  0  0  0  0  0
    2.7201    0.0605    4.0625 H   0  0  0  0  0  0  0  0  0  0  0  0
    0.5943    0.0015    5.9295 C   0  0  0  0  0  0  0  0  0  0  0  0
   -0.5888   -0.3642    6.5787 C   0  0  0  0  0  0  0  0  0  0  0  0
   -0.6712   -0.3751    7.9712 C   0  0  0  0  0  0  0  0  0  0  0  0
   -1.9535   -0.7513    8.6541 C   0  0  2  0  0  0  0  0  0  0  0  0
   -1.7585   -0.9525    9.7513 H   0  0  0  0  0  0  0  0  0  0  0  0
   -2.5337   -2.0229    8.0805 C   0  0  0  0  0  0  0  0  0  0  0  0
   -3.6719   -2.2378    7.7593 O   0  0  0  0  0  0  0  0  0  0  0  0
   -1.5819   -2.9810    8.0009 O   0  0  0  0  0  0  0  0  0  0  0  0
   -2.9797    0.3833    8.5292 C   0  0  0  0  0  0  0  0  0  0  0  0
   -2.6557    1.4713    9.5017 C   0  0  0  0  0  0  0  0  0  0  0  0
   -1.9030    1.4377   10.4401 O   0  0  0  0  0  0  0  0  0  0  0  0
   -3.3643    2.5891    9.2095 O   0  0  0  0  0  0  0  0  0  0  0  0
    0.4349   -0.0091    8.7410 C   0  0  0  0  0  0  0  0  0  0  0  0
    1.6172    0.3529    8.1096 C   0  0  0  0  0  0  0  0  0  0  0  0
    1.7057    0.3587    6.7163 C   0  0  0  0  0  0  0  0  0  0  0  0
    2.8221    0.6934    6.0323 O   0  0  0  0  0  0  0  0  0  0  0  0
    3.1045    0.8373    9.1691 Br  0  0  0  0  0  0  0  0  0  0  0  0
   -0.6946    0.0382   -1.3164 C   0  0  0  0  0  0  0  0  0  0  0  0
   -0.6422    0.9797   -2.1990 N   0  0  0  0  0  0  0  0  0  0  0  0
   -1.5314   -1.0540   -1.5749 N   0  0  0  0  0  0  0  0  0  0  0  0
    1.9373   -0.0007   -0.9581 H   0  0  0  0  0  0  0  0  0  0  0  0
    3.2218   -0.0019    1.1840 H   0  0  0  0  0  0  0  0  0  0  0  0
   -1.8315   -0.0094    1.1639 H   0  0  0  0  0  0  0  0  0  0  0  0
   -1.4598   -0.6393    5.9668 H   0  0  0  0  0  0  0  0  0  0  0  0
   -1.9127   -3.8388    7.6300 H   0  0  0  0  0  0  0  0  0  0  0  0
   -3.0175    0.7832    7.4875 H   0  0  0  0  0  0  0  0  0  0  0  0
   -4.0179    0.0122    8.7124 H   0  0  0  0  0  0  0  0  0  0  0  0
   -3.1937    3.3431    9.8274 H   0  0  0  0  0  0  0  0  0  0  0  0
    0.3571    0.0016    9.8345 H   0  0  0  0  0  0  0  0  0  0  0  0
    3.5774    0.9943    6.6004 H   0  0  0  0  0  0  0  0  0  0  0  0
   -0.1477    1.8312   -2.0091 H   0  0  0  0  0  0  0  0  0  0  0  0
   -1.2971   -1.9320   -1.1605 H   0  0  0  0  0  0  0  0  0  0  0  0
   -1.9368   -1.1071   -2.4937 H   0  0  0  0  0  0  0  0  0  0  0  0
  1  2  1  0  0  0  0
  1  6  2  0  0  0  0
  2  3  2  0  0  0  0
  3 32  1  0  0  0  0
  4  3  1  6  0  0  0
  4  5  1  0  0  0  0
  4  9  1  0  0  0  0
  5  7  2  0  0  0  0
  6  5  1  0  0  0  0
  7  8  2  0  0  0  0
  8 11  1  0  0  0  0
  9 10  1  0  0  0  0
  9  8  1  0  0  0  0
 11 12  2  0  0  0  0
 11 25  1  0  0  0  0
 12 13  1  0  0  0  0
 13 14  1  0  0  0  0
 13 23  2  0  0  0  0
 14 15  1  1  0  0  0
 16 14  1  0  0  0  0
 17 16  2  0  0  0  0
 18 16  1  0  0  0  0
 19 14  1  0  0  0  0
 19 37  1  0  0  0  0
 19 20  1  0  0  0  0
 20 21  2  0  0  0  0
 22 20  1  0  0  0  0
 22 38  1  0  0  0  0
 23 39  1  0  0  0  0
 24 23  1  0  0  0  0
 24 27  1  0  0  0  0
 25 24  2  0  0  0  0
 26 40  1  0  0  0  0
 26 25  1  0  0  0  0
 28  1  1  0  0  0  0
 29 41  1  0  0  0  0
 29 28  1  0  0  0  0
 30 28  2  0  0  0  0
 30 42  1  0  0  0  0
 31  2  1  0  0  0  0
 33  6  1  0  0  0  0
 34 12  1  0  0  0  0
 35 18  1  0  0  0  0
 36 19  1  0  0  0  0
 43 30  1  0  0  0  0
M  RAD  2   4   2  29   2
M  END
$$$$
