43

C          0.02130       -0.05250       -0.02920
C          1.38740        0.33000       -0.01640
C          2.09680        0.50190        1.16740
C          1.40240        0.28220        2.36210
C          0.03280       -0.10620        2.37910
C         -0.65930       -0.27750        1.17160
N         -0.39790       -0.25100        3.67940
C          0.64610        0.02930        4.43630
N          1.76020        0.35730        3.68830
H          2.65600        0.60490        4.09080
C          0.62400       -0.00300        5.90190
C         -0.57870       -0.35190        6.53650
C         -0.69250       -0.41850        7.92520
C         -2.02430       -0.76370        8.57390
H         -1.82380       -1.06080        9.61460
C         -2.66400       -1.96360        7.89290
O         -3.72950       -1.96000        7.32860
O         -1.89150       -3.05930        7.99220
C         -2.98620        0.42640        8.58620
C         -2.55770        1.48780        9.57080
O         -1.78360        1.32470       10.48430
O         -3.16870        2.66170        9.33900
C          0.42440       -0.11070        8.71200
C          1.62060        0.23990        8.09480
C          1.75130        0.29960        6.69750
O          2.92100        0.63840        6.10090
Br         3.15720        0.66470        9.15410
C         -0.68250       -0.19350       -1.34390
N         -0.45550        0.50960       -2.39310
N         -1.68400       -1.14580       -1.36530
H          1.89700        0.47350       -0.97130
H          3.15060        0.78740        1.15690
H         -1.71370       -0.55510        1.17710
H         -1.42710       -0.57640        5.88650
H         -2.34970       -3.77270        7.51570
H         -3.09150        0.87150        7.58640
H         -3.99920        0.09700        8.87130
H         -2.86990        3.27780       10.03030
H          0.35170       -0.12300        9.79920
H          3.58570        0.81420        6.79010
H          0.22260        1.24540       -2.18650
H         -1.55090       -1.97520       -0.79880
H         -2.08030       -1.30770       -2.28550
