rmsd186.gzmat
 OpenBabel08211713423D

 43 45  0  0  1  0  0  0  0  0999 V2000
    0.0000    0.0000    0.0000 C   0  0  0  0  0  0  0  0  0  0  0  0
    1.4138    0.0000    0.0000 C   0  0  0  0  0  0  0  0  0  0  0  0
    2.1365    0.0000    1.1775 C   0  0  0  0  0  0  0  0  0  0  0  0
    1.4051    0.0052    2.3702 C   0  0  1  0  0  0  0  0  0  0  0  0
   -0.0339    0.0095    2.3754 C   0  0  0  0  0  0  0  0  0  0  0  0
   -0.7411    0.0051    1.1682 C   0  0  0  0  0  0  0  0  0  0  0  0
   -0.4853    0.0145    3.6938 N   0  0  0  0  0  0  0  0  0  0  0  0
    0.6087    0.0124    4.4761 C   0  0  0  0  0  0  0  0  0  0  0  0
    1.7890   -0.0016    3.7073 N   0  0  0  0  0  0  0  0  0  0  0  0
    2.7184    0.0379    4.0649 H   0  0  0  0  0  0  0  0  0  0  0  0
    0.5813   -0.0026    5.9284 C   0  0  0  0  0  0  0  0  0  0  0  0
   -0.6220   -0.3174    6.5670 C   0  0  0  0  0  0  0  0  0  0  0  0
   -0.7182   -0.3256    7.9592 C   0  0  0  0  0  0  0  0  0  0  0  0
   -2.0201   -0.6475    8.6334 C   0  0  2  0  0  0  0  0  0  0  0  0
   -1.9372   -0.4615    9.7464 H   0  0  0  0  0  0  0  0  0  0  0  0
   -2.3216   -2.1188    8.4376 C   0  0  0  0  0  0  0  0  0  0  0  0
   -3.1178   -2.6266    7.6964 O   0  0  0  0  0  0  0  0  0  0  0  0
   -1.5344   -2.8601    9.2528 O   0  0  0  0  0  0  0  0  0  0  0  0
   -3.1674    0.1988    8.0690 C   0  0  0  0  0  0  0  0  0  0  0  0
   -4.2709    0.3327    9.0696 C   0  0  0  0  0  0  0  0  0  0  0  0
   -4.3016   -0.0429   10.2117 O   0  0  0  0  0  0  0  0  0  0  0  0
   -5.3191    0.9959    8.5209 O   0  0  0  0  0  0  0  0  0  0  0  0
    0.4035   -0.0347    8.7385 C   0  0  0  0  0  0  0  0  0  0  0  0
    1.6068    0.2742    8.1183 C   0  0  0  0  0  0  0  0  0  0  0  0
    1.7025    0.2958    6.7256 C   0  0  0  0  0  0  0  0  0  0  0  0
    2.8345    0.5956    6.0522 O   0  0  0  0  0  0  0  0  0  0  0  0
    3.1128    0.6627    9.1912 Br  0  0  0  0  0  0  0  0  0  0  0  0
   -0.7096   -0.0391   -1.3085 C   0  0  0  0  0  0  0  0  0  0  0  0
   -1.4321   -1.0019   -1.7749 N   0  0  0  0  0  0  0  0  0  0  0  0
   -0.4990    1.0784   -2.1254 N   0  0  0  0  0  0  0  0  0  0  0  0
    1.9335   -0.0020   -0.9615 H   0  0  0  0  0  0  0  0  0  0  0  0
    3.2220   -0.0047    1.1826 H   0  0  0  0  0  0  0  0  0  0  0  0
   -1.8310    0.0046    1.1718 H   0  0  0  0  0  0  0  0  0  0  0  0
   -1.4992   -0.5596    5.9467 H   0  0  0  0  0  0  0  0  0  0  0  0
   -1.6883   -3.8357    9.1735 H   0  0  0  0  0  0  0  0  0  0  0  0
   -2.8056    1.2117    7.7742 H   0  0  0  0  0  0  0  0  0  0  0  0
   -3.5669   -0.2407    7.1194 H   0  0  0  0  0  0  0  0  0  0  0  0
   -6.0883    1.1021    9.1348 H   0  0  0  0  0  0  0  0  0  0  0  0
    0.3280   -0.0562    9.8303 H   0  0  0  0  0  0  0  0  0  0  0  0
    3.6102    0.8153    6.6298 H   0  0  0  0  0  0  0  0  0  0  0  0
   -1.5185   -1.8652   -1.2708 H   0  0  0  0  0  0  0  0  0  0  0  0
   -0.3131    1.9548   -1.6836 H   0  0  0  0  0  0  0  0  0  0  0  0
   -1.0400    1.1303   -2.9713 H   0  0  0  0  0  0  0  0  0  0  0  0
  1  2  1  0  0  0  0
  1  6  2  0  0  0  0
  2  3  2  0  0  0  0
  3 32  1  0  0  0  0
  4  3  1  6  0  0  0
  4  5  1  0  0  0  0
  4  9  1  0  0  0  0
  5  7  2  0  0  0  0
  6 33  1  0  0  0  0
  6  5  1  0  0  0  0
  7  8  2  0  0  0  0
  8 11  1  0  0  0  0
  9 10  1  0  0  0  0
  9  8  1  0  0  0  0
 11 12  2  0  0  0  0
 11 25  1  0  0  0  0
 12 13  1  0  0  0  0
 13 14  1  0  0  0  0
 13 23  2  0  0  0  0
 14 15  1  1  0  0  0
 16 14  1  0  0  0  0
 16 18  1  0  0  0  0
 17 16  2  0  0  0  0
 19 14  1  0  0  0  0
 19 20  1  0  0  0  0
 20 21  2  0  0  0  0
 22 20  1  0  0  0  0
 22 38  1  0  0  0  0
 23 39  1  0  0  0  0
 24 23  1  0  0  0  0
 24 27  1  0  0  0  0
 25 24  2  0  0  0  0
 26 40  1  0  0  0  0
 26 25  1  0  0  0  0
 28  1  1  0  0  0  0
 29 28  1  0  0  0  0
 29 41  1  0  0  0  0
 30 42  1  0  0  0  0
 30 28  2  0  0  0  0
 31  2  1  0  0  0  0
 34 12  1  0  0  0  0
 35 18  1  0  0  0  0
 36 19  1  0  0  0  0
 37 19  1  0  0  0  0
 43 30  1  0  0  0  0
M  RAD  2   4   2  29   2
M  END
$$$$
