rmsd158.gzmat
 OpenBabel08211713423D

 43 45  0  0  1  0  0  0  0  0999 V2000
    0.0000    0.0000    0.0000 C   0  0  0  0  0  0  0  0  0  0  0  0
    1.4133    0.0000    0.0000 C   0  0  0  0  0  0  0  0  0  0  0  0
    2.1357    0.0000    1.1780 C   0  0  0  0  0  0  0  0  0  0  0  0
    1.4043    0.0043    2.3708 C   0  0  2  0  0  0  0  0  0  0  0  0
   -0.0346    0.0114    2.3735 C   0  0  0  0  0  0  0  0  0  0  0  0
   -0.7421    0.0055    1.1667 C   0  0  0  0  0  0  0  0  0  0  0  0
   -0.4884    0.0230    3.6907 N   0  0  0  0  0  0  0  0  0  0  0  0
    0.6041    0.0187    4.4746 C   0  0  0  0  0  0  0  0  0  0  0  0
    1.7865    0.0180    3.7092 N   0  0  0  0  0  0  0  0  0  0  0  0
    2.7138   -0.0482    4.0691 H   0  0  0  0  0  0  0  0  0  0  0  0
    0.5704    0.0479    5.9259 C   0  0  0  0  0  0  0  0  0  0  0  0
   -0.6088    0.4673    6.5506 C   0  0  0  0  0  0  0  0  0  0  0  0
   -0.7138    0.4911    7.9409 C   0  0  0  0  0  0  0  0  0  0  0  0
   -2.0066    0.9283    8.5667 C   0  0  2  0  0  0  0  0  0  0  0  0
   -2.6625    1.4372    7.7966 H   0  0  0  0  0  0  0  0  0  0  0  0
   -1.7118    1.9197    9.6715 C   0  0  0  0  0  0  0  0  0  0  0  0
   -1.3793    1.6839   10.8034 O   0  0  0  0  0  0  0  0  0  0  0  0
   -1.8494    3.1843    9.2192 O   0  0  0  0  0  0  0  0  0  0  0  0
   -2.7475   -0.2845    9.1445 C   0  0  0  0  0  0  0  0  0  0  0  0
   -4.2119   -0.0094    9.2743 C   0  0  0  0  0  0  0  0  0  0  0  0
   -4.8347    0.9513    8.9087 O   0  0  0  0  0  0  0  0  0  0  0  0
   -4.8267   -1.0525    9.8879 O   0  0  0  0  0  0  0  0  0  0  0  0
    0.3660    0.0901    8.7315 C   0  0  0  0  0  0  0  0  0  0  0  0
    1.5441   -0.3214    8.1244 C   0  0  0  0  0  0  0  0  0  0  0  0
    1.6560   -0.3413    6.7321 C   0  0  0  0  0  0  0  0  0  0  0  0
    2.7687   -0.7187    6.0661 O   0  0  0  0  0  0  0  0  0  0  0  0
    2.9932   -0.8536    9.2128 Br  0  0  0  0  0  0  0  0  0  0  0  0
   -0.7053    0.0078   -1.3125 C   0  0  0  0  0  0  0  0  0  0  0  0
   -1.0285    1.0355   -2.0239 N   0  0  0  0  0  0  0  0  0  0  0  0
   -1.0925   -1.2548   -1.7683 N   0  0  0  0  0  0  0  0  0  0  0  0
    1.9374    0.0028   -0.9573 H   0  0  0  0  0  0  0  0  0  0  0  0
    3.2213   -0.0027    1.1833 H   0  0  0  0  0  0  0  0  0  0  0  0
   -1.8328    0.0016    1.1659 H   0  0  0  0  0  0  0  0  0  0  0  0
   -1.4583    0.7724    5.9208 H   0  0  0  0  0  0  0  0  0  0  0  0
   -1.6761    3.8768    9.9073 H   0  0  0  0  0  0  0  0  0  0  0  0
   -2.5958   -1.1808    8.4968 H   0  0  0  0  0  0  0  0  0  0  0  0
   -2.3234   -0.5828   10.1341 H   0  0  0  0  0  0  0  0  0  0  0  0
   -5.8017   -0.9270   10.0033 H   0  0  0  0  0  0  0  0  0  0  0  0
    0.2749    0.1080    9.8253 H   0  0  0  0  0  0  0  0  0  0  0  0
    3.5135   -1.0193    6.6487 H   0  0  0  0  0  0  0  0  0  0  0  0
   -0.8600    1.9645   -1.6865 H   0  0  0  0  0  0  0  0  0  0  0  0
   -0.5807   -2.0513   -1.4544 H   0  0  0  0  0  0  0  0  0  0  0  0
   -1.4749   -1.3143   -2.6947 H   0  0  0  0  0  0  0  0  0  0  0  0
  1  2  1  0  0  0  0
  1  6  2  0  0  0  0
  2  3  2  0  0  0  0
  3 32  1  0  0  0  0
  4  3  1  6  0  0  0
  4  5  1  0  0  0  0
  4  9  1  0  0  0  0
  5  7  2  0  0  0  0
  6  5  1  0  0  0  0
  7  8  2  0  0  0  0
  8 11  1  0  0  0  0
  9 10  1  0  0  0  0
  9  8  1  0  0  0  0
 11 12  2  0  0  0  0
 11 25  1  0  0  0  0
 12 13  1  0  0  0  0
 13 14  1  0  0  0  0
 13 23  2  0  0  0  0
 14 15  1  6  0  0  0
 14 19  1  0  0  0  0
 14 16  1  0  0  0  0
 16 17  2  0  0  0  0
 18 16  1  0  0  0  0
 18 35  1  0  0  0  0
 19 20  1  0  0  0  0
 19 37  1  0  0  0  0
 20 22  1  0  0  0  0
 21 20  2  0  0  0  0
 22 38  1  0  0  0  0
 23 39  1  0  0  0  0
 24 23  1  0  0  0  0
 24 27  1  0  0  0  0
 25 24  2  0  0  0  0
 26 40  1  0  0  0  0
 26 25  1  0  0  0  0
 28  1  1  0  0  0  0
 29 41  1  0  0  0  0
 29 28  1  0  0  0  0
 30 42  1  0  0  0  0
 30 28  2  0  0  0  0
 31  2  1  0  0  0  0
 33  6  1  0  0  0  0
 34 12  1  0  0  0  0
 36 19  1  0  0  0  0
 43 30  1  0  0  0  0
M  RAD  2   4   2  29   2
M  END
$$$$
