43
rmsd241.gzmat
C          0.00000        0.00000        0.00000
C          1.41340        0.00000        0.00000
C          2.13530        0.00000        1.17810
C          1.40430        0.00570        2.37100
C         -0.03420        0.01000        2.37480
C         -0.74100        0.00490        1.16760
N         -0.48630        0.02200        3.69170
C          0.60690        0.02560        4.47720
N          1.78700        0.01130        3.70910
H          2.71820        0.01950        4.06500
C          0.56660        0.03520        5.92930
C         -0.68740        0.01560        6.55270
C         -0.80020        0.01360        7.94170
C         -2.16080       -0.04460        8.57330
H         -2.96750        0.04160        7.78420
C         -2.29940        1.11640        9.53490
O         -1.89240        1.18740       10.66460
O         -2.95870        2.13900        8.94930
C         -2.33190       -1.36550        9.33530
C         -3.77740       -1.69170        9.53730
O         -4.74420       -1.17340        9.04660
O         -3.89850       -2.73590       10.39560
C          0.34720        0.04470        8.73890
C          1.59600        0.06440        8.13660
C          1.71360        0.06240        6.74380
O          2.89660        0.09510        6.09300
Br         3.13380        0.09830        9.23280
C         -0.70360       -0.02570       -1.31360
N         -0.83910       -1.03490       -2.10810
N         -1.22020        1.20480       -1.72100
H          1.93580        0.00590       -0.95930
H          3.22090       -0.00180        1.18280
H         -1.83000       -0.00020        1.17200
H         -1.58920        0.00190        5.92020
H         -3.08640        2.92420        9.54110
H         -1.84190       -2.20120        8.78140
H         -1.80360       -1.33450       10.31950
H         -4.83620       -3.00070       10.57020
H          0.24790        0.06120        9.83170
H          3.69300        0.06160        6.68370
H         -0.40830       -1.91450       -1.89350
H         -1.40590        1.89760       -1.02880
H         -1.80530        1.21840       -2.53590
