43

C          0.02960        0.00170       -0.03310
C          1.44740       -0.04480       -0.01840
C          2.17480       -0.06290        1.16700
C          1.44590       -0.03050        2.36080
C          0.02290        0.01320        2.37600
C         -0.68770        0.02500        1.16720
N         -0.43210        0.04120        3.67590
C          0.64770        0.01370        4.43440
N          1.80880       -0.03050        3.68760
H          2.73740       -0.05570        4.09130
C          0.61770        0.03030        5.90020
C         -0.63530        0.08020        6.53250
C         -0.76410        0.09280        7.92180
C         -2.13320        0.17840        8.58660
H         -2.00770       -0.05920        9.65040
C         -3.04180       -0.90920        8.03330
O         -3.14140       -2.01780        8.48980
O         -3.71960       -0.50620        6.93670
C         -2.73920        1.58290        8.46460
C         -1.98620        2.59260        9.30090
O         -1.23150        2.32960       10.20560
O         -2.27770        3.85390        8.93940
C          0.39480        0.06260        8.70910
C          1.64070        0.01500        8.09380
C          1.78360       -0.00420        6.69610
O          3.00090       -0.05290        6.10140
Br         3.23340       -0.02160        9.15430
C         -0.68360        0.04320       -1.34940
N         -0.25760        0.62030       -2.41330
N         -1.92350       -0.56840       -1.35560
H          1.97720       -0.08750       -0.97220
H          3.26560       -0.10900        1.15840
H         -1.77690        0.07770        1.16990
H         -1.51180        0.10180        5.88400
H         -4.23120       -1.27100        6.62040
H         -2.77110        1.92320        7.42010
H         -3.78490        1.59100        8.81780
H         -1.78500        4.44150        9.53850
H          0.32310        0.10080        9.79560
H          3.68730       -0.07220        6.79160
H          0.60880        1.12570       -2.21940
H         -2.03990       -1.38800       -0.77110
H         -2.34770       -0.62950       -2.27570
