43

C         -0.01230       -0.07430        0.00080
C          1.37060        0.24620       -0.00320
C          2.09870        0.39150        1.17440
C          1.40550        0.21660        2.37620
C          0.01680       -0.09890        2.40830
C         -0.69300       -0.24560        1.20940
N         -0.41030       -0.20480        3.71360
C          0.65320        0.02620        4.45870
N          1.77740        0.28700        3.69880
H          2.68860        0.49090        4.09080
C          0.64100        0.00660        5.92510
C         -0.56990       -0.29040        6.57050
C         -0.67750       -0.32940        7.96180
C         -2.00850       -0.63360        8.62990
H         -1.85060       -0.71790        9.71350
C         -2.51860       -1.98700        8.15080
O         -3.35050       -2.14300        7.29210
O         -1.89180       -3.00200        8.76480
C         -3.05640        0.44350        8.35300
C         -4.31710        0.21350        9.15420
O         -4.45210       -0.62870       10.00790
O         -5.28940        1.07790        8.81800
C          0.46080       -0.07130        8.73480
C          1.66770        0.22350        8.10720
C          1.78710        0.27040        6.70870
O          2.96350        0.55830        6.09920
Br         3.23080        0.57900        9.15220
C         -0.74900       -0.24980       -1.29160
N         -1.69530       -1.08820       -1.50520
N         -0.30390        0.55490       -2.32700
H          1.87480        0.35550       -0.96480
H          3.16540        0.62410        1.15250
H         -1.76030       -0.47170        1.22910
H         -1.43000       -0.50080        5.93250
H         -2.24260       -3.82440        8.38110
H         -2.66220        1.44120        8.60480
H         -3.32460        0.46930        7.28670
H         -6.06020        0.86600        9.37250
H          0.41120       -0.10230        9.82410
H          3.64320        0.70850        6.77950
H         -1.82890       -1.68720       -0.68840
H          0.00990        1.48720       -2.08190
H         -0.88690        0.50660       -3.15700
