43

C          0.05840       -0.00380       -0.04970
C          1.46440       -0.19250       -0.02210
C          2.17890       -0.25990        1.16900
C          1.44930       -0.13040        2.35590
C          0.03800        0.05630        2.35820
C         -0.66050        0.11560        1.14360
N         -0.42010        0.15550        3.65340
C          0.64650        0.03500        4.42120
N          1.80220       -0.14060        3.68540
H          2.72130       -0.25010        4.09640
C          0.60710        0.08310        5.88590
C         -0.63910        0.27770        6.50640
C         -0.77530        0.33430        7.89120
C         -2.14440        0.50460        8.53270
H         -2.85780        0.79070        7.74930
C         -2.09110        1.64310        9.53960
O         -1.90290        1.50260       10.72410
O         -2.22770        2.84130        8.95410
C         -2.60730       -0.78910        9.21190
C         -3.97480       -0.73650        9.86030
O         -4.39090       -1.54550       10.64700
O         -4.70890        0.31700        9.43850
C          0.36920        0.19640        8.69190
C          1.60730        0.00630        8.09010
C          1.75680       -0.05580        6.69340
O          2.96650       -0.24200        6.11090
Br         3.17920       -0.17690        9.16570
C         -0.63830        0.08370       -1.37280
N         -0.14840        0.59370       -2.44340
N         -1.93350       -0.39890       -1.37800
H          1.99300       -0.30710       -0.97060
H          3.25960       -0.41540        1.17030
H         -1.73880        0.27770        1.13640
H         -1.50430        0.38490        5.85060
H         -2.13680        3.51180        9.65340
H         -2.62990       -1.60290        8.46870
H         -1.90120       -1.09780        9.99500
H         -5.56040        0.27200        9.90640
H          0.29540        0.24710        9.77950
H          3.64380       -0.31550        6.80630
H          0.76350        1.01260       -2.25160
H         -2.13810       -1.18960       -0.77840
H         -2.35710       -0.43330       -2.29980
