43
rmsd158.gzmat
C          0.00000        0.00000        0.00000
C          1.41330        0.00000        0.00000
C          2.13570        0.00000        1.17800
C          1.40430        0.00430        2.37080
C         -0.03460        0.01140        2.37350
C         -0.74210        0.00550        1.16670
N         -0.48840        0.02300        3.69070
C          0.60410        0.01870        4.47460
N          1.78650        0.01800        3.70920
H          2.71380       -0.04820        4.06910
C          0.57040        0.04790        5.92590
C         -0.60880        0.46730        6.55060
C         -0.71380        0.49110        7.94090
C         -2.00660        0.92830        8.56670
H         -2.66250        1.43720        7.79660
C         -1.71180        1.91970        9.67150
O         -1.37930        1.68390       10.80340
O         -1.84940        3.18430        9.21920
C         -2.74750       -0.28450        9.14450
C         -4.21190       -0.00940        9.27430
O         -4.83470        0.95130        8.90870
O         -4.82670       -1.05250        9.88790
C          0.36600        0.09010        8.73150
C          1.54410       -0.32140        8.12440
C          1.65600       -0.34130        6.73210
O          2.76870       -0.71870        6.06610
Br         2.99320       -0.85360        9.21280
C         -0.70530        0.00780       -1.31250
N         -1.02850        1.03550       -2.02390
N         -1.09250       -1.25480       -1.76830
H          1.93740        0.00280       -0.95730
H          3.22130       -0.00270        1.18330
H         -1.83280        0.00160        1.16590
H         -1.45830        0.77240        5.92080
H         -1.67610        3.87680        9.90730
H         -2.59580       -1.18080        8.49680
H         -2.32340       -0.58280       10.13410
H         -5.80170       -0.92700       10.00330
H          0.27490        0.10800        9.82530
H          3.51350       -1.01930        6.64870
H         -0.86000        1.96450       -1.68650
H         -0.58070       -2.05130       -1.45440
H         -1.47490       -1.31430       -2.69470
