
     RDKit          3D

 43 45  0  0  0  0  0  0  0  0999 V2000
    0.0578   -0.2170    0.0159 C   0  0  0  0  0  0  0  0  0  0  0  0
    1.4365    0.1182    0.0174 C   0  0  0  0  0  0  0  0  0  0  0  0
    2.1440    0.3369    1.1945 C   0  0  0  0  0  0  0  0  0  0  0  0
    1.4346    0.2140    2.3944 C   0  0  0  0  0  0  0  0  0  0  0  0
    0.0522   -0.1247    2.4227 C   0  0  0  0  0  0  0  0  0  0  0  0
   -0.6380   -0.3450    1.2219 C   0  0  0  0  0  0  0  0  0  0  0  0
   -0.3921   -0.1750    3.7253 N   0  0  0  0  0  0  0  0  0  0  0  0
    0.6559    0.1134    4.4731 C   0  0  0  0  0  0  0  0  0  0  0  0
    1.7861    0.3568    3.7165 N   0  0  0  0  0  0  0  0  0  0  0  0
    2.6869    0.6001    4.1100 H   0  0  0  0  0  0  0  0  0  0  0  0
    0.6217    0.1687    5.9380 C   0  0  0  0  0  0  0  0  0  0  0  0
   -0.5928   -0.1192    6.5808 C   0  0  0  0  0  0  0  0  0  0  0  0
   -0.7214   -0.0866    7.9704 C   0  0  0  0  0  0  0  0  0  0  0  0
   -2.0560   -0.3842    8.6342 C   0  0  2  0  0  0  0  0  0  0  0  0
   -1.9157   -0.3965    9.7234 H   0  0  0  0  0  0  0  0  0  0  0  0
   -2.5206   -1.7786    8.2325 C   0  0  0  0  0  0  0  0  0  0  0  0
   -3.3264   -2.0118    7.3665 O   0  0  0  0  0  0  0  0  0  0  0  0
   -1.8840   -2.7351    8.9256 O   0  0  0  0  0  0  0  0  0  0  0  0
   -3.1269    0.6441    8.2729 C   0  0  0  0  0  0  0  0  0  0  0  0
   -4.3956    0.4294    9.0656 C   0  0  0  0  0  0  0  0  0  0  0  0
   -4.5266   -0.3682    9.9619 O   0  0  0  0  0  0  0  0  0  0  0  0
   -5.3810    1.2513    8.6669 O   0  0  0  0  0  0  0  0  0  0  0  0
    0.3993    0.2357    8.7452 C   0  0  0  0  0  0  0  0  0  0  0  0
    1.6097    0.5216    8.1203 C   0  0  0  0  0  0  0  0  0  0  0  0
    1.7500    0.4969    6.7233 C   0  0  0  0  0  0  0  0  0  0  0  0
    2.9298    0.7764    6.1163 O   0  0  0  0  0  0  0  0  0  0  0  0
    3.1488    0.9646    9.1676 Br  0  0  0  0  0  0  0  0  0  0  0  0
   -0.6418   -0.4134   -1.2941 C   0  0  0  0  0  0  0  0  0  0  0  0
   -0.3829    0.2165   -2.3817 N   0  0  0  0  0  0  0  0  0  0  0  0
   -1.6757   -1.3297   -1.2664 N   0  0  0  0  0  0  0  0  0  0  0  0
    1.9569    0.1857   -0.9401 H   0  0  0  0  0  0  0  0  0  0  0  0
    3.2073    0.5844    1.1756 H   0  0  0  0  0  0  0  0  0  0  0  0
   -1.7014   -0.5858    1.2357 H   0  0  0  0  0  0  0  0  0  0  0  0
   -1.4384   -0.3806    5.9424 H   0  0  0  0  0  0  0  0  0  0  0  0
   -2.2053   -3.5893    8.5886 H   0  0  0  0  0  0  0  0  0  0  0  0
   -2.7642    1.6662    8.4673 H   0  0  0  0  0  0  0  0  0  0  0  0
   -3.3765    0.5958    7.2028 H   0  0  0  0  0  0  0  0  0  0  0  0
   -6.1563    1.0525    9.2199 H   0  0  0  0  0  0  0  0  0  0  0  0
    0.3331    0.2618    9.8337 H   0  0  0  0  0  0  0  0  0  0  0  0
    3.5951    0.9790    6.7971 H   0  0  0  0  0  0  0  0  0  0  0  0
    0.3193    0.9394   -2.2140 H   0  0  0  0  0  0  0  0  0  0  0  0
   -1.5777   -2.1263   -0.6480 H   0  0  0  0  0  0  0  0  0  0  0  0
   -2.0724   -1.5336   -2.1781 H   0  0  0  0  0  0  0  0  0  0  0  0
  1  2  2  0
  1  6  1  0
  1 28  1  0
  2  3  1  0
  2 31  1  0
  3  4  2  0
  3 32  1  0
  4  5  1  0
  4  9  1  0
  5  6  2  0
  5  7  1  0
  6 33  1  0
  7  8  2  0
  8  9  1  0
  8 11  1  0
  9 10  1  0
 11 12  2  0
 11 25  1  0
 12 13  1  0
 12 34  1  0
 13 14  1  0
 13 23  2  0
 14 15  1  1
 14 16  1  0
 14 19  1  0
 16 17  2  0
 16 18  1  0
 18 35  1  0
 19 20  1  0
 19 36  1  0
 19 37  1  0
 20 21  2  0
 20 22  1  0
 22 38  1  0
 23 24  1  0
 23 39  1  0
 24 25  2  0
 24 27  1  0
 25 26  1  0
 26 40  1  0
 28 29  2  0
 28 30  1  0
 29 41  1  0
 30 42  1  0
 30 43  1  0
M  END

