43

C         -0.01490        0.09950       -0.05700
C          1.39880       -0.02590       -0.03780
C          2.11740       -0.10290        1.15220
C          1.38540       -0.04200        2.34210
C         -0.03290        0.09010        2.35100
C         -0.73390        0.16000        1.14010
N         -0.49210        0.13400        3.64900
C          0.57940        0.03100        4.41200
N          1.74020       -0.07800        3.67090
H          2.66300       -0.16670        4.07840
C          0.54060        0.03090        5.87760
C         -0.71090        0.15850        6.50470
C         -0.84750        0.16470        7.89100
C         -2.22390        0.25810        8.53260
H         -2.94570        0.57040        7.76720
C         -2.21190        1.32730        9.61560
O         -1.90890        1.12610       10.76760
O         -2.50950        2.54020        9.13380
C         -2.65810       -1.08290        9.12840
C         -4.06990       -1.02940        9.66350
O         -4.77640       -0.05110        9.65630
O         -4.46440       -2.21460       10.15960
C          0.30270        0.04310        8.68620
C          1.54580       -0.08080        8.07740
C          1.69600       -0.09110        6.67950
O          2.91140       -0.21230        6.09120
Br         3.12570       -0.24030        9.14600
C         -0.74980        0.14950       -1.36130
N         -1.90600       -0.35670       -1.58790
N         -0.06170        0.76730       -2.39170
H          1.92710       -0.08790       -0.99060
H          3.20370       -0.21340        1.14850
H         -1.81870        0.27790        1.14100
H         -1.58060        0.25410        5.85310
H         -2.44830        3.16440        9.87780
H         -2.59330       -1.88320        8.37480
H         -1.99270       -1.37460        9.95570
H         -5.37190       -2.09560       10.48950
H          0.22700        0.05760        9.77440
H          3.59130       -0.28340        6.78420
H         -2.23010       -0.87780       -0.77100
H          0.52370        1.55740       -2.14520
H         -0.61730        0.89430       -3.23210
