43

C          0.03610       -0.01040       -0.04040
C          1.45450        0.01560       -0.01810
C          2.17580        0.03910        1.17070
C          1.43980        0.03380        2.36080
C          0.01640        0.01130        2.36830
C         -0.68800       -0.00690        1.15580
N         -0.44620        0.00800        3.66560
C          0.62950        0.03040        4.42990
N          1.79560        0.04700        3.68950
H          2.72240        0.06100        4.09750
C          0.58960        0.03560        5.89540
C         -0.66880        0.02670        6.52160
C         -0.80650        0.02680        7.90770
C         -2.18530       -0.02940        8.54840
H         -2.93650        0.19610        7.78070
C         -2.29350        1.04120        9.62450
O         -1.97270        0.88180       10.77820
O         -2.72190        2.21110        9.13460
C         -2.46890       -1.40650        9.15230
C         -3.87890       -1.50680        9.68550
O         -4.69040       -0.61380        9.66900
O         -4.13940       -2.72440       10.19130
C          0.34940        0.03950        8.70400
C          1.59910        0.05110        8.09610
C          1.75060        0.04860        6.69830
O          2.97240        0.05970        6.11080
Br         3.18610        0.07580        9.16580
C         -0.67020       -0.05970       -1.36030
N         -0.24510       -0.65590       -2.41410
N         -1.90180        0.56720       -1.38150
H          1.99000        0.03740       -0.96940
H          3.26720        0.06900        1.16760
H         -1.77780       -0.04330        1.15340
H         -1.54320        0.02000        5.86930
H         -2.73110        2.84270        9.87480
H         -2.31440       -2.19940        8.40400
H         -1.77670       -1.61740        9.98220
H         -5.05520       -2.70510       10.51910
H          0.27170        0.05240        9.79200
H          3.65550        0.06930        6.80420
H          0.61360       -1.16980       -2.20850
H         -2.01400        1.39370       -0.80610
H         -2.32190        0.62080       -2.30400
