rmsd204.gzmat
 OpenBabel08211713423D

 43 45  0  0  1  0  0  0  0  0999 V2000
    0.0000    0.0000    0.0000 C   0  0  0  0  0  0  0  0  0  0  0  0
    1.4132    0.0000    0.0000 C   0  0  0  0  0  0  0  0  0  0  0  0
    2.1348    0.0000    1.1784 C   0  0  0  0  0  0  0  0  0  0  0  0
    1.4025    0.0041    2.3706 C   0  0  2  0  0  0  0  0  0  0  0  0
   -0.0363    0.0106    2.3744 C   0  0  0  0  0  0  0  0  0  0  0  0
   -0.7425    0.0063    1.1664 C   0  0  0  0  0  0  0  0  0  0  0  0
   -0.4886    0.0149    3.6919 N   0  0  0  0  0  0  0  0  0  0  0  0
    0.6048    0.0058    4.4761 C   0  0  0  0  0  0  0  0  0  0  0  0
    1.7850    0.0109    3.7087 N   0  0  0  0  0  0  0  0  0  0  0  0
    2.7143   -0.0375    4.0661 H   0  0  0  0  0  0  0  0  0  0  0  0
    0.5690    0.0027    5.9282 C   0  0  0  0  0  0  0  0  0  0  0  0
   -0.6563    0.2489    6.5582 C   0  0  0  0  0  0  0  0  0  0  0  0
   -0.7682    0.2226    7.9478 C   0  0  0  0  0  0  0  0  0  0  0  0
   -2.1136    0.4461    8.5758 C   0  0  2  0  0  0  0  0  0  0  0  0
   -2.8251    0.9083    7.8270 H   0  0  0  0  0  0  0  0  0  0  0  0
   -1.9717    1.3969    9.7445 C   0  0  0  0  0  0  0  0  0  0  0  0
   -1.6659    1.1316   10.8773 O   0  0  0  0  0  0  0  0  0  0  0  0
   -2.2180    2.6657    9.3534 O   0  0  0  0  0  0  0  0  0  0  0  0
   -2.6831   -0.8925    9.0640 C   0  0  0  0  0  0  0  0  0  0  0  0
   -4.1678   -0.8219    9.2257 C   0  0  0  0  0  0  0  0  0  0  0  0
   -4.9102    0.0934    8.9894 O   0  0  0  0  0  0  0  0  0  0  0  0
   -4.6376   -2.0059    9.6937 O   0  0  0  0  0  0  0  0  0  0  0  0
    0.3545   -0.0422    8.7360 C   0  0  0  0  0  0  0  0  0  0  0  0
    1.5786   -0.2743    8.1259 C   0  0  0  0  0  0  0  0  0  0  0  0
    1.6938   -0.2557    6.7335 C   0  0  0  0  0  0  0  0  0  0  0  0
    2.8486   -0.4835    6.0709 O   0  0  0  0  0  0  0  0  0  0  0  0
    3.0853   -0.6176    9.2119 Br  0  0  0  0  0  0  0  0  0  0  0  0
   -0.7031   -0.0316   -1.3136 C   0  0  0  0  0  0  0  0  0  0  0  0
   -1.0410   -1.0754   -1.9939 N   0  0  0  0  0  0  0  0  0  0  0  0
   -0.9582    1.2269   -1.8652 N   0  0  0  0  0  0  0  0  0  0  0  0
    1.9340    0.0037   -0.9604 H   0  0  0  0  0  0  0  0  0  0  0  0
    3.2201   -0.0040    1.1841 H   0  0  0  0  0  0  0  0  0  0  0  0
   -1.8317    0.0026    1.1681 H   0  0  0  0  0  0  0  0  0  0  0  0
   -1.5376    0.4567    5.9316 H   0  0  0  0  0  0  0  0  0  0  0  0
   -2.1509    3.3297   10.0867 H   0  0  0  0  0  0  0  0  0  0  0  0
   -2.4257   -1.7108    8.3497 H   0  0  0  0  0  0  0  0  0  0  0  0
   -2.2090   -1.2042   10.0265 H   0  0  0  0  0  0  0  0  0  0  0  0
   -5.6186   -2.0200    9.8252 H   0  0  0  0  0  0  0  0  0  0  0  0
    0.2597   -0.0633    9.8292 H   0  0  0  0  0  0  0  0  0  0  0  0
    3.6323   -0.6509    6.6555 H   0  0  0  0  0  0  0  0  0  0  0  0
   -0.7865   -1.9938   -1.6814 H   0  0  0  0  0  0  0  0  0  0  0  0
   -1.0530    2.0026   -1.2439 H   0  0  0  0  0  0  0  0  0  0  0  0
   -1.5224    1.2597   -2.6956 H   0  0  0  0  0  0  0  0  0  0  0  0
  1  2  1  0  0  0  0
  1  6  2  0  0  0  0
  2  3  2  0  0  0  0
  3 32  1  0  0  0  0
  4  3  1  6  0  0  0
  4  5  1  0  0  0  0
  4  9  1  0  0  0  0
  5  7  2  0  0  0  0
  6 33  1  0  0  0  0
  6  5  1  0  0  0  0
  7  8  2  0  0  0  0
  8 11  1  0  0  0  0
  9 10  1  0  0  0  0
  9  8  1  0  0  0  0
 11 12  2  0  0  0  0
 11 25  1  0  0  0  0
 12 13  1  0  0  0  0
 13 14  1  0  0  0  0
 13 23  2  0  0  0  0
 14 15  1  6  0  0  0
 14 19  1  0  0  0  0
 14 16  1  0  0  0  0
 16 17  2  0  0  0  0
 18 16  1  0  0  0  0
 18 35  1  0  0  0  0
 19 20  1  0  0  0  0
 19 37  1  0  0  0  0
 20 22  1  0  0  0  0
 21 20  2  0  0  0  0
 22 38  1  0  0  0  0
 23 39  1  0  0  0  0
 24 23  1  0  0  0  0
 24 27  1  0  0  0  0
 25 24  2  0  0  0  0
 26 40  1  0  0  0  0
 26 25  1  0  0  0  0
 28  1  1  0  0  0  0
 29 41  1  0  0  0  0
 29 28  1  0  0  0  0
 30 28  2  0  0  0  0
 30 42  1  0  0  0  0
 31  2  1  0  0  0  0
 34 12  1  0  0  0  0
 36 19  1  0  0  0  0
 43 30  1  0  0  0  0
M  RAD  2   4   2  29   2
M  END
$$$$
