43
rmsd186.gzmat
C          0.00000        0.00000        0.00000
C          1.41380        0.00000        0.00000
C          2.13650        0.00000        1.17750
C          1.40510        0.00520        2.37020
C         -0.03390        0.00950        2.37540
C         -0.74110        0.00510        1.16820
N         -0.48530        0.01450        3.69380
C          0.60870        0.01240        4.47610
N          1.78900       -0.00160        3.70730
H          2.71840        0.03790        4.06490
C          0.58130       -0.00260        5.92840
C         -0.62200       -0.31740        6.56700
C         -0.71820       -0.32560        7.95920
C         -2.02010       -0.64750        8.63340
H         -1.93720       -0.46150        9.74640
C         -2.32160       -2.11880        8.43760
O         -3.11780       -2.62660        7.69640
O         -1.53440       -2.86010        9.25280
C         -3.16740        0.19880        8.06900
C         -4.27090        0.33270        9.06960
O         -4.30160       -0.04290       10.21170
O         -5.31910        0.99590        8.52090
C          0.40350       -0.03470        8.73850
C          1.60680        0.27420        8.11830
C          1.70250        0.29580        6.72560
O          2.83450        0.59560        6.05220
Br         3.11280        0.66270        9.19120
C         -0.70960       -0.03910       -1.30850
N         -1.43210       -1.00190       -1.77490
N         -0.49900        1.07840       -2.12540
H          1.93350       -0.00200       -0.96150
H          3.22200       -0.00470        1.18260
H         -1.83100        0.00460        1.17180
H         -1.49920       -0.55960        5.94670
H         -1.68830       -3.83570        9.17350
H         -2.80560        1.21170        7.77420
H         -3.56690       -0.24070        7.11940
H         -6.08830        1.10210        9.13480
H          0.32800       -0.05620        9.83030
H          3.61020        0.81530        6.62980
H         -1.51850       -1.86520       -1.27080
H         -0.31310        1.95480       -1.68360
H         -1.04000        1.13030       -2.97130
