rmsd69.gzmat
 OpenBabel08211713423D

 43 45  0  0  1  0  0  0  0  0999 V2000
    0.0000    0.0000    0.0000 C   0  0  0  0  0  0  0  0  0  0  0  0
    1.4141    0.0000    0.0000 C   0  0  0  0  0  0  0  0  0  0  0  0
    2.1370    0.0000    1.1773 C   0  0  0  0  0  0  0  0  0  0  0  0
    1.4061    0.0013    2.3708 C   0  0  2  0  0  0  0  0  0  0  0  0
   -0.0326    0.0028    2.3761 C   0  0  0  0  0  0  0  0  0  0  0  0
   -0.7403   -0.0004    1.1684 C   0  0  0  0  0  0  0  0  0  0  0  0
   -0.4832    0.0069    3.6943 N   0  0  0  0  0  0  0  0  0  0  0  0
    0.6111    0.0065    4.4769 C   0  0  0  0  0  0  0  0  0  0  0  0
    1.7908    0.0108    3.7078 N   0  0  0  0  0  0  0  0  0  0  0  0
    2.7212   -0.0237    4.0646 H   0  0  0  0  0  0  0  0  0  0  0  0
    0.5808    0.0222    5.9289 C   0  0  0  0  0  0  0  0  0  0  0  0
   -0.6365    0.3001    6.5614 C   0  0  0  0  0  0  0  0  0  0  0  0
   -0.7370    0.3116    7.9518 C   0  0  0  0  0  0  0  0  0  0  0  0
   -2.0677    0.5896    8.5920 C   0  0  2  0  0  0  0  0  0  0  0  0
   -2.8047    0.9626    7.8214 H   0  0  0  0  0  0  0  0  0  0  0  0
   -1.8855    1.6631    9.6434 C   0  0  0  0  0  0  0  0  0  0  0  0
   -1.5360    1.5230   10.7857 O   0  0  0  0  0  0  0  0  0  0  0  0
   -2.1342    2.8848    9.1217 O   0  0  0  0  0  0  0  0  0  0  0  0
   -2.6091   -0.6889    9.2445 C   0  0  0  0  0  0  0  0  0  0  0  0
   -4.0570   -0.6206    9.6133 C   0  0  0  0  0  0  0  0  0  0  0  0
   -4.7344   -1.4956   10.0817 O   0  0  0  0  0  0  0  0  0  0  0  0
   -4.5834    0.6033    9.3509 O   0  0  0  0  0  0  0  0  0  0  0  0
    0.3885    0.0503    8.7374 C   0  0  0  0  0  0  0  0  0  0  0  0
    1.6025   -0.2223    8.1245 C   0  0  0  0  0  0  0  0  0  0  0  0
    1.7065   -0.2395    6.7312 C   0  0  0  0  0  0  0  0  0  0  0  0
    2.8516   -0.5033    6.0651 O   0  0  0  0  0  0  0  0  0  0  0  0
    3.1110   -0.5673    9.2071 Br  0  0  0  0  0  0  0  0  0  0  0  0
   -0.6999    0.0305   -1.3138 C   0  0  0  0  0  0  0  0  0  0  0  0
   -0.6738    0.9775   -2.1913 N   0  0  0  0  0  0  0  0  0  0  0  0
   -1.5162   -1.0771   -1.5707 N   0  0  0  0  0  0  0  0  0  0  0  0
    1.9379   -0.0002   -0.9579 H   0  0  0  0  0  0  0  0  0  0  0  0
    3.2228    0.0006    1.1824 H   0  0  0  0  0  0  0  0  0  0  0  0
   -1.8314   -0.0019    1.1657 H   0  0  0  0  0  0  0  0  0  0  0  0
   -1.5184    0.5065    5.9361 H   0  0  0  0  0  0  0  0  0  0  0  0
   -2.0215    3.6247    9.7713 H   0  0  0  0  0  0  0  0  0  0  0  0
   -2.4560   -1.5596    8.5619 H   0  0  0  0  0  0  0  0  0  0  0  0
   -2.0220   -0.9381   10.1638 H   0  0  0  0  0  0  0  0  0  0  0  0
   -5.5381    0.6873    9.5989 H   0  0  0  0  0  0  0  0  0  0  0  0
    0.3035    0.0692    9.8315 H   0  0  0  0  0  0  0  0  0  0  0  0
    3.6334   -0.6879    6.6474 H   0  0  0  0  0  0  0  0  0  0  0  0
   -0.1955    1.8376   -2.0011 H   0  0  0  0  0  0  0  0  0  0  0  0
   -1.2640   -1.9514   -1.1594 H   0  0  0  0  0  0  0  0  0  0  0  0
   -1.9273   -1.1356   -2.4865 H   0  0  0  0  0  0  0  0  0  0  0  0
  1  2  1  0  0  0  0
  1  6  2  0  0  0  0
  2  3  2  0  0  0  0
  3 32  1  0  0  0  0
  4  3  1  6  0  0  0
  4  5  1  0  0  0  0
  4  9  1  0  0  0  0
  5  7  2  0  0  0  0
  6  5  1  0  0  0  0
  7  8  2  0  0  0  0
  8 11  1  0  0  0  0
  9 10  1  0  0  0  0
  9  8  1  0  0  0  0
 11 12  2  0  0  0  0
 11 25  1  0  0  0  0
 12 13  1  0  0  0  0
 13 14  1  0  0  0  0
 13 23  2  0  0  0  0
 14 15  1  6  0  0  0
 14 19  1  0  0  0  0
 14 16  1  0  0  0  0
 16 17  2  0  0  0  0
 18 16  1  0  0  0  0
 18 35  1  0  0  0  0
 19 20  1  0  0  0  0
 19 37  1  0  0  0  0
 20 21  2  0  0  0  0
 22 38  1  0  0  0  0
 22 20  1  0  0  0  0
 23 39  1  0  0  0  0
 24 23  1  0  0  0  0
 24 27  1  0  0  0  0
 25 24  2  0  0  0  0
 26 40  1  0  0  0  0
 26 25  1  0  0  0  0
 28  1  1  0  0  0  0
 29 41  1  0  0  0  0
 29 28  1  0  0  0  0
 30 28  2  0  0  0  0
 30 42  1  0  0  0  0
 31  2  1  0  0  0  0
 33  6  1  0  0  0  0
 34 12  1  0  0  0  0
 36 19  1  0  0  0  0
 43 30  1  0  0  0  0
M  RAD  2   4   2  29   2
M  END
$$$$
