
     RDKit          3D

 43 45  0  0  0  0  0  0  0  0999 V2000
    0.0296    0.0017   -0.0331 C   0  0  0  0  0  0  0  0  0  0  0  0
    1.4474   -0.0448   -0.0184 C   0  0  0  0  0  0  0  0  0  0  0  0
    2.1748   -0.0629    1.1670 C   0  0  0  0  0  0  0  0  0  0  0  0
    1.4459   -0.0305    2.3608 C   0  0  0  0  0  0  0  0  0  0  0  0
    0.0229    0.0132    2.3760 C   0  0  0  0  0  0  0  0  0  0  0  0
   -0.6877    0.0250    1.1672 C   0  0  0  0  0  0  0  0  0  0  0  0
   -0.4321    0.0412    3.6759 N   0  0  0  0  0  0  0  0  0  0  0  0
    0.6477    0.0137    4.4344 C   0  0  0  0  0  0  0  0  0  0  0  0
    1.8088   -0.0305    3.6876 N   0  0  0  0  0  0  0  0  0  0  0  0
    2.7374   -0.0557    4.0913 H   0  0  0  0  0  0  0  0  0  0  0  0
    0.6177    0.0303    5.9002 C   0  0  0  0  0  0  0  0  0  0  0  0
   -0.6353    0.0802    6.5325 C   0  0  0  0  0  0  0  0  0  0  0  0
   -0.7641    0.0928    7.9218 C   0  0  0  0  0  0  0  0  0  0  0  0
   -2.1332    0.1784    8.5866 C   0  0  2  0  0  0  0  0  0  0  0  0
   -2.0077   -0.0592    9.6504 H   0  0  0  0  0  0  0  0  0  0  0  0
   -3.0418   -0.9092    8.0333 C   0  0  0  0  0  0  0  0  0  0  0  0
   -3.1414   -2.0178    8.4898 O   0  0  0  0  0  0  0  0  0  0  0  0
   -3.7196   -0.5062    6.9367 O   0  0  0  0  0  0  0  0  0  0  0  0
   -2.7392    1.5829    8.4646 C   0  0  0  0  0  0  0  0  0  0  0  0
   -1.9862    2.5926    9.3009 C   0  0  0  0  0  0  0  0  0  0  0  0
   -1.2315    2.3296   10.2056 O   0  0  0  0  0  0  0  0  0  0  0  0
   -2.2777    3.8539    8.9394 O   0  0  0  0  0  0  0  0  0  0  0  0
    0.3948    0.0626    8.7091 C   0  0  0  0  0  0  0  0  0  0  0  0
    1.6407    0.0150    8.0938 C   0  0  0  0  0  0  0  0  0  0  0  0
    1.7836   -0.0042    6.6961 C   0  0  0  0  0  0  0  0  0  0  0  0
    3.0009   -0.0529    6.1014 O   0  0  0  0  0  0  0  0  0  0  0  0
    3.2334   -0.0216    9.1543 Br  0  0  0  0  0  0  0  0  0  0  0  0
   -0.6836    0.0432   -1.3494 C   0  0  0  0  0  0  0  0  0  0  0  0
   -0.2576    0.6203   -2.4133 N   0  0  0  0  0  0  0  0  0  0  0  0
   -1.9235   -0.5684   -1.3556 N   0  0  0  0  0  0  0  0  0  0  0  0
    1.9772   -0.0875   -0.9722 H   0  0  0  0  0  0  0  0  0  0  0  0
    3.2656   -0.1090    1.1584 H   0  0  0  0  0  0  0  0  0  0  0  0
   -1.7769    0.0777    1.1699 H   0  0  0  0  0  0  0  0  0  0  0  0
   -1.5118    0.1018    5.8840 H   0  0  0  0  0  0  0  0  0  0  0  0
   -4.2312   -1.2710    6.6204 H   0  0  0  0  0  0  0  0  0  0  0  0
   -2.7711    1.9232    7.4201 H   0  0  0  0  0  0  0  0  0  0  0  0
   -3.7849    1.5910    8.8178 H   0  0  0  0  0  0  0  0  0  0  0  0
   -1.7850    4.4415    9.5385 H   0  0  0  0  0  0  0  0  0  0  0  0
    0.3231    0.1008    9.7956 H   0  0  0  0  0  0  0  0  0  0  0  0
    3.6873   -0.0722    6.7916 H   0  0  0  0  0  0  0  0  0  0  0  0
    0.6088    1.1257   -2.2194 H   0  0  0  0  0  0  0  0  0  0  0  0
   -2.0399   -1.3880   -0.7711 H   0  0  0  0  0  0  0  0  0  0  0  0
   -2.3477   -0.6295   -2.2757 H   0  0  0  0  0  0  0  0  0  0  0  0
  1  2  2  0
  1  6  1  0
  1 28  1  0
  2  3  1  0
  2 31  1  0
  3  4  2  0
  3 32  1  0
  4  5  1  0
  4  9  1  0
  5  6  2  0
  5  7  1  0
  6 33  1  0
  7  8  2  0
  8  9  1  0
  8 11  1  0
  9 10  1  0
 11 12  2  0
 11 25  1  0
 12 13  1  0
 12 34  1  0
 13 14  1  0
 13 23  2  0
 14 15  1  1
 14 16  1  0
 14 19  1  0
 16 17  2  0
 16 18  1  0
 18 35  1  0
 19 20  1  0
 19 36  1  0
 19 37  1  0
 20 21  2  0
 20 22  1  0
 22 38  1  0
 23 24  1  0
 23 39  1  0
 24 25  2  0
 24 27  1  0
 25 26  1  0
 26 40  1  0
 28 29  2  0
 28 30  1  0
 29 41  1  0
 30 42  1  0
 30 43  1  0
M  END

