rmsd147.gzmat
 OpenBabel08211713423D

 43 45  0  0  1  0  0  0  0  0999 V2000
    0.0000    0.0000    0.0000 C   0  0  0  0  0  0  0  0  0  0  0  0
    1.4138    0.0000    0.0000 C   0  0  0  0  0  0  0  0  0  0  0  0
    2.1352    0.0000    1.1781 C   0  0  0  0  0  0  0  0  0  0  0  0
    1.4024    0.0072    2.3702 C   0  0  2  0  0  0  0  0  0  0  0  0
   -0.0362    0.0109    2.3749 C   0  0  0  0  0  0  0  0  0  0  0  0
   -0.7423    0.0014    1.1669 C   0  0  0  0  0  0  0  0  0  0  0  0
   -0.4872    0.0268    3.6929 N   0  0  0  0  0  0  0  0  0  0  0  0
    0.6074    0.0343    4.4762 C   0  0  0  0  0  0  0  0  0  0  0  0
    1.7863    0.0129    3.7071 N   0  0  0  0  0  0  0  0  0  0  0  0
    2.7172    0.0433    4.0624 H   0  0  0  0  0  0  0  0  0  0  0  0
    0.5776    0.0566    5.9283 C   0  0  0  0  0  0  0  0  0  0  0  0
   -0.6586   -0.1114    6.5661 C   0  0  0  0  0  0  0  0  0  0  0  0
   -0.7649   -0.0637    7.9535 C   0  0  0  0  0  0  0  0  0  0  0  0
   -2.0787   -0.2220    8.6639 C   0  0  2  0  0  0  0  0  0  0  0  0
   -2.0807    0.4428    9.5831 H   0  0  0  0  0  0  0  0  0  0  0  0
   -2.1823   -1.6593    9.1310 C   0  0  0  0  0  0  0  0  0  0  0  0
   -2.8813   -2.5397    8.7115 O   0  0  0  0  0  0  0  0  0  0  0  0
   -1.3215   -1.8657   10.1593 O   0  0  0  0  0  0  0  0  0  0  0  0
   -3.2982    0.1313    7.8082 C   0  0  0  0  0  0  0  0  0  0  0  0
   -4.4611    0.4918    8.6789 C   0  0  0  0  0  0  0  0  0  0  0  0
   -4.4827    0.6603    9.8698 O   0  0  0  0  0  0  0  0  0  0  0  0
   -5.5791    0.6444    7.9274 O   0  0  0  0  0  0  0  0  0  0  0  0
    0.3826    0.1206    8.7341 C   0  0  0  0  0  0  0  0  0  0  0  0
    1.6147    0.2747    8.1188 C   0  0  0  0  0  0  0  0  0  0  0  0
    1.7197    0.2520    6.7253 C   0  0  0  0  0  0  0  0  0  0  0  0
    2.8830    0.4163    6.0586 O   0  0  0  0  0  0  0  0  0  0  0  0
    3.1488    0.5148    9.1950 Br  0  0  0  0  0  0  0  0  0  0  0  0
   -0.6994    0.0289   -1.3145 C   0  0  0  0  0  0  0  0  0  0  0  0
   -0.7997    1.0306   -2.1229 N   0  0  0  0  0  0  0  0  0  0  0  0
   -1.3579   -1.1576   -1.6534 N   0  0  0  0  0  0  0  0  0  0  0  0
    1.9385    0.0018   -0.9572 H   0  0  0  0  0  0  0  0  0  0  0  0
    3.2204   -0.0024    1.1851 H   0  0  0  0  0  0  0  0  0  0  0  0
   -1.8331   -0.0040    1.1637 H   0  0  0  0  0  0  0  0  0  0  0  0
   -1.5446   -0.2838    5.9367 H   0  0  0  0  0  0  0  0  0  0  0  0
   -1.3445   -2.7874   10.5191 H   0  0  0  0  0  0  0  0  0  0  0  0
   -3.0760    0.9847    7.1238 H   0  0  0  0  0  0  0  0  0  0  0  0
   -3.5796   -0.7142    7.1307 H   0  0  0  0  0  0  0  0  0  0  0  0
   -6.3844    0.8742    8.4558 H   0  0  0  0  0  0  0  0  0  0  0  0
    0.2944    0.1264    9.8272 H   0  0  0  0  0  0  0  0  0  0  0  0
    3.6788    0.5282    6.6401 H   0  0  0  0  0  0  0  0  0  0  0  0
   -0.4357    1.9301   -1.8695 H   0  0  0  0  0  0  0  0  0  0  0  0
   -1.0007   -2.0152   -1.2875 H   0  0  0  0  0  0  0  0  0  0  0  0
   -1.7551   -1.2121   -2.5751 H   0  0  0  0  0  0  0  0  0  0  0  0
  1  2  1  0  0  0  0
  1  6  2  0  0  0  0
  2  3  2  0  0  0  0
  3 32  1  0  0  0  0
  4  3  1  6  0  0  0
  4  5  1  0  0  0  0
  4  9  1  0  0  0  0
  5  7  2  0  0  0  0
  6  5  1  0  0  0  0
  7  8  2  0  0  0  0
  8 11  1  0  0  0  0
  9 10  1  0  0  0  0
  9  8  1  0  0  0  0
 11 12  2  0  0  0  0
 11 25  1  0  0  0  0
 12 13  1  0  0  0  0
 13 14  1  0  0  0  0
 13 23  2  0  0  0  0
 14 16  1  0  0  0  0
 14 15  1  1  0  0  0
 16 18  1  0  0  0  0
 17 16  2  0  0  0  0
 18 35  1  0  0  0  0
 19 14  1  0  0  0  0
 19 20  1  0  0  0  0
 20 21  2  0  0  0  0
 22 38  1  0  0  0  0
 22 20  1  0  0  0  0
 23 39  1  0  0  0  0
 24 23  1  0  0  0  0
 24 27  1  0  0  0  0
 25 24  2  0  0  0  0
 26 40  1  0  0  0  0
 26 25  1  0  0  0  0
 28  1  1  0  0  0  0
 29 41  1  0  0  0  0
 29 28  1  0  0  0  0
 30 28  2  0  0  0  0
 30 42  1  0  0  0  0
 31  2  1  0  0  0  0
 33  6  1  0  0  0  0
 34 12  1  0  0  0  0
 36 19  1  0  0  0  0
 37 19  1  0  0  0  0
 43 30  1  0  0  0  0
M  RAD  2   4   2  29   2
M  END
$$$$
