rmsd84.gzmat
 OpenBabel08211713373D

 27 28  0  0  0  0  0  0  0  0999 V2000
    0.0000    0.0000    0.0000 N   0  0  0  0  0  0  0  0  0  0  0  0
    1.3964    0.0000    0.0000 C   0  0  0  0  0  0  0  0  0  0  0  0
    2.1665    0.0000    1.1764 C   0  0  0  0  0  0  0  0  0  0  0  0
    3.5541   -0.0133    1.0932 C   0  0  0  0  0  0  0  0  0  0  0  0
    4.1579   -0.0200   -0.1568 C   0  0  0  0  0  0  0  0  0  0  0  0
    3.4244   -0.0056   -1.3365 C   0  0  0  0  0  0  0  0  0  0  0  0
    2.0387    0.0043   -1.2596 C   0  0  0  0  0  0  0  0  0  0  0  0
    5.8668   -0.0405   -0.2490 Cl  0  0  0  0  0  0  0  0  0  0  0  0
   -1.0878   -0.2541    1.3284 S   0  0  0  0  0  0  0  0  0  0  0  0
   -0.3721   -0.1597    2.5726 O   0  0  0  0  0  0  0  0  0  0  0  0
   -2.2435    0.5506    1.0451 O   0  0  0  0  0  0  0  0  0  0  0  0
   -1.5418   -1.9397    1.0938 C   0  0  0  0  0  0  0  0  0  0  0  0
   -2.2242   -2.4582    0.0176 C   0  0  0  0  0  0  0  0  0  0  0  0
   -2.5025   -4.1485    0.2343 S   0  0  0  0  0  0  0  0  0  0  0  0
   -1.6853   -4.1728    1.7431 C   0  0  0  0  0  0  0  0  0  0  0  0
   -1.2322   -2.9213    2.0777 C   0  0  0  0  0  0  0  0  0  0  0  0
   -2.6500   -1.7518   -1.1871 C   0  0  0  0  0  0  0  0  0  0  0  0
   -2.0235   -0.9495   -1.8352 O   0  0  0  0  0  0  0  0  0  0  0  0
   -3.8887   -2.1388   -1.5740 O   0  0  0  0  0  0  0  0  0  0  0  0
   -0.4549    0.0669   -0.9191 H   0  0  0  0  0  0  0  0  0  0  0  0
    1.7017    0.0249    2.1663 H   0  0  0  0  0  0  0  0  0  0  0  0
    4.1531   -0.0135    2.0051 H   0  0  0  0  0  0  0  0  0  0  0  0
    3.9211   -0.0019   -2.3074 H   0  0  0  0  0  0  0  0  0  0  0  0
    1.4473    0.0154   -2.1725 H   0  0  0  0  0  0  0  0  0  0  0  0
   -1.5632   -5.0713    2.3248 H   0  0  0  0  0  0  0  0  0  0  0  0
   -0.6908   -2.6895    2.9934 H   0  0  0  0  0  0  0  0  0  0  0  0
   -4.2209   -1.6452   -2.3708 H   0  0  0  0  0  0  0  0  0  0  0  0
  1  2  1  0  0  0  0
  1  9  1  0  0  0  0
  2  3  2  0  0  0  0
  3 21  1  0  0  0  0
  4  3  1  0  0  0  0
  4 22  1  0  0  0  0
  5  4  2  0  0  0  0
  6  7  2  0  0  0  0
  6  5  1  0  0  0  0
  7  2  1  0  0  0  0
  8  5  1  0  0  0  0
  9 10  2  0  0  0  0
 11  9  2  0  0  0  0
 12  9  1  0  0  0  0
 12 16  1  0  0  0  0
 13 14  1  0  0  0  0
 13 12  2  0  0  0  0
 14 15  1  0  0  0  0
 15 16  2  0  0  0  0
 15 25  1  0  0  0  0
 16 26  1  0  0  0  0
 17 13  1  0  0  0  0
 18 17  2  0  0  0  0
 19 17  1  0  0  0  0
 20  1  1  0  0  0  0
 23  6  1  0  0  0  0
 24  7  1  0  0  0  0
 27 19  1  0  0  0  0
M  END
$$$$
