27
rmsd184.gzmat
N          0.00000        0.00000        0.00000
C          1.40440        0.00000        0.00000
C          2.07430        0.00000        1.24060
C          3.46280       -0.01320        1.28130
C          4.16380       -0.01800        0.08220
C          3.52910       -0.04050       -1.15330
C          2.14040       -0.04140       -1.19740
Cl         5.87420        0.00110        0.12780
S         -0.95790        0.88350       -1.15800
O         -0.43680        0.65970       -2.48020
O         -2.32390        0.60600       -0.80680
C         -0.61300        2.55790       -0.73010
C         -0.91430        3.16580        0.46680
S         -0.42790        4.82090        0.44470
C          0.19840        4.70110       -1.14870
C          0.02370        3.43610       -1.65210
C         -1.52550        2.54860        1.64070
O         -1.24850        1.48840        2.14610
O         -2.47470        3.34910        2.17990
H         -0.43940       -0.09790        0.92480
H          1.50420        0.01250        2.16820
H          3.98440       -0.01640        2.23900
H          4.10420       -0.06380       -2.08000
H          1.63620       -0.09720       -2.16750
H          0.66130        5.53070       -1.65720
H          0.33630        3.12300       -2.64660
H         -2.94160        2.93500        2.95420
