rmsd184.gzmat
 OpenBabel08211713373D

 27 28  0  0  0  0  0  0  0  0999 V2000
    0.0000    0.0000    0.0000 N   0  0  0  0  0  0  0  0  0  0  0  0
    1.4044    0.0000    0.0000 C   0  0  0  0  0  0  0  0  0  0  0  0
    2.0743    0.0000    1.2406 C   0  0  0  0  0  0  0  0  0  0  0  0
    3.4628   -0.0132    1.2813 C   0  0  0  0  0  0  0  0  0  0  0  0
    4.1638   -0.0180    0.0822 C   0  0  0  0  0  0  0  0  0  0  0  0
    3.5291   -0.0405   -1.1533 C   0  0  0  0  0  0  0  0  0  0  0  0
    2.1404   -0.0414   -1.1974 C   0  0  0  0  0  0  0  0  0  0  0  0
    5.8742    0.0011    0.1278 Cl  0  0  0  0  0  0  0  0  0  0  0  0
   -0.9579    0.8835   -1.1580 S   0  0  0  0  0  0  0  0  0  0  0  0
   -0.4368    0.6597   -2.4802 O   0  0  0  0  0  0  0  0  0  0  0  0
   -2.3239    0.6060   -0.8068 O   0  0  0  0  0  0  0  0  0  0  0  0
   -0.6130    2.5579   -0.7301 C   0  0  0  0  0  0  0  0  0  0  0  0
   -0.9143    3.1658    0.4668 C   0  0  0  0  0  0  0  0  0  0  0  0
   -0.4279    4.8209    0.4447 S   0  0  0  0  0  0  0  0  0  0  0  0
    0.1984    4.7011   -1.1487 C   0  0  0  0  0  0  0  0  0  0  0  0
    0.0237    3.4361   -1.6521 C   0  0  0  0  0  0  0  0  0  0  0  0
   -1.5255    2.5486    1.6407 C   0  0  0  0  0  0  0  0  0  0  0  0
   -1.2485    1.4884    2.1461 O   0  0  0  0  0  0  0  0  0  0  0  0
   -2.4747    3.3491    2.1799 O   0  0  0  0  0  0  0  0  0  0  0  0
   -0.4394   -0.0979    0.9248 H   0  0  0  0  0  0  0  0  0  0  0  0
    1.5042    0.0125    2.1682 H   0  0  0  0  0  0  0  0  0  0  0  0
    3.9844   -0.0164    2.2390 H   0  0  0  0  0  0  0  0  0  0  0  0
    4.1042   -0.0638   -2.0800 H   0  0  0  0  0  0  0  0  0  0  0  0
    1.6362   -0.0972   -2.1675 H   0  0  0  0  0  0  0  0  0  0  0  0
    0.6613    5.5307   -1.6572 H   0  0  0  0  0  0  0  0  0  0  0  0
    0.3363    3.1230   -2.6466 H   0  0  0  0  0  0  0  0  0  0  0  0
   -2.9416    2.9350    2.9542 H   0  0  0  0  0  0  0  0  0  0  0  0
  1  2  1  0  0  0  0
  1 20  1  0  0  0  0
  2  3  2  0  0  0  0
  3  4  1  0  0  0  0
  3 21  1  0  0  0  0
  4 22  1  0  0  0  0
  5  8  1  0  0  0  0
  5  4  2  0  0  0  0
  6  5  1  0  0  0  0
  7  6  2  0  0  0  0
  7  2  1  0  0  0  0
  9 11  2  0  0  0  0
  9 12  1  0  0  0  0
  9  1  1  0  0  0  0
 10  9  2  0  0  0  0
 12 13  2  0  0  0  0
 13 17  1  0  0  0  0
 14 13  1  0  0  0  0
 15 14  1  0  0  0  0
 16 15  2  0  0  0  0
 16 12  1  0  0  0  0
 17 18  2  0  0  0  0
 17 19  1  0  0  0  0
 19 27  1  0  0  0  0
 23  6  1  0  0  0  0
 24  7  1  0  0  0  0
 25 15  1  0  0  0  0
 26 16  1  0  0  0  0
M  END
$$$$
