27
rmsd243.gzmat
N          0.00000        0.00000        0.00000
C          1.40180        0.00000        0.00000
C          2.06330        0.00000        1.24620
C          3.45090        0.02790        1.29850
C          4.16180        0.05010        0.10580
C          3.53670        0.06250       -1.13440
C          2.14840        0.04300       -1.19100
Cl         5.87200        0.06960        0.16620
S         -1.00230       -0.75590       -1.20500
O         -2.33670       -0.29530       -0.93640
O         -0.38390       -0.62180       -2.49700
C         -0.91520       -2.45570       -0.74730
C         -1.37180       -3.00440        0.42880
S         -1.12130       -4.71160        0.43820
C         -0.38400       -4.69460       -1.11150
C         -0.34990       -3.42260       -1.62600
C         -1.95990       -2.29670        1.56260
O         -1.57800       -1.26950        2.06810
O         -3.02640       -2.96440        2.06240
H         -0.44600        0.10390        0.92010
H          1.48690       -0.02020        2.16920
H          3.96490        0.03010        2.26000
H          4.11900        0.09380       -2.05640
H          1.65610        0.08110       -2.16820
H         -0.00850       -5.58520       -1.58790
H          0.06360       -3.16560       -2.59960
H         -3.47750       -2.48060        2.80540
