rmsd131.gzmat
 OpenBabel08211713373D

 27 28  0  0  0  0  0  0  0  0999 V2000
    0.0000    0.0000    0.0000 N   0  0  0  0  0  0  0  0  0  0  0  0
    1.4027    0.0000    0.0000 C   0  0  0  0  0  0  0  0  0  0  0  0
    2.0515    0.0000    1.2539 C   0  0  0  0  0  0  0  0  0  0  0  0
    3.4361   -0.0783    1.3231 C   0  0  0  0  0  0  0  0  0  0  0  0
    4.1588   -0.1481    0.1395 C   0  0  0  0  0  0  0  0  0  0  0  0
    3.5476   -0.1441   -1.1073 C   0  0  0  0  0  0  0  0  0  0  0  0
    2.1613   -0.0705   -1.1813 C   0  0  0  0  0  0  0  0  0  0  0  0
    5.8654   -0.2419    0.2212 Cl  0  0  0  0  0  0  0  0  0  0  0  0
   -1.0409    0.5683   -1.2728 S   0  0  0  0  0  0  0  0  0  0  0  0
   -1.6306    1.7991   -0.8269 O   0  0  0  0  0  0  0  0  0  0  0  0
   -0.3537    0.4736   -2.5347 O   0  0  0  0  0  0  0  0  0  0  0  0
   -2.2947   -0.6699   -1.2402 C   0  0  0  0  0  0  0  0  0  0  0  0
   -3.1527   -0.9550   -0.2028 C   0  0  0  0  0  0  0  0  0  0  0  0
   -4.2614   -2.1999   -0.6593 S   0  0  0  0  0  0  0  0  0  0  0  0
   -3.5669   -2.3607   -2.2188 C   0  0  0  0  0  0  0  0  0  0  0  0
   -2.5303   -1.4774   -2.3894 C   0  0  0  0  0  0  0  0  0  0  0  0
   -3.1725   -0.3644    1.1308 C   0  0  0  0  0  0  0  0  0  0  0  0
   -2.2332   -0.0552    1.8235 O   0  0  0  0  0  0  0  0  0  0  0  0
   -4.4394   -0.2270    1.5903 O   0  0  0  0  0  0  0  0  0  0  0  0
   -0.4385    0.0208    0.9316 H   0  0  0  0  0  0  0  0  0  0  0  0
    1.4674    0.0603    2.1700 H   0  0  0  0  0  0  0  0  0  0  0  0
    3.9392   -0.0821    2.2906 H   0  0  0  0  0  0  0  0  0  0  0  0
    4.1387   -0.1989   -2.0225 H   0  0  0  0  0  0  0  0  0  0  0  0
    1.6854   -0.0721   -2.1665 H   0  0  0  0  0  0  0  0  0  0  0  0
   -3.9240   -3.0720   -2.9450 H   0  0  0  0  0  0  0  0  0  0  0  0
   -1.9400   -1.3943   -3.3005 H   0  0  0  0  0  0  0  0  0  0  0  0
   -4.4856    0.2032    2.4858 H   0  0  0  0  0  0  0  0  0  0  0  0
  1  2  1  0  0  0  0
  1 20  1  0  0  0  0
  2  3  2  0  0  0  0
  3  4  1  0  0  0  0
  3 21  1  0  0  0  0
  4 22  1  0  0  0  0
  5  8  1  0  0  0  0
  5  4  2  0  0  0  0
  6  5  1  0  0  0  0
  7  6  2  0  0  0  0
  7  2  1  0  0  0  0
  9 12  1  0  0  0  0
  9 10  2  0  0  0  0
  9  1  1  0  0  0  0
 11  9  2  0  0  0  0
 12 13  2  0  0  0  0
 13 17  1  0  0  0  0
 14 13  1  0  0  0  0
 15 14  1  0  0  0  0
 16 15  2  0  0  0  0
 16 12  1  0  0  0  0
 17 19  1  0  0  0  0
 17 18  2  0  0  0  0
 19 27  1  0  0  0  0
 23  6  1  0  0  0  0
 24  7  1  0  0  0  0
 25 15  1  0  0  0  0
 26 16  1  0  0  0  0
M  END
$$$$
