rmsd154.gzmat
 OpenBabel08211713373D

 27 28  0  0  0  0  0  0  0  0999 V2000
    0.0000    0.0000    0.0000 N   0  0  0  0  0  0  0  0  0  0  0  0
    1.4031    0.0000    0.0000 C   0  0  0  0  0  0  0  0  0  0  0  0
    2.1467    0.0000    1.1932 C   0  0  0  0  0  0  0  0  0  0  0  0
    3.5351   -0.0223    1.1397 C   0  0  0  0  0  0  0  0  0  0  0  0
    4.1624   -0.0530   -0.0992 C   0  0  0  0  0  0  0  0  0  0  0  0
    3.4537   -0.0727   -1.2934 C   0  0  0  0  0  0  0  0  0  0  0  0
    2.0663   -0.0443   -1.2441 C   0  0  0  0  0  0  0  0  0  0  0  0
    5.8726   -0.0725   -0.1575 Cl  0  0  0  0  0  0  0  0  0  0  0  0
   -0.9762    0.8518    1.1647 S   0  0  0  0  0  0  0  0  0  0  0  0
   -2.3361    0.5357    0.8246 O   0  0  0  0  0  0  0  0  0  0  0  0
   -0.4409    0.6410    2.4835 O   0  0  0  0  0  0  0  0  0  0  0  0
   -0.6802    2.5378    0.7411 C   0  0  0  0  0  0  0  0  0  0  0  0
   -0.9714    3.1434   -0.4599 C   0  0  0  0  0  0  0  0  0  0  0  0
   -0.5328    4.8126   -0.4179 S   0  0  0  0  0  0  0  0  0  0  0  0
    0.0584    4.7020    1.1882 C   0  0  0  0  0  0  0  0  0  0  0  0
   -0.0921    3.4298    1.6816 C   0  0  0  0  0  0  0  0  0  0  0  0
   -1.5395    2.5231   -1.6525 C   0  0  0  0  0  0  0  0  0  0  0  0
   -1.2768    1.4447   -2.1261 O   0  0  0  0  0  0  0  0  0  0  0  0
   -2.4301    3.3451   -2.2584 O   0  0  0  0  0  0  0  0  0  0  0  0
   -0.4385   -0.0992   -0.9248 H   0  0  0  0  0  0  0  0  0  0  0  0
    1.6507   -0.0069    2.1691 H   0  0  0  0  0  0  0  0  0  0  0  0
    4.1162   -0.0244    2.0631 H   0  0  0  0  0  0  0  0  0  0  0  0
    3.9688   -0.1050   -2.2542 H   0  0  0  0  0  0  0  0  0  0  0  0
    1.4905   -0.0536   -2.1681 H   0  0  0  0  0  0  0  0  0  0  0  0
    0.4853    5.5417    1.7115 H   0  0  0  0  0  0  0  0  0  0  0  0
    0.2052    3.1209    2.6822 H   0  0  0  0  0  0  0  0  0  0  0  0
   -2.8612    2.9348   -3.0551 H   0  0  0  0  0  0  0  0  0  0  0  0
  1  2  1  0  0  0  0
  1  9  1  0  0  0  0
  2  3  2  0  0  0  0
  3 21  1  0  0  0  0
  4  3  1  0  0  0  0
  4 22  1  0  0  0  0
  5  4  2  0  0  0  0
  6  7  2  0  0  0  0
  6  5  1  0  0  0  0
  7  2  1  0  0  0  0
  8  5  1  0  0  0  0
  9 11  2  0  0  0  0
 10  9  2  0  0  0  0
 12  9  1  0  0  0  0
 12 16  1  0  0  0  0
 13 14  1  0  0  0  0
 13 12  2  0  0  0  0
 14 15  1  0  0  0  0
 15 16  2  0  0  0  0
 15 25  1  0  0  0  0
 16 26  1  0  0  0  0
 17 13  1  0  0  0  0
 18 17  2  0  0  0  0
 19 17  1  0  0  0  0
 20  1  1  0  0  0  0
 23  6  1  0  0  0  0
 24  7  1  0  0  0  0
 27 19  1  0  0  0  0
M  END
$$$$
