27
rmsd148.gzmat
N          0.00000        0.00000        0.00000
C          1.40120        0.00000        0.00000
C          2.15170        0.00000        1.18900
C          3.54000       -0.02890        1.12840
C          4.16130       -0.06740       -0.11300
C          3.44620       -0.08450       -1.30370
C          2.05950       -0.04600       -1.24790
Cl         5.87120       -0.09910       -0.17940
S         -1.00590        0.74450        1.20880
O         -2.34900        0.36190        0.86940
O         -0.44280        0.51380        2.51250
C         -0.82060        2.46110        0.85320
C         -1.16120        3.09530       -0.31970
S         -0.84350        4.78850       -0.20550
C         -0.23540        4.65140        1.39220
C         -0.29080        3.35140        1.82960
C         -1.69000        2.48970       -1.53780
O         -1.36100        1.45110       -2.05680
O         -2.63140        3.27890       -2.11000
H         -0.44250       -0.08820       -0.92440
H          1.66320       -0.00080        2.16840
H          4.12530       -0.02960        2.04890
H          3.95640       -0.12780       -2.26650
H          1.48030       -0.05350       -2.16960
H          0.13230        5.49640        1.95060
H          0.03570        3.02200        2.81470
H         -3.03440        2.87750       -2.92530
