40

O          0.07070       -0.61700        0.02470
C          1.23110       -0.26370        0.04140
C          2.02700       -0.15330        1.29940
C          1.75520       -1.04590        2.34080
C          2.46680       -0.94160        3.53310
C          3.43710        0.04520        3.70180
O          4.14990        0.01180        4.88350
C          4.37170        1.11270        5.67340
F          5.57660        1.66720        5.43210
F          3.42920        2.05590        5.48470
C          3.70250        0.97050        2.66790
O          4.62930        1.91260        2.92020
C          5.15210        2.71870        1.86680
C          5.96790        1.92990        0.87770
C          7.23640        2.50810        0.30370
C          7.30430        1.38250        1.30080
C          2.97990        0.85990        1.47420
N          1.84780        0.14130       -1.14910
C          3.19320        0.21620       -1.49250
C          3.68360        1.33020       -2.20700
Cl         2.60280        2.64360       -2.58110
C          5.02170        1.39760       -2.59750
N          5.90020        0.44090       -2.30250
C          5.47120       -0.62670       -1.63210
C          4.14280       -0.79240       -1.22300
Cl         3.68590       -2.27190       -0.44070
H          0.99590       -1.81560        2.20090
H          2.29510       -1.63210        4.36040
H          4.35390        0.77750        6.72360
H          5.78220        3.45620        2.38330
H          4.33390        3.26940        1.36850
H          5.38800        1.29940        0.20390
H          7.54210        3.50670        0.63030
H          7.45710        2.28070       -0.74220
H          7.58390        0.38860        0.94240
H          7.63790        1.60590        2.31840
H          3.14680        1.58290        0.67970
H          1.18230        0.38960       -1.87730
H          5.37890        2.27330       -3.14760
H          6.19700       -1.41330       -1.40470
