rmsd218.gzmat
 OpenBabel08211713373D

 40 42  0  0  1  0  0  0  0  0999 V2000
    0.0000    0.0000    0.0000 O   0  0  0  0  0  0  0  0  0  0  0  0
    1.2085    0.0000    0.0000 C   0  0  0  0  0  0  0  0  0  0  0  0
    2.0587    0.0000    1.2115 C   0  0  0  0  0  0  0  0  0  0  0  0
    3.0319    0.9753    1.4094 C   0  0  0  0  0  0  0  0  0  0  0  0
    3.8427    0.9174    2.5397 C   0  0  0  0  0  0  0  0  0  0  0  0
    3.6690   -0.1172    3.4605 C   0  0  0  0  0  0  0  0  0  0  0  0
    4.5552   -0.0227    4.4968 O   0  0  0  0  0  0  0  0  0  0  0  0
    4.6541   -0.9441    5.5220 C   0  0  0  0  0  0  0  0  0  0  0  0
    3.4995   -1.0459    6.1856 F   0  0  0  0  0  0  0  0  0  0  0  0
    4.8681   -2.1707    5.0386 F   0  0  0  0  0  0  0  0  0  0  0  0
    2.6666   -1.0899    3.2705 C   0  0  0  0  0  0  0  0  0  0  0  0
    2.6052   -2.0543    4.2187 O   0  0  0  0  0  0  0  0  0  0  0  0
    1.4773   -2.9274    4.2150 C   0  0  0  0  0  0  0  0  0  0  0  0
    1.6087   -4.0330    3.1965 C   0  0  0  0  0  0  0  0  0  0  0  0
    2.9424   -4.3076    2.5309 C   0  0  0  0  0  0  0  0  0  0  0  0
    2.4091   -5.2718    3.5560 C   0  0  0  0  0  0  0  0  0  0  0  0
    1.8485   -1.0147    2.1465 C   0  0  0  0  0  0  0  0  0  0  0  0
    1.8362    0.0190   -1.2621 N   0  0  0  0  0  0  0  0  0  0  0  0
    3.2231   -0.0076   -1.4700 C   0  0  0  0  0  0  0  0  0  0  0  0
    3.8487    0.9708   -2.2619 C   0  0  0  0  0  0  0  0  0  0  0  0
    2.9352    2.2224   -2.9438 Cl  0  0  0  0  0  0  0  0  0  0  0  0
    5.2285    0.9395   -2.4762 C   0  0  0  0  0  0  0  0  0  0  0  0
    6.0108   -0.0083   -1.9286 N   0  0  0  0  0  0  0  0  0  0  0  0
    5.4401   -0.9617   -1.1718 C   0  0  0  0  0  0  0  0  0  0  0  0
    4.0606   -1.0016   -0.9411 C   0  0  2  0  0  0  0  0  0  0  0  0
    3.4312   -2.2841   -0.0380 Cl  0  0  0  0  0  0  0  0  0  0  0  0
    3.1638    1.7837    0.6902 H   0  0  0  0  0  0  0  0  0  0  0  0
    4.6140    1.6682    2.7146 H   0  0  0  0  0  0  0  0  0  0  0  0
    5.5061   -0.5487    6.1543 H   0  0  0  0  0  0  0  0  0  0  0  0
    0.5437   -2.3473    4.1018 H   0  0  0  0  0  0  0  0  0  0  0  0
    1.5311   -3.3133    5.2566 H   0  0  0  0  0  0  0  0  0  0  0  0
    0.7015   -4.1687    2.5956 H   0  0  0  0  0  0  0  0  0  0  0  0
    3.8015   -3.6835    2.7742 H   0  0  0  0  0  0  0  0  0  0  0  0
    2.9690   -4.5988    1.4844 H   0  0  0  0  0  0  0  0  0  0  0  0
    2.0510   -6.2494    3.2478 H   0  0  0  0  0  0  0  0  0  0  0  0
    2.8887   -5.3378    4.5293 H   0  0  0  0  0  0  0  0  0  0  0  0
    1.0603   -1.7509    1.9777 H   0  0  0  0  0  0  0  0  0  0  0  0
    1.2378    0.1481   -2.0804 H   0  0  0  0  0  0  0  0  0  0  0  0
    5.7425    1.6908   -3.0939 H   0  0  0  0  0  0  0  0  0  0  0  0
    6.1235   -1.7131   -0.7476 H   0  0  0  0  0  0  0  0  0  0  0  0
  1  2  2  0  0  0  0
  2  3  1  0  0  0  0
  3  4  2  0  0  0  0
  3 17  1  0  0  0  0
  4  5  1  0  0  0  0
  5 28  1  0  0  0  0
  5  6  2  0  0  0  0
  6  7  1  0  0  0  0
  7  8  1  0  0  0  0
  8 29  1  0  0  0  0
  8  9  1  0  0  0  0
 10  8  1  0  0  0  0
 11  6  1  0  0  0  0
 11 12  1  0  0  0  0
 13 12  1  0  0  0  0
 13 31  1  0  0  0  0
 14 16  1  0  0  0  0
 14 13  1  0  0  0  0
 15 33  1  0  0  0  0
 15 14  1  0  0  0  0
 15 16  1  0  0  0  0
 16 36  1  0  0  0  0
 17 11  2  0  0  0  0
 18  2  1  0  0  0  0
 19 18  1  0  0  0  0
 19 25  1  0  0  0  0
 20 19  2  0  0  0  0
 21 20  1  0  0  0  0
 22 20  1  0  0  0  0
 22 23  2  0  0  0  0
 23 24  2  0  0  0  0
 24 25  1  0  0  0  0
 24 40  1  0  0  0  0
 25 26  1  6  0  0  0
 27  4  1  0  0  0  0
 30 13  1  0  0  0  0
 32 14  1  0  0  0  0
 34 15  1  0  0  0  0
 35 16  1  0  0  0  0
 37 17  1  0  0  0  0
 38 18  1  0  0  0  0
 39 22  1  0  0  0  0
M  RAD  1  25   2
M  END
$$$$
