rmsd126.gzmat
 OpenBabel08211713373D

 40 42  0  0  1  0  0  0  0  0999 V2000
    0.0000    0.0000    0.0000 O   0  0  0  0  0  0  0  0  0  0  0  0
    1.2080    0.0000    0.0000 C   0  0  0  0  0  0  0  0  0  0  0  0
    2.0574    0.0000    1.2162 C   0  0  0  0  0  0  0  0  0  0  0  0
    3.0050   -0.9993    1.4192 C   0  0  0  0  0  0  0  0  0  0  0  0
    3.8074   -0.9649    2.5600 C   0  0  0  0  0  0  0  0  0  0  0  0
    3.6416    0.0711    3.4689 C   0  0  0  0  0  0  0  0  0  0  0  0
    4.5369    0.1680    4.5109 O   0  0  0  0  0  0  0  0  0  0  0  0
    4.1075   -0.2433    5.7626 C   0  0  0  0  0  0  0  0  0  0  0  0
    2.9991    0.4103    6.1257 F   0  0  0  0  0  0  0  0  0  0  0  0
    3.6906   -1.5154    5.7003 F   0  0  0  0  0  0  0  0  0  0  0  0
    2.6684    1.0743    3.2746 C   0  0  0  0  0  0  0  0  0  0  0  0
    2.6325    2.0136    4.2453 O   0  0  0  0  0  0  0  0  0  0  0  0
    1.5731    2.9690    4.2036 C   0  0  0  0  0  0  0  0  0  0  0  0
    1.8406    4.0800    3.2184 C   0  0  0  0  0  0  0  0  0  0  0  0
    2.7453    5.2254    3.6354 C   0  0  0  0  0  0  0  0  0  0  0  0
    3.2124    4.2429    2.5954 C   0  0  0  0  0  0  0  0  0  0  0  0
    1.8597    1.0258    2.1406 C   0  0  0  0  0  0  0  0  0  0  0  0
    1.8429   -0.0316   -1.2565 N   0  0  0  0  0  0  0  0  0  0  0  0
    3.2331    0.0141   -1.4463 C   0  0  0  0  0  0  0  0  0  0  0  0
    4.0389    1.0457   -0.9409 C   0  0  2  0  0  0  0  0  0  0  0  0
    3.3608    2.3391   -0.0902 Cl  0  0  0  0  0  0  0  0  0  0  0  0
    5.4225    1.0297   -1.1480 C   0  0  0  0  0  0  0  0  0  0  0  0
    6.0267    0.0609   -1.8578 N   0  0  0  0  0  0  0  0  0  0  0  0
    5.2758   -0.9262   -2.3786 C   0  0  0  0  0  0  0  0  0  0  0  0
    3.8930   -0.9810   -2.1865 C   0  0  0  0  0  0  0  0  0  0  0  0
    3.0184   -2.2795   -2.8292 Cl  0  0  0  0  0  0  0  0  0  0  0  0
    3.1207   -1.8103    0.7011 H   0  0  0  0  0  0  0  0  0  0  0  0
    4.5592   -1.7338    2.7401 H   0  0  0  0  0  0  0  0  0  0  0  0
    4.9883   -0.0791    6.4475 H   0  0  0  0  0  0  0  0  0  0  0  0
    1.5961    3.3312    5.2543 H   0  0  0  0  0  0  0  0  0  0  0  0
    0.6058    2.4639    4.0300 H   0  0  0  0  0  0  0  0  0  0  0  0
    0.9682    4.3190    2.5983 H   0  0  0  0  0  0  0  0  0  0  0  0
    3.2013    5.2193    4.6220 H   0  0  0  0  0  0  0  0  0  0  0  0
    2.4896    6.2405    3.3469 H   0  0  0  0  0  0  0  0  0  0  0  0
    3.2958    4.5625    1.5600 H   0  0  0  0  0  0  0  0  0  0  0  0
    4.0014    3.5317    2.8378 H   0  0  0  0  0  0  0  0  0  0  0  0
    1.0946    1.7818    1.9611 H   0  0  0  0  0  0  0  0  0  0  0  0
    1.2555   -0.1712   -2.0798 H   0  0  0  0  0  0  0  0  0  0  0  0
    6.0821    1.8127   -0.7438 H   0  0  0  0  0  0  0  0  0  0  0  0
    5.8178   -1.6899   -2.9557 H   0  0  0  0  0  0  0  0  0  0  0  0
  2  1  2  0  0  0  0
  2  3  1  0  0  0  0
  3  4  2  0  0  0  0
  3 17  1  0  0  0  0
  4  5  1  0  0  0  0
  5 28  1  0  0  0  0
  5  6  2  0  0  0  0
  6  7  1  0  0  0  0
  7  8  1  0  0  0  0
  8  9  1  0  0  0  0
  8 29  1  0  0  0  0
 10  8  1  0  0  0  0
 11  6  1  0  0  0  0
 11 12  1  0  0  0  0
 13 12  1  0  0  0  0
 13 30  1  0  0  0  0
 14 15  1  0  0  0  0
 14 13  1  0  0  0  0
 15 33  1  0  0  0  0
 16 36  1  0  0  0  0
 16 14  1  0  0  0  0
 16 15  1  0  0  0  0
 17 11  2  0  0  0  0
 18  2  1  0  0  0  0
 19 18  1  0  0  0  0
 19 20  1  0  0  0  0
 20 21  1  6  0  0  0
 22 20  1  0  0  0  0
 22 39  1  0  0  0  0
 23 22  2  0  0  0  0
 24 25  1  0  0  0  0
 24 23  2  0  0  0  0
 25 19  2  0  0  0  0
 26 25  1  0  0  0  0
 27  4  1  0  0  0  0
 31 13  1  0  0  0  0
 32 14  1  0  0  0  0
 34 15  1  0  0  0  0
 35 16  1  0  0  0  0
 37 17  1  0  0  0  0
 38 18  1  0  0  0  0
 40 24  1  0  0  0  0
M  RAD  1  20   2
M  END
$$$$
