
     RDKit          3D

 40 42  0  0  0  0  0  0  0  0999 V2000
    0.1727   -0.6379   -0.0085 O   0  0  0  0  0  0  0  0  0  0  0  0
    1.3462   -0.3301   -0.0012 C   0  0  0  0  0  0  0  0  0  0  0  0
    2.1397   -0.2037    1.2592 C   0  0  0  0  0  0  0  0  0  0  0  0
    1.7630   -0.9915    2.3519 C   0  0  0  0  0  0  0  0  0  0  0  0
    2.4767   -0.8943    3.5458 C   0  0  0  0  0  0  0  0  0  0  0  0
    3.5561   -0.0211    3.6477 C   0  0  0  0  0  0  0  0  0  0  0  0
    4.3153    0.0304    4.8063 O   0  0  0  0  0  0  0  0  0  0  0  0
    3.8725    0.8278    5.8194 C   0  0  0  0  0  0  0  0  0  0  0  0
    3.6226    2.0845    5.3939 F   0  0  0  0  0  0  0  0  0  0  0  0
    2.7090    0.3606    6.3396 F   0  0  0  0  0  0  0  0  0  0  0  0
    3.9378    0.7957    2.5620 C   0  0  0  0  0  0  0  0  0  0  0  0
    5.0066    1.5933    2.7478 O   0  0  0  0  0  0  0  0  0  0  0  0
    5.6077    2.2871    1.6563 C   0  0  0  0  0  0  0  0  0  0  0  0
    5.0362    3.6658    1.4374 C   0  0  0  0  0  0  0  0  0  0  0  0
    5.4291    4.4270    0.1963 C   0  0  0  0  0  0  0  0  0  0  0  0
    4.0032    3.9842    0.3863 C   0  0  0  0  0  0  0  0  0  0  0  0
    3.1996    0.7060    1.3793 C   0  0  0  0  0  0  0  0  0  0  0  0
    1.9768   -0.0184   -1.2135 N   0  0  0  0  0  0  0  0  0  0  0  0
    3.3235    0.1053   -1.5334 C   0  0  0  0  0  0  0  0  0  0  0  0
    3.7793    1.2032   -2.2931 C   0  0  0  0  0  0  0  0  0  0  0  0
    2.6335    2.3974   -2.8402 Cl  0  0  0  0  0  0  0  0  0  0  0  0
    5.1359    1.3568   -2.5834 C   0  0  0  0  0  0  0  0  0  0  0  0
    6.0575    0.4914   -2.1646 N   0  0  0  0  0  0  0  0  0  0  0  0
    5.6559   -0.5794   -1.4818 C   0  0  0  0  0  0  0  0  0  0  0  0
    4.3166   -0.8271   -1.1640 C   0  0  0  0  0  0  0  0  0  0  0  0
    3.9049   -2.3019   -0.3481 Cl  0  0  0  0  0  0  0  0  0  0  0  0
    0.9195   -1.6745    2.2504 H   0  0  0  0  0  0  0  0  0  0  0  0
    2.2180   -1.5022    4.4131 H   0  0  0  0  0  0  0  0  0  0  0  0
    4.6454    0.8413    6.6027 H   0  0  0  0  0  0  0  0  0  0  0  0
    5.5658    1.6815    0.7339 H   0  0  0  0  0  0  0  0  0  0  0  0
    6.6669    2.3750    1.9424 H   0  0  0  0  0  0  0  0  0  0  0  0
    4.9731    4.2447    2.3649 H   0  0  0  0  0  0  0  0  0  0  0  0
    6.0247    3.8946   -0.5526 H   0  0  0  0  0  0  0  0  0  0  0  0
    5.6754    5.4875    0.2915 H   0  0  0  0  0  0  0  0  0  0  0  0
    3.2483    4.7366    0.6290 H   0  0  0  0  0  0  0  0  0  0  0  0
    3.6341    3.1891   -0.2641 H   0  0  0  0  0  0  0  0  0  0  0  0
    3.4433    1.3685    0.5580 H   0  0  0  0  0  0  0  0  0  0  0  0
    1.3138    0.2060   -1.9514 H   0  0  0  0  0  0  0  0  0  0  0  0
    5.4681    2.2255   -3.1603 H   0  0  0  0  0  0  0  0  0  0  0  0
    6.4172   -1.2997   -1.1666 H   0  0  0  0  0  0  0  0  0  0  0  0
  1  2  2  0
  2  3  1  0
  2 18  1  0
  3  4  2  0
  3 17  1  0
  4  5  1  0
  4 27  1  0
  5  6  2  0
  5 28  1  0
  6  7  1  0
  6 11  1  0
  7  8  1  0
  8  9  1  0
  8 10  1  0
  8 29  1  0
 11 12  1  0
 11 17  2  0
 12 13  1  0
 13 14  1  0
 13 30  1  0
 13 31  1  0
 14 15  1  0
 14 16  1  0
 14 32  1  0
 15 16  1  0
 15 33  1  0
 15 34  1  0
 16 35  1  0
 16 36  1  0
 17 37  1  0
 18 19  1  0
 18 38  1  0
 19 20  2  0
 19 25  1  0
 20 21  1  0
 20 22  1  0
 22 23  2  0
 22 39  1  0
 23 24  1  0
 24 25  2  0
 24 40  1  0
 25 26  1  0
M  END

