40
rmsd243.gzmat
O          0.00000        0.00000        0.00000
C          1.20810        0.00000        0.00000
C          2.05560        0.00000        1.21390
C          1.87610       -1.00190        2.16200
C          2.65260       -0.99930        3.31960
C          3.57800        0.02220        3.52430
O          4.29330       -0.14820        4.67780
C          4.96080        0.88120        5.31860
F          6.05990        1.21700        4.63630
F          4.22820        1.99730        5.33220
C          3.73210        1.05830        2.57830
O          4.62000        2.01840        2.92070
C          4.79280        3.12730        2.04070
C          5.67050        2.77900        0.86480
C          7.17510        2.91680        1.01520
C          6.55440        1.54990        0.93050
C          2.97480        1.03200        1.41150
N          1.84080        0.07530       -1.25580
C          3.22360       -0.04850       -1.46330
C          3.94060        0.94320       -2.15140
Cl         3.16790        2.37110       -2.62600
C          5.30120        0.77920       -2.42150
N          5.97980       -0.30840       -2.01400
C          5.32630       -1.26030       -1.32510
C          3.95970       -1.16610       -1.04270
Cl         3.21190       -2.43020       -0.20810
H          1.13060       -1.78360        2.00440
H          2.54240       -1.78330        4.06880
H          5.18400        0.46250        6.34590
H          5.28520        3.84410        2.73410
H          3.81430        3.54210        1.74140
H          5.22530        3.04160       -0.10040
H          7.59220        3.25770        1.95970
H          7.76490        3.29740        0.18680
H          6.70500        0.94330        0.04170
H          6.52230        0.91300        1.81290
H          3.09200        1.81040        0.65870
H          1.25450        0.24260       -2.07460
H          5.88410        1.53110       -2.97280
H          5.93100       -2.12250       -1.00510
