rmsd243.gzmat
 OpenBabel08211713373D

 40 42  0  0  1  0  0  0  0  0999 V2000
    0.0000    0.0000    0.0000 O   0  0  0  0  0  0  0  0  0  0  0  0
    1.2081    0.0000    0.0000 C   0  0  0  0  0  0  0  0  0  0  0  0
    2.0556    0.0000    1.2139 C   0  0  0  0  0  0  0  0  0  0  0  0
    1.8761   -1.0019    2.1620 C   0  0  0  0  0  0  0  0  0  0  0  0
    2.6526   -0.9993    3.3196 C   0  0  0  0  0  0  0  0  0  0  0  0
    3.5780    0.0222    3.5243 C   0  0  0  0  0  0  0  0  0  0  0  0
    4.2933   -0.1482    4.6778 O   0  0  0  0  0  0  0  0  0  0  0  0
    4.9608    0.8812    5.3186 C   0  0  0  0  0  0  0  0  0  0  0  0
    6.0599    1.2170    4.6363 F   0  0  0  0  0  0  0  0  0  0  0  0
    4.2282    1.9973    5.3322 F   0  0  0  0  0  0  0  0  0  0  0  0
    3.7321    1.0583    2.5783 C   0  0  0  0  0  0  0  0  0  0  0  0
    4.6200    2.0184    2.9207 O   0  0  0  0  0  0  0  0  0  0  0  0
    4.7928    3.1273    2.0407 C   0  0  0  0  0  0  0  0  0  0  0  0
    5.6705    2.7790    0.8648 C   0  0  0  0  0  0  0  0  0  0  0  0
    7.1751    2.9168    1.0152 C   0  0  0  0  0  0  0  0  0  0  0  0
    6.5544    1.5499    0.9305 C   0  0  0  0  0  0  0  0  0  0  0  0
    2.9748    1.0320    1.4115 C   0  0  0  0  0  0  0  0  0  0  0  0
    1.8408    0.0753   -1.2558 N   0  0  0  0  0  0  0  0  0  0  0  0
    3.2236   -0.0485   -1.4633 C   0  0  0  0  0  0  0  0  0  0  0  0
    3.9406    0.9432   -2.1514 C   0  0  0  0  0  0  0  0  0  0  0  0
    3.1679    2.3711   -2.6260 Cl  0  0  0  0  0  0  0  0  0  0  0  0
    5.3012    0.7792   -2.4215 C   0  0  0  0  0  0  0  0  0  0  0  0
    5.9798   -0.3084   -2.0140 N   0  0  0  0  0  0  0  0  0  0  0  0
    5.3263   -1.2603   -1.3251 C   0  0  0  0  0  0  0  0  0  0  0  0
    3.9597   -1.1661   -1.0427 C   0  0  2  0  0  0  0  0  0  0  0  0
    3.2119   -2.4302   -0.2081 Cl  0  0  0  0  0  0  0  0  0  0  0  0
    1.1306   -1.7836    2.0044 H   0  0  0  0  0  0  0  0  0  0  0  0
    2.5424   -1.7833    4.0688 H   0  0  0  0  0  0  0  0  0  0  0  0
    5.1840    0.4625    6.3459 H   0  0  0  0  0  0  0  0  0  0  0  0
    5.2852    3.8441    2.7341 H   0  0  0  0  0  0  0  0  0  0  0  0
    3.8143    3.5421    1.7414 H   0  0  0  0  0  0  0  0  0  0  0  0
    5.2253    3.0416   -0.1004 H   0  0  0  0  0  0  0  0  0  0  0  0
    7.5922    3.2577    1.9597 H   0  0  0  0  0  0  0  0  0  0  0  0
    7.7649    3.2974    0.1868 H   0  0  0  0  0  0  0  0  0  0  0  0
    6.7050    0.9433    0.0417 H   0  0  0  0  0  0  0  0  0  0  0  0
    6.5223    0.9130    1.8129 H   0  0  0  0  0  0  0  0  0  0  0  0
    3.0920    1.8104    0.6587 H   0  0  0  0  0  0  0  0  0  0  0  0
    1.2545    0.2426   -2.0746 H   0  0  0  0  0  0  0  0  0  0  0  0
    5.8841    1.5311   -2.9728 H   0  0  0  0  0  0  0  0  0  0  0  0
    5.9310   -2.1225   -1.0051 H   0  0  0  0  0  0  0  0  0  0  0  0
  1  2  2  0  0  0  0
  2  3  1  0  0  0  0
  3 17  2  0  0  0  0
  3  4  1  0  0  0  0
  4  5  2  0  0  0  0
  5  6  1  0  0  0  0
  5 28  1  0  0  0  0
  6  7  1  0  0  0  0
  7  8  1  0  0  0  0
  8 10  1  0  0  0  0
  8 29  1  0  0  0  0
  9  8  1  0  0  0  0
 11 12  1  0  0  0  0
 11  6  2  0  0  0  0
 13 30  1  0  0  0  0
 13 12  1  0  0  0  0
 14 16  1  0  0  0  0
 14 15  1  0  0  0  0
 14 13  1  0  0  0  0
 15 33  1  0  0  0  0
 16 15  1  0  0  0  0
 16 36  1  0  0  0  0
 17 11  1  0  0  0  0
 18  2  1  0  0  0  0
 19 18  1  0  0  0  0
 19 25  1  0  0  0  0
 20 19  2  0  0  0  0
 21 20  1  0  0  0  0
 22 20  1  0  0  0  0
 22 23  2  0  0  0  0
 23 24  2  0  0  0  0
 24 25  1  0  0  0  0
 24 40  1  0  0  0  0
 25 26  1  6  0  0  0
 27  4  1  0  0  0  0
 31 13  1  0  0  0  0
 32 14  1  0  0  0  0
 34 15  1  0  0  0  0
 35 16  1  0  0  0  0
 37 17  1  0  0  0  0
 38 18  1  0  0  0  0
 39 22  1  0  0  0  0
M  RAD  1  25   2
M  END
$$$$
