40

O          0.17270       -0.63790       -0.00850
C          1.34620       -0.33010       -0.00120
C          2.13970       -0.20370        1.25920
C          1.76300       -0.99150        2.35190
C          2.47670       -0.89430        3.54580
C          3.55610       -0.02110        3.64770
O          4.31530        0.03040        4.80630
C          3.87250        0.82780        5.81940
F          3.62260        2.08450        5.39390
F          2.70900        0.36060        6.33960
C          3.93780        0.79570        2.56200
O          5.00660        1.59330        2.74780
C          5.60770        2.28710        1.65630
C          5.03620        3.66580        1.43740
C          5.42910        4.42700        0.19630
C          4.00320        3.98420        0.38630
C          3.19960        0.70600        1.37930
N          1.97680       -0.01840       -1.21350
C          3.32350        0.10530       -1.53340
C          3.77930        1.20320       -2.29310
Cl         2.63350        2.39740       -2.84020
C          5.13590        1.35680       -2.58340
N          6.05750        0.49140       -2.16460
C          5.65590       -0.57940       -1.48180
C          4.31660       -0.82710       -1.16400
Cl         3.90490       -2.30190       -0.34810
H          0.91950       -1.67450        2.25040
H          2.21800       -1.50220        4.41310
H          4.64540        0.84130        6.60270
H          5.56580        1.68150        0.73390
H          6.66690        2.37500        1.94240
H          4.97310        4.24470        2.36490
H          6.02470        3.89460       -0.55260
H          5.67540        5.48750        0.29150
H          3.24830        4.73660        0.62900
H          3.63410        3.18910       -0.26410
H          3.44330        1.36850        0.55800
H          1.31380        0.20600       -1.95140
H          5.46810        2.22550       -3.16030
H          6.41720       -1.29970       -1.16660
