40

O          0.34440        0.87080       -0.04540
C          1.48490        0.45550       -0.04720
C          2.30310        0.33260        1.19900
C          3.18110       -0.73560        1.41190
C          3.89550       -0.80570        2.60970
C          3.73690        0.18290        3.57370
O          4.49620        0.16880        4.73350
C          4.06600       -0.61180        5.76530
F          2.77470       -0.36880        6.07150
F          4.14390       -1.93010        5.44860
C          2.83520        1.25360        3.38230
O          2.75990        2.15170        4.38550
C          1.86470        3.25430        4.30740
C          2.49090        4.47870        3.67200
C          3.91840        4.84920        3.97360
C          3.53440        4.40160        2.58590
C          2.11500        1.30800        2.18720
N          2.06320        0.00500       -1.23410
C          3.40680       -0.17060       -1.55510
C          4.41070        0.78660       -1.30030
Cl         4.02480        2.33420       -0.60910
C          5.73730        0.51520       -1.65040
N          6.11200       -0.60670       -2.26040
C          5.18090       -1.51220       -2.55270
C          3.83710       -1.33850       -2.21680
Cl         2.67740       -2.58390       -2.58700
H          3.29500       -1.52130        0.66590
H          4.58590       -1.62480        2.81120
H          4.70660       -0.40570        6.63600
H          1.59950        3.47710        5.35270
H          0.93580        2.96310        3.78940
H          1.77790        5.30780        3.59620
H          4.49400        4.14160        4.57670
H          4.16010        5.90200        4.14280
H          3.48950        5.14840        1.78840
H          3.88220        3.42100        2.25560
H          1.41860        2.11790        1.98090
H          1.38550       -0.20620       -1.96240
H          6.50770        1.26110       -1.43180
H          5.49490       -2.42810       -3.06290
