
     RDKit          3D

 40 42  0  0  0  0  0  0  0  0999 V2000
    0.1544    0.9951   -0.1149 O   0  0  0  0  0  0  0  0  0  0  0  0
    1.2860    0.5586   -0.0791 C   0  0  0  0  0  0  0  0  0  0  0  0
    2.0183    0.3115    1.1980 C   0  0  0  0  0  0  0  0  0  0  0  0
    1.7335    1.1373    2.2932 C   0  0  0  0  0  0  0  0  0  0  0  0
    2.4129    0.9509    3.4926 C   0  0  0  0  0  0  0  0  0  0  0  0
    3.3691   -0.0594    3.6173 C   0  0  0  0  0  0  0  0  0  0  0  0
    3.9900   -0.1730    4.8450 O   0  0  0  0  0  0  0  0  0  0  0  0
    5.3467   -0.3116    4.9855 C   0  0  0  0  0  0  0  0  0  0  0  0
    5.7154   -1.5987    5.1280 F   0  0  0  0  0  0  0  0  0  0  0  0
    6.0106    0.1906    3.9186 F   0  0  0  0  0  0  0  0  0  0  0  0
    3.6224   -0.9354    2.5430 C   0  0  0  0  0  0  0  0  0  0  0  0
    4.5039   -1.9409    2.7226 O   0  0  0  0  0  0  0  0  0  0  0  0
    5.5421   -2.1525    1.7563 C   0  0  0  0  0  0  0  0  0  0  0  0
    5.5033   -3.5515    1.2102 C   0  0  0  0  0  0  0  0  0  0  0  0
    4.6522   -3.9063    0.0202 C   0  0  0  0  0  0  0  0  0  0  0  0
    6.1514   -3.8325   -0.1218 C   0  0  0  0  0  0  0  0  0  0  0  0
    2.9328   -0.7381    1.3432 C   0  0  0  0  0  0  0  0  0  0  0  0
    1.9281    0.2153   -1.2753 N   0  0  0  0  0  0  0  0  0  0  0  0
    3.2683   -0.0351   -1.5461 C   0  0  0  0  0  0  0  0  0  0  0  0
    4.3353    0.7802   -1.1105 C   0  0  0  0  0  0  0  0  0  0  0  0
    4.0464    2.2611   -0.2533 Cl  0  0  0  0  0  0  0  0  0  0  0  0
    5.6540    0.4099   -1.3941 C   0  0  0  0  0  0  0  0  0  0  0  0
    5.9710   -0.6682   -2.1094 N   0  0  0  0  0  0  0  0  0  0  0  0
    4.9835   -1.4216   -2.5894 C   0  0  0  0  0  0  0  0  0  0  0  0
    3.6402   -1.1478   -2.3292 C   0  0  0  0  0  0  0  0  0  0  0  0
    2.4064   -2.2252   -2.9218 Cl  0  0  0  0  0  0  0  0  0  0  0  0
    0.9954    1.9320    2.1807 H   0  0  0  0  0  0  0  0  0  0  0  0
    2.2345    1.5964    4.3541 H   0  0  0  0  0  0  0  0  0  0  0  0
    5.6483    0.2365    5.8929 H   0  0  0  0  0  0  0  0  0  0  0  0
    6.4944   -1.9701    2.2804 H   0  0  0  0  0  0  0  0  0  0  0  0
    5.4601   -1.4121    0.9439 H   0  0  0  0  0  0  0  0  0  0  0  0
    5.6045   -4.3224    1.9812 H   0  0  0  0  0  0  0  0  0  0  0  0
    4.0567   -3.1214   -0.4520 H   0  0  0  0  0  0  0  0  0  0  0  0
    4.1734   -4.8888    0.0084 H   0  0  0  0  0  0  0  0  0  0  0  0
    6.7130   -4.7631   -0.2371 H   0  0  0  0  0  0  0  0  0  0  0  0
    6.5697   -2.9836   -0.6718 H   0  0  0  0  0  0  0  0  0  0  0  0
    3.1026   -1.4470    0.5361 H   0  0  0  0  0  0  0  0  0  0  0  0
    1.2781    0.0818   -2.0462 H   0  0  0  0  0  0  0  0  0  0  0  0
    6.4715    1.0360   -1.0239 H   0  0  0  0  0  0  0  0  0  0  0  0
    5.2483   -2.3027   -3.1811 H   0  0  0  0  0  0  0  0  0  0  0  0
  1  2  2  0
  2  3  1  0
  2 18  1  0
  3  4  2  0
  3 17  1  0
  4  5  1  0
  4 27  1  0
  5  6  2  0
  5 28  1  0
  6  7  1  0
  6 11  1  0
  7  8  1  0
  8  9  1  0
  8 10  1  0
  8 29  1  0
 11 12  1  0
 11 17  2  0
 12 13  1  0
 13 14  1  0
 13 30  1  0
 13 31  1  0
 14 15  1  0
 14 16  1  0
 14 32  1  0
 15 16  1  0
 15 33  1  0
 15 34  1  0
 16 35  1  0
 16 36  1  0
 17 37  1  0
 18 19  1  0
 18 38  1  0
 19 20  2  0
 19 25  1  0
 20 21  1  0
 20 22  1  0
 22 23  2  0
 22 39  1  0
 23 24  1  0
 24 25  2  0
 24 40  1  0
 25 26  1  0
M  END

