40
rmsd20.gzmat
O          0.00000        0.00000        0.00000
C          1.20760        0.00000        0.00000
C          2.05950        0.00000        1.21530
C          2.96810       -1.03260        1.43140
C          3.75810       -1.02550        2.58140
C          3.62140        0.01950        3.48450
O          4.51000        0.09430        4.53330
C          4.06250       -0.31080        5.78060
F          2.94040        0.33110        6.11850
F          3.66370       -1.58920        5.71880
C          2.68730        1.05710        3.27760
O          2.63840        1.96750        4.27640
C          1.95840        3.19640        4.02440
C          2.77440        4.06170        3.10010
C          2.34750        5.49210        2.85910
C          3.59360        5.20590        3.65930
C          1.89330        1.03840        2.13220
N          1.84420       -0.04620       -1.25460
C          3.23650        0.00190       -1.43580
C          4.02250        1.07130       -0.98230
Cl         3.31110        2.39740       -0.21090
C          5.40660        1.06750       -1.18440
N          6.02930        0.06730       -1.83220
C          5.29790       -0.96170       -2.29620
C          3.91420       -1.02500       -2.11200
Cl         3.06120       -2.36840       -2.68490
H          3.06070       -1.84960        0.71630
H          4.47990       -1.82030        2.77180
H          4.92840       -0.13150        6.47950
H          1.89090        3.60040        5.05560
H          0.93680        3.01260        3.64570
H          3.20480        3.49320        2.26690
H          1.46800        5.88920        3.35660
H          2.43140        5.91430        1.86130
H          4.57120        5.41690        3.23500
H          3.60800        5.39300        4.72860
H          1.14790        1.81250        1.94810
H          1.26250       -0.19380       -2.07990
H          6.05080        1.88600       -0.82960
H          5.85540       -1.75200       -2.82060
