40
rmsd218.gzmat
O          0.00000        0.00000        0.00000
C          1.20850        0.00000        0.00000
C          2.05870        0.00000        1.21150
C          3.03190        0.97530        1.40940
C          3.84270        0.91740        2.53970
C          3.66900       -0.11720        3.46050
O          4.55520       -0.02270        4.49680
C          4.65410       -0.94410        5.52200
F          3.49950       -1.04590        6.18560
F          4.86810       -2.17070        5.03860
C          2.66660       -1.08990        3.27050
O          2.60520       -2.05430        4.21870
C          1.47730       -2.92740        4.21500
C          1.60870       -4.03300        3.19650
C          2.94240       -4.30760        2.53090
C          2.40910       -5.27180        3.55600
C          1.84850       -1.01470        2.14650
N          1.83620        0.01900       -1.26210
C          3.22310       -0.00760       -1.47000
C          3.84870        0.97080       -2.26190
Cl         2.93520        2.22240       -2.94380
C          5.22850        0.93950       -2.47620
N          6.01080       -0.00830       -1.92860
C          5.44010       -0.96170       -1.17180
C          4.06060       -1.00160       -0.94110
Cl         3.43120       -2.28410       -0.03800
H          3.16380        1.78370        0.69020
H          4.61400        1.66820        2.71460
H          5.50610       -0.54870        6.15430
H          0.54370       -2.34730        4.10180
H          1.53110       -3.31330        5.25660
H          0.70150       -4.16870        2.59560
H          3.80150       -3.68350        2.77420
H          2.96900       -4.59880        1.48440
H          2.05100       -6.24940        3.24780
H          2.88870       -5.33780        4.52930
H          1.06030       -1.75090        1.97770
H          1.23780        0.14810       -2.08040
H          5.74250        1.69080       -3.09390
H          6.12350       -1.71310       -0.74760
