
     RDKit          3D

 40 42  0  0  0  0  0  0  0  0999 V2000
    0.0707   -0.6170    0.0247 O   0  0  0  0  0  0  0  0  0  0  0  0
    1.2311   -0.2637    0.0414 C   0  0  0  0  0  0  0  0  0  0  0  0
    2.0270   -0.1533    1.2994 C   0  0  0  0  0  0  0  0  0  0  0  0
    1.7552   -1.0459    2.3408 C   0  0  0  0  0  0  0  0  0  0  0  0
    2.4668   -0.9416    3.5331 C   0  0  0  0  0  0  0  0  0  0  0  0
    3.4371    0.0452    3.7018 C   0  0  0  0  0  0  0  0  0  0  0  0
    4.1499    0.0118    4.8835 O   0  0  0  0  0  0  0  0  0  0  0  0
    4.3717    1.1127    5.6734 C   0  0  0  0  0  0  0  0  0  0  0  0
    5.5766    1.6672    5.4321 F   0  0  0  0  0  0  0  0  0  0  0  0
    3.4292    2.0559    5.4847 F   0  0  0  0  0  0  0  0  0  0  0  0
    3.7025    0.9705    2.6679 C   0  0  0  0  0  0  0  0  0  0  0  0
    4.6293    1.9126    2.9202 O   0  0  0  0  0  0  0  0  0  0  0  0
    5.1521    2.7187    1.8668 C   0  0  0  0  0  0  0  0  0  0  0  0
    5.9679    1.9299    0.8777 C   0  0  0  0  0  0  0  0  0  0  0  0
    7.2364    2.5081    0.3037 C   0  0  0  0  0  0  0  0  0  0  0  0
    7.3043    1.3825    1.3008 C   0  0  0  0  0  0  0  0  0  0  0  0
    2.9799    0.8599    1.4742 C   0  0  0  0  0  0  0  0  0  0  0  0
    1.8478    0.1413   -1.1491 N   0  0  0  0  0  0  0  0  0  0  0  0
    3.1932    0.2162   -1.4925 C   0  0  0  0  0  0  0  0  0  0  0  0
    3.6836    1.3302   -2.2070 C   0  0  0  0  0  0  0  0  0  0  0  0
    2.6028    2.6436   -2.5811 Cl  0  0  0  0  0  0  0  0  0  0  0  0
    5.0217    1.3976   -2.5975 C   0  0  0  0  0  0  0  0  0  0  0  0
    5.9002    0.4409   -2.3025 N   0  0  0  0  0  0  0  0  0  0  0  0
    5.4712   -0.6267   -1.6321 C   0  0  0  0  0  0  0  0  0  0  0  0
    4.1428   -0.7924   -1.2230 C   0  0  0  0  0  0  0  0  0  0  0  0
    3.6859   -2.2719   -0.4407 Cl  0  0  0  0  0  0  0  0  0  0  0  0
    0.9959   -1.8156    2.2009 H   0  0  0  0  0  0  0  0  0  0  0  0
    2.2951   -1.6321    4.3604 H   0  0  0  0  0  0  0  0  0  0  0  0
    4.3539    0.7775    6.7236 H   0  0  0  0  0  0  0  0  0  0  0  0
    5.7822    3.4562    2.3833 H   0  0  0  0  0  0  0  0  0  0  0  0
    4.3339    3.2694    1.3685 H   0  0  0  0  0  0  0  0  0  0  0  0
    5.3880    1.2994    0.2039 H   0  0  0  0  0  0  0  0  0  0  0  0
    7.5421    3.5067    0.6303 H   0  0  0  0  0  0  0  0  0  0  0  0
    7.4571    2.2807   -0.7422 H   0  0  0  0  0  0  0  0  0  0  0  0
    7.5839    0.3886    0.9424 H   0  0  0  0  0  0  0  0  0  0  0  0
    7.6379    1.6059    2.3184 H   0  0  0  0  0  0  0  0  0  0  0  0
    3.1468    1.5829    0.6797 H   0  0  0  0  0  0  0  0  0  0  0  0
    1.1823    0.3896   -1.8773 H   0  0  0  0  0  0  0  0  0  0  0  0
    5.3789    2.2733   -3.1476 H   0  0  0  0  0  0  0  0  0  0  0  0
    6.1970   -1.4133   -1.4047 H   0  0  0  0  0  0  0  0  0  0  0  0
  1  2  2  0
  2  3  1  0
  2 18  1  0
  3  4  2  0
  3 17  1  0
  4  5  1  0
  4 27  1  0
  5  6  2  0
  5 28  1  0
  6  7  1  0
  6 11  1  0
  7  8  1  0
  8  9  1  0
  8 10  1  0
  8 29  1  0
 11 12  1  0
 11 17  2  0
 12 13  1  0
 13 14  1  0
 13 30  1  0
 13 31  1  0
 14 15  1  0
 14 16  1  0
 14 32  1  0
 15 16  1  0
 15 33  1  0
 15 34  1  0
 16 35  1  0
 16 36  1  0
 17 37  1  0
 18 19  1  0
 18 38  1  0
 19 20  2  0
 19 25  1  0
 20 21  1  0
 20 22  1  0
 22 23  2  0
 22 39  1  0
 23 24  1  0
 24 25  2  0
 24 40  1  0
 25 26  1  0
M  END

