40
rmsd73.gzmat
O          0.00000        0.00000        0.00000
C          1.20400        0.00000        0.00000
C          2.07120        0.00000        1.20820
C          1.94420       -1.03980        2.12140
C          2.75120       -1.05330        3.26240
C          3.66150       -0.02550        3.45510
O          4.55070       -0.11730        4.50200
C          4.28730        0.64310        5.63060
F          4.02180        1.91210        5.30430
F          3.13430        0.23350        6.17930
C          3.78070        1.03960        2.53360
O          4.70110        1.96780        2.87660
C          4.87710        3.08920        2.01120
C          5.62340        2.69200        0.76360
C          5.04630        2.98350       -0.60600
C          6.22650        3.77650       -0.10190
C          2.97380        1.04780        1.40000
N          1.93240        0.00060       -1.20420
C          1.28370        0.03770       -2.45100
C          0.33310       -0.91820       -2.83530
Cl        -0.03890       -2.22760       -1.83490
C         -0.29810       -0.81800       -4.08080
N         -0.00010        0.15640       -4.95770
C          0.93170        1.06830       -4.62560
C          1.58220        1.03740       -3.39060
Cl         2.72310        2.23650       -3.02070
H          1.21590       -1.83530        1.95530
H          2.67350       -1.85790        3.99410
H          5.18770        0.51060        6.29660
H          5.49200        3.74340        2.66740
H          3.90990        3.58390        1.81720
H          6.18960        1.76050        0.90280
H          4.07890        3.47050       -0.70140
H          5.18790        2.26620       -1.40970
H          7.20820        3.62730       -0.54330
H          6.09830        4.82160        0.16620
H          3.03660        1.85970        0.67770
H          2.94140        0.12080       -1.19190
H         -1.06540       -1.53720       -4.40510
H          1.14160        1.83940       -5.38080
