36
rmsd205.gzmat
S          0.00000        0.00000        0.00000
N          1.73320        0.00000        0.00000
C          2.17300        0.00000        1.25660
N          3.50760        0.16070        1.61620
C          3.90860       -0.45380        2.89390
C          4.47660       -0.06410        0.52810
N          1.17930       -0.01520        2.28060
C         -0.02510       -0.01420        1.76520
C         -1.28700       -0.03760        2.57220
O         -2.18830       -0.75800        2.21370
C         -1.35680        0.84020        3.71920
C         -0.34690        1.60510        4.27380
N         -0.83280        2.30180        5.38750
C         -0.09230        3.17760        6.22450
O         -0.64760        3.69100        7.16060
C          1.34190        3.39480        5.86400
C         -2.20370        1.96610        5.55210
C         -3.13340        2.38620        6.50100
C         -4.41880        1.87060        6.40050
C         -4.77020        0.96290        5.38730
C         -3.84530        0.54420        4.44050
C         -2.54930        1.04800        4.51550
H          3.17090       -0.21060        3.68290
H          4.88020       -0.02980        3.19980
H          3.99690       -1.55100        2.83980
H          4.18090        0.53140       -0.35960
H          4.54360       -1.11850        0.21420
H          5.47090        0.28540        0.85110
H          0.68610        1.69300        3.96040
H          1.92560        2.46110        5.88100
H          1.81610        4.08380        6.58480
H          1.45750        3.84630        4.86600
H         -2.86220        3.08810        7.28850
H         -5.17510        2.17440        7.12400
H         -5.79000        0.58250        5.35070
H         -4.11020       -0.16400        3.65370
