36
rmsd208.gzmat
S          0.00000        0.00000        0.00000
N          1.73410        0.00000        0.00000
C          2.17350        0.00000        1.25630
N          3.50460        0.16940        1.62350
C          3.90780       -0.46940        2.88870
C          4.48330       -0.01480        0.53730
N          1.17980       -0.01650        2.28040
C         -0.02420       -0.01150        1.76520
C         -1.27910       -0.01530        2.58250
O         -2.17070       -0.77010        2.27690
C         -1.34810        0.92940        3.67590
C         -0.33560        1.71700        4.19340
N         -0.82340        2.48010        5.26220
C         -0.08280        3.40010        6.05100
O         -0.63810        3.96330        6.95810
C          1.35160        3.60130        5.68070
C         -2.19850        2.16440        5.43530
C         -3.13370        2.64430        6.35000
C         -4.42310        2.13600        6.26500
C         -4.77370        1.17600        5.30080
C         -3.84370        0.69670        4.38870
C         -2.54400        1.19210        4.44890
H          3.16000       -0.26080        3.67810
H          4.86760       -0.03430        3.21440
H          4.01730       -1.56310        2.80710
H          4.17150        0.57460       -0.34880
H          4.59100       -1.06420        0.21800
H          5.46220        0.36830        0.87000
H          0.70030        1.77720        3.88260
H          1.94270        2.67550        5.76680
H          1.81770        4.34260        6.35420
H          1.47010        3.98170        4.65360
H         -2.86330        3.38610        7.10060
H         -5.18290        2.48690        6.96340
H         -5.79620        0.80240        5.27400
H         -4.10710       -0.05230        3.64010
