36
rmsd18.gzmat
S          0.00000        0.00000        0.00000
N          1.73280        0.00000        0.00000
C          2.17350        0.00000        1.25640
N          3.50880        0.16390        1.61000
C          3.92190       -0.44390        2.88660
C          4.47280       -0.05720        0.51670
N          1.18050       -0.01580        2.28230
C         -0.02330       -0.01560        1.76610
C         -1.28840       -0.04010        2.56650
O         -2.16860       -0.79710        2.23290
C         -1.39080        0.88840        3.67060
C         -0.39020        1.64700        4.24980
N         -0.91720        2.40690        5.30260
C         -0.20450        3.31070        6.13440
O         -0.80440        3.90180        6.99380
C          1.25840        3.45700        5.86580
C         -2.30530        2.11850        5.40040
C         -3.27560        2.60330        6.27520
C         -4.56730        2.11640        6.12400
C         -4.88700        1.17520        5.13090
C         -3.92260        0.69340        4.25650
C         -2.61870        1.16460        4.38630
H          3.17640       -0.22450        3.67520
H          4.87980        0.00740        3.19740
H          4.04350       -1.53760        2.82810
H          4.18100        0.55340       -0.36190
H          4.52850       -1.10750        0.18670
H          5.47100        0.27670        0.84240
H          0.66080        1.68720        3.99220
H          1.80730        2.51380        6.01720
H          1.70030        4.19970        6.55370
H          1.46410        3.80780        4.84200
H         -3.03030        3.33260        7.04580
H         -5.35310        2.47010        6.79120
H         -5.91290        0.81870        5.05180
H         -4.16180       -0.04020        3.48510
