rmsd208.gzmat
 OpenBabel08211713383D

 36 38  0  0  0  0  0  0  0  0999 V2000
    0.0000    0.0000    0.0000 S   0  0  0  0  0  0  0  0  0  0  0  0
    1.7341    0.0000    0.0000 N   0  0  0  0  0  0  0  0  0  0  0  0
    2.1735    0.0000    1.2563 C   0  0  0  0  0  0  0  0  0  0  0  0
    3.5046    0.1694    1.6235 N   0  0  0  0  0  0  0  0  0  0  0  0
    3.9078   -0.4694    2.8887 C   0  0  0  0  0  0  0  0  0  0  0  0
    4.4833   -0.0148    0.5373 C   0  0  0  0  0  0  0  0  0  0  0  0
    1.1798   -0.0165    2.2804 N   0  0  0  0  0  0  0  0  0  0  0  0
   -0.0242   -0.0115    1.7652 C   0  0  0  0  0  0  0  0  0  0  0  0
   -1.2791   -0.0153    2.5825 C   0  0  0  0  0  0  0  0  0  0  0  0
   -2.1707   -0.7701    2.2769 O   0  0  0  0  0  0  0  0  0  0  0  0
   -1.3481    0.9294    3.6759 C   0  0  0  0  0  0  0  0  0  0  0  0
   -0.3356    1.7170    4.1934 C   0  0  0  0  0  0  0  0  0  0  0  0
   -0.8234    2.4801    5.2622 N   0  0  0  0  0  0  0  0  0  0  0  0
   -0.0828    3.4001    6.0510 C   0  0  0  0  0  0  0  0  0  0  0  0
   -0.6381    3.9633    6.9581 O   0  0  0  0  0  0  0  0  0  0  0  0
    1.3516    3.6013    5.6807 C   0  0  0  0  0  0  0  0  0  0  0  0
   -2.1985    2.1644    5.4353 C   0  0  0  0  0  0  0  0  0  0  0  0
   -3.1337    2.6443    6.3500 C   0  0  0  0  0  0  0  0  0  0  0  0
   -4.4231    2.1360    6.2650 C   0  0  0  0  0  0  0  0  0  0  0  0
   -4.7737    1.1760    5.3008 C   0  0  0  0  0  0  0  0  0  0  0  0
   -3.8437    0.6967    4.3887 C   0  0  0  0  0  0  0  0  0  0  0  0
   -2.5440    1.1921    4.4489 C   0  0  0  0  0  0  0  0  0  0  0  0
    3.1600   -0.2608    3.6781 H   0  0  0  0  0  0  0  0  0  0  0  0
    4.8676   -0.0343    3.2144 H   0  0  0  0  0  0  0  0  0  0  0  0
    4.0173   -1.5631    2.8071 H   0  0  0  0  0  0  0  0  0  0  0  0
    4.1715    0.5746   -0.3488 H   0  0  0  0  0  0  0  0  0  0  0  0
    4.5910   -1.0642    0.2180 H   0  0  0  0  0  0  0  0  0  0  0  0
    5.4622    0.3683    0.8700 H   0  0  0  0  0  0  0  0  0  0  0  0
    0.7003    1.7772    3.8826 H   0  0  0  0  0  0  0  0  0  0  0  0
    1.9427    2.6755    5.7668 H   0  0  0  0  0  0  0  0  0  0  0  0
    1.8177    4.3426    6.3542 H   0  0  0  0  0  0  0  0  0  0  0  0
    1.4701    3.9817    4.6536 H   0  0  0  0  0  0  0  0  0  0  0  0
   -2.8633    3.3861    7.1006 H   0  0  0  0  0  0  0  0  0  0  0  0
   -5.1829    2.4869    6.9634 H   0  0  0  0  0  0  0  0  0  0  0  0
   -5.7962    0.8024    5.2740 H   0  0  0  0  0  0  0  0  0  0  0  0
   -4.1071   -0.0523    3.6401 H   0  0  0  0  0  0  0  0  0  0  0  0
  1  8  1  0  0  0  0
  2  1  1  0  0  0  0
  2  3  2  0  0  0  0
  3  4  1  0  0  0  0
  3  7  2  0  0  0  0
  4  5  1  0  0  0  0
  5 24  1  0  0  0  0
  5 23  1  0  0  0  0
  6 28  1  0  0  0  0
  6  4  1  0  0  0  0
  8  7  2  0  0  0  0
  8  9  1  0  0  0  0
  9 11  1  0  0  0  0
 10  9  2  0  0  0  0
 11 12  2  0  0  0  0
 11 22  1  0  0  0  0
 12 13  1  0  0  0  0
 13 17  1  0  0  0  0
 13 14  1  0  0  0  0
 14 15  2  0  0  0  0
 16 30  1  0  0  0  0
 16 14  1  0  0  0  0
 16 31  1  0  0  0  0
 17 18  2  0  0  0  0
 18 33  1  0  0  0  0
 19 18  1  0  0  0  0
 19 34  1  0  0  0  0
 20 19  2  0  0  0  0
 21 22  2  0  0  0  0
 21 20  1  0  0  0  0
 22 17  1  0  0  0  0
 25  5  1  0  0  0  0
 26  6  1  0  0  0  0
 27  6  1  0  0  0  0
 29 12  1  0  0  0  0
 32 16  1  0  0  0  0
 35 20  1  0  0  0  0
 36 21  1  0  0  0  0
M  END
$$$$
