rmsd195.gzmat
 OpenBabel08211713383D

 36 38  0  0  0  0  0  0  0  0999 V2000
    0.0000    0.0000    0.0000 S   0  0  0  0  0  0  0  0  0  0  0  0
    1.7322    0.0000    0.0000 N   0  0  0  0  0  0  0  0  0  0  0  0
    2.1721    0.0000    1.2569 C   0  0  0  0  0  0  0  0  0  0  0  0
    3.5064   -0.1669    1.6148 N   0  0  0  0  0  0  0  0  0  0  0  0
    4.4776    0.0709    0.5319 C   0  0  0  0  0  0  0  0  0  0  0  0
    3.9059    0.4253    2.9033 C   0  0  0  0  0  0  0  0  0  0  0  0
    1.1791    0.0207    2.2800 N   0  0  0  0  0  0  0  0  0  0  0  0
   -0.0264    0.0170    1.7648 C   0  0  0  0  0  0  0  0  0  0  0  0
   -1.2916    0.0435    2.5664 C   0  0  0  0  0  0  0  0  0  0  0  0
   -2.2339    0.6606    2.1276 O   0  0  0  0  0  0  0  0  0  0  0  0
   -1.3210   -0.7001    3.8062 C   0  0  0  0  0  0  0  0  0  0  0  0
   -0.2712   -1.3151    4.4636 C   0  0  0  0  0  0  0  0  0  0  0  0
   -0.7304   -1.9112    5.6452 N   0  0  0  0  0  0  0  0  0  0  0  0
    0.0569   -2.6130    6.5959 C   0  0  0  0  0  0  0  0  0  0  0  0
   -0.4793   -3.0627    7.5750 O   0  0  0  0  0  0  0  0  0  0  0  0
    1.5168   -2.7337    6.2969 C   0  0  0  0  0  0  0  0  0  0  0  0
   -2.1268   -1.6670    5.7464 C   0  0  0  0  0  0  0  0  0  0  0  0
   -3.0464   -2.0426    6.7233 C   0  0  0  0  0  0  0  0  0  0  0  0
   -4.3641   -1.6435    6.5414 C   0  0  0  0  0  0  0  0  0  0  0  0
   -4.7567   -0.8925    5.4209 C   0  0  0  0  0  0  0  0  0  0  0  0
   -3.8417   -0.5177    4.4464 C   0  0  0  0  0  0  0  0  0  0  0  0
   -2.5139   -0.9062    4.6028 C   0  0  0  0  0  0  0  0  0  0  0  0
    4.1717   -0.4943   -0.3721 H   0  0  0  0  0  0  0  0  0  0  0  0
    5.4646   -0.3063    0.8457 H   0  0  0  0  0  0  0  0  0  0  0  0
    4.5655    1.1317    0.2474 H   0  0  0  0  0  0  0  0  0  0  0  0
    3.2064    0.1035    3.6980 H   0  0  0  0  0  0  0  0  0  0  0  0
    3.9228    1.5272    2.8902 H   0  0  0  0  0  0  0  0  0  0  0  0
    4.9100    0.0553    3.1700 H   0  0  0  0  0  0  0  0  0  0  0  0
    0.7724   -1.3616    4.1766 H   0  0  0  0  0  0  0  0  0  0  0  0
    1.7099   -3.2607    5.3490 H   0  0  0  0  0  0  0  0  0  0  0  0
    2.0231   -3.3088    7.0919 H   0  0  0  0  0  0  0  0  0  0  0  0
    2.0133   -1.7519    6.2455 H   0  0  0  0  0  0  0  0  0  0  0  0
   -2.7439   -2.6238    7.5934 H   0  0  0  0  0  0  0  0  0  0  0  0
   -5.1133   -1.9161    7.2846 H   0  0  0  0  0  0  0  0  0  0  0  0
   -5.8010   -0.6002    5.3205 H   0  0  0  0  0  0  0  0  0  0  0  0
   -4.1394    0.0703    3.5765 H   0  0  0  0  0  0  0  0  0  0  0  0
  1  8  1  0  0  0  0
  2  1  1  0  0  0  0
  2  3  2  0  0  0  0
  3  4  1  0  0  0  0
  3  7  2  0  0  0  0
  4  6  1  0  0  0  0
  5 24  1  0  0  0  0
  5  4  1  0  0  0  0
  6 28  1  0  0  0  0
  6 26  1  0  0  0  0
  8  7  2  0  0  0  0
  8  9  1  0  0  0  0
  9 11  1  0  0  0  0
 10  9  2  0  0  0  0
 11 12  2  0  0  0  0
 11 22  1  0  0  0  0
 12 13  1  0  0  0  0
 13 17  1  0  0  0  0
 13 14  1  0  0  0  0
 14 15  2  0  0  0  0
 16 14  1  0  0  0  0
 16 31  1  0  0  0  0
 17 18  2  0  0  0  0
 18 33  1  0  0  0  0
 19 18  1  0  0  0  0
 19 34  1  0  0  0  0
 20 19  2  0  0  0  0
 21 22  2  0  0  0  0
 21 20  1  0  0  0  0
 22 17  1  0  0  0  0
 23  5  1  0  0  0  0
 25  5  1  0  0  0  0
 27  6  1  0  0  0  0
 29 12  1  0  0  0  0
 30 16  1  0  0  0  0
 32 16  1  0  0  0  0
 35 20  1  0  0  0  0
 36 21  1  0  0  0  0
M  END
$$$$
