36
rmsd10.gzmat
S          0.00000        0.00000        0.00000
N          1.73260        0.00000        0.00000
C          2.17270        0.00000        1.25680
N          3.50710       -0.16420        1.61590
C          4.47750        0.05260        0.52740
C          3.91310        0.45320        2.89070
N          1.17920        0.01800        2.28100
C         -0.02540        0.01630        1.76550
C         -1.29000        0.05050        2.56720
O         -2.20730        0.72370        2.15940
C         -1.34970       -0.75070        3.76980
C         -0.32450       -1.42530        4.40750
N         -0.81330       -2.05830        5.55820
C         -0.05950       -2.81610        6.49280
O         -0.62560       -3.29940        7.43850
C          1.40400       -2.95170        6.22220
C         -2.20310       -1.77730        5.65750
C         -3.14280       -2.16900        6.60880
C         -4.44620       -1.72270        6.43480
C         -4.80590       -0.91080        5.34610
C         -3.87110       -0.52100        4.39650
C         -2.55660       -0.95570        4.54560
H          4.18050       -0.54500       -0.35830
H          5.46970       -0.29870        0.85460
H          4.55100        1.10510        0.20880
H          3.16500        0.23690        3.67720
H          4.03140        1.54710        2.82510
H          4.87130        0.00710        3.20800
H          0.71960       -1.49180        4.12650
H          1.60680       -3.48520        5.28010
H          1.88750       -3.53050        7.02950
H          1.91400       -1.97680        6.17610
H         -2.86580       -2.79820        7.45370
H         -5.20980       -2.00660        7.15890
H         -5.84010       -0.58270        5.25140
H         -4.14250        0.11340        3.55110
