rmsd23.gzmat
 OpenBabel08211713383D

 36 38  0  0  0  0  0  0  0  0999 V2000
    0.0000    0.0000    0.0000 S   0  0  0  0  0  0  0  0  0  0  0  0
    1.7328    0.0000    0.0000 N   0  0  0  0  0  0  0  0  0  0  0  0
    2.1724    0.0000    1.2568 C   0  0  0  0  0  0  0  0  0  0  0  0
    3.5054   -0.1711    1.6162 N   0  0  0  0  0  0  0  0  0  0  0  0
    4.4770    0.0411    0.5282 C   0  0  0  0  0  0  0  0  0  0  0  0
    3.9170    0.4370    2.8933 C   0  0  0  0  0  0  0  0  0  0  0  0
    1.1788    0.0189    2.2801 N   0  0  0  0  0  0  0  0  0  0  0  0
   -0.0258    0.0141    1.7647 C   0  0  0  0  0  0  0  0  0  0  0  0
   -1.2873    0.0303    2.5724 C   0  0  0  0  0  0  0  0  0  0  0  0
   -2.2118    0.7037    2.1829 O   0  0  0  0  0  0  0  0  0  0  0  0
   -1.3294   -0.7985    3.7568 C   0  0  0  0  0  0  0  0  0  0  0  0
   -0.2889   -1.4771    4.3653 C   0  0  0  0  0  0  0  0  0  0  0  0
   -0.7575   -2.1516    5.4999 N   0  0  0  0  0  0  0  0  0  0  0  0
    0.0107   -2.9554    6.3830 C   0  0  0  0  0  0  0  0  0  0  0  0
   -0.5366   -3.4659    7.3253 O   0  0  0  0  0  0  0  0  0  0  0  0
    1.4625   -3.1059    6.0620 C   0  0  0  0  0  0  0  0  0  0  0  0
   -2.1494   -1.8920    5.6217 C   0  0  0  0  0  0  0  0  0  0  0  0
   -3.0742   -2.3250    6.5694 C   0  0  0  0  0  0  0  0  0  0  0  0
   -4.3861   -1.8959    6.4175 C   0  0  0  0  0  0  0  0  0  0  0  0
   -4.7680   -1.0598    5.3552 C   0  0  0  0  0  0  0  0  0  0  0  0
   -3.8478   -0.6268    4.4103 C   0  0  0  0  0  0  0  0  0  0  0  0
   -2.5253   -1.0433    4.5374 C   0  0  0  0  0  0  0  0  0  0  0  0
    4.1759   -0.5531   -0.3583 H   0  0  0  0  0  0  0  0  0  0  0  0
    5.4670   -0.3177    0.8540 H   0  0  0  0  0  0  0  0  0  0  0  0
    4.5555    1.0933    0.2109 H   0  0  0  0  0  0  0  0  0  0  0  0
    3.1578    0.2438    3.6754 H   0  0  0  0  0  0  0  0  0  0  0  0
    4.0667    1.5266    2.8276 H   0  0  0  0  0  0  0  0  0  0  0  0
    4.8607   -0.0346    3.2174 H   0  0  0  0  0  0  0  0  0  0  0  0
    0.7541   -1.5175    4.0753 H   0  0  0  0  0  0  0  0  0  0  0  0
    1.6309   -3.5446    5.0659 H   0  0  0  0  0  0  0  0  0  0  0  0
    1.9466   -3.7765    6.7934 H   0  0  0  0  0  0  0  0  0  0  0  0
    2.0005   -2.1458    6.1039 H   0  0  0  0  0  0  0  0  0  0  0  0
   -2.7806   -2.9724    7.3947 H   0  0  0  0  0  0  0  0  0  0  0  0
   -5.1387   -2.2142    7.1384 H   0  0  0  0  0  0  0  0  0  0  0  0
   -5.8083   -0.7479    5.2768 H   0  0  0  0  0  0  0  0  0  0  0  0
   -4.1366    0.0259    3.5850 H   0  0  0  0  0  0  0  0  0  0  0  0
  1  8  1  0  0  0  0
  2  1  1  0  0  0  0
  2  3  2  0  0  0  0
  3  4  1  0  0  0  0
  3  7  2  0  0  0  0
  4  6  1  0  0  0  0
  5 24  1  0  0  0  0
  5  4  1  0  0  0  0
  6 28  1  0  0  0  0
  6 26  1  0  0  0  0
  8  7  2  0  0  0  0
  8  9  1  0  0  0  0
  9 11  1  0  0  0  0
 10  9  2  0  0  0  0
 11 12  2  0  0  0  0
 11 22  1  0  0  0  0
 12 13  1  0  0  0  0
 13 17  1  0  0  0  0
 13 14  1  0  0  0  0
 14 15  2  0  0  0  0
 16 32  1  0  0  0  0
 16 14  1  0  0  0  0
 16 31  1  0  0  0  0
 17 18  2  0  0  0  0
 18 33  1  0  0  0  0
 19 18  1  0  0  0  0
 19 34  1  0  0  0  0
 20 19  2  0  0  0  0
 21 22  2  0  0  0  0
 21 20  1  0  0  0  0
 22 17  1  0  0  0  0
 23  5  1  0  0  0  0
 25  5  1  0  0  0  0
 27  6  1  0  0  0  0
 29 12  1  0  0  0  0
 30 16  1  0  0  0  0
 35 20  1  0  0  0  0
 36 21  1  0  0  0  0
M  END
$$$$
