rmsd18.gzmat
 OpenBabel08211713383D

 36 38  0  0  0  0  0  0  0  0999 V2000
    0.0000    0.0000    0.0000 S   0  0  0  0  0  0  0  0  0  0  0  0
    1.7328    0.0000    0.0000 N   0  0  0  0  0  0  0  0  0  0  0  0
    2.1735    0.0000    1.2564 C   0  0  0  0  0  0  0  0  0  0  0  0
    3.5088    0.1639    1.6100 N   0  0  0  0  0  0  0  0  0  0  0  0
    3.9219   -0.4439    2.8866 C   0  0  0  0  0  0  0  0  0  0  0  0
    4.4728   -0.0572    0.5167 C   0  0  0  0  0  0  0  0  0  0  0  0
    1.1805   -0.0158    2.2823 N   0  0  0  0  0  0  0  0  0  0  0  0
   -0.0233   -0.0156    1.7661 C   0  0  0  0  0  0  0  0  0  0  0  0
   -1.2884   -0.0401    2.5665 C   0  0  0  0  0  0  0  0  0  0  0  0
   -2.1686   -0.7971    2.2329 O   0  0  0  0  0  0  0  0  0  0  0  0
   -1.3908    0.8884    3.6706 C   0  0  0  0  0  0  0  0  0  0  0  0
   -0.3902    1.6470    4.2498 C   0  0  0  0  0  0  0  0  0  0  0  0
   -0.9172    2.4069    5.3026 N   0  0  0  0  0  0  0  0  0  0  0  0
   -0.2045    3.3107    6.1344 C   0  0  0  0  0  0  0  0  0  0  0  0
   -0.8044    3.9018    6.9938 O   0  0  0  0  0  0  0  0  0  0  0  0
    1.2584    3.4570    5.8658 C   0  0  0  0  0  0  0  0  0  0  0  0
   -2.3053    2.1185    5.4004 C   0  0  0  0  0  0  0  0  0  0  0  0
   -3.2756    2.6033    6.2752 C   0  0  0  0  0  0  0  0  0  0  0  0
   -4.5673    2.1164    6.1240 C   0  0  0  0  0  0  0  0  0  0  0  0
   -4.8870    1.1752    5.1309 C   0  0  0  0  0  0  0  0  0  0  0  0
   -3.9226    0.6934    4.2565 C   0  0  0  0  0  0  0  0  0  0  0  0
   -2.6187    1.1646    4.3863 C   0  0  0  0  0  0  0  0  0  0  0  0
    3.1764   -0.2245    3.6752 H   0  0  0  0  0  0  0  0  0  0  0  0
    4.8798    0.0074    3.1974 H   0  0  0  0  0  0  0  0  0  0  0  0
    4.0435   -1.5376    2.8281 H   0  0  0  0  0  0  0  0  0  0  0  0
    4.1810    0.5534   -0.3619 H   0  0  0  0  0  0  0  0  0  0  0  0
    4.5285   -1.1075    0.1867 H   0  0  0  0  0  0  0  0  0  0  0  0
    5.4710    0.2767    0.8424 H   0  0  0  0  0  0  0  0  0  0  0  0
    0.6608    1.6872    3.9922 H   0  0  0  0  0  0  0  0  0  0  0  0
    1.8073    2.5138    6.0172 H   0  0  0  0  0  0  0  0  0  0  0  0
    1.7003    4.1997    6.5537 H   0  0  0  0  0  0  0  0  0  0  0  0
    1.4641    3.8078    4.8420 H   0  0  0  0  0  0  0  0  0  0  0  0
   -3.0303    3.3326    7.0458 H   0  0  0  0  0  0  0  0  0  0  0  0
   -5.3531    2.4701    6.7912 H   0  0  0  0  0  0  0  0  0  0  0  0
   -5.9129    0.8187    5.0518 H   0  0  0  0  0  0  0  0  0  0  0  0
   -4.1618   -0.0402    3.4851 H   0  0  0  0  0  0  0  0  0  0  0  0
  1  8  1  0  0  0  0
  2  1  1  0  0  0  0
  2  3  2  0  0  0  0
  3  4  1  0  0  0  0
  3  7  2  0  0  0  0
  4  5  1  0  0  0  0
  5 24  1  0  0  0  0
  5 23  1  0  0  0  0
  6 28  1  0  0  0  0
  6  4  1  0  0  0  0
  8  7  2  0  0  0  0
  8  9  1  0  0  0  0
  9 11  1  0  0  0  0
 10  9  2  0  0  0  0
 11 12  2  0  0  0  0
 11 22  1  0  0  0  0
 12 13  1  0  0  0  0
 13 17  1  0  0  0  0
 13 14  1  0  0  0  0
 14 15  2  0  0  0  0
 16 30  1  0  0  0  0
 16 14  1  0  0  0  0
 16 31  1  0  0  0  0
 17 18  2  0  0  0  0
 18 33  1  0  0  0  0
 19 18  1  0  0  0  0
 19 34  1  0  0  0  0
 20 19  2  0  0  0  0
 21 22  2  0  0  0  0
 21 20  1  0  0  0  0
 22 17  1  0  0  0  0
 25  5  1  0  0  0  0
 26  6  1  0  0  0  0
 27  6  1  0  0  0  0
 29 12  1  0  0  0  0
 32 16  1  0  0  0  0
 35 20  1  0  0  0  0
 36 21  1  0  0  0  0
M  END
$$$$
