rmsd209.gzmat
 OpenBabel08211713383D

 36 38  0  0  0  0  0  0  0  0999 V2000
    0.0000    0.0000    0.0000 S   0  0  0  0  0  0  0  0  0  0  0  0
    1.7329    0.0000    0.0000 N   0  0  0  0  0  0  0  0  0  0  0  0
    2.1725    0.0000    1.2567 C   0  0  0  0  0  0  0  0  0  0  0  0
    3.5063   -0.1662    1.6154 N   0  0  0  0  0  0  0  0  0  0  0  0
    4.4791    0.0626    0.5316 C   0  0  0  0  0  0  0  0  0  0  0  0
    3.9084    0.4336    2.8996 C   0  0  0  0  0  0  0  0  0  0  0  0
    1.1789    0.0171    2.2807 N   0  0  0  0  0  0  0  0  0  0  0  0
   -0.0257    0.0148    1.7652 C   0  0  0  0  0  0  0  0  0  0  0  0
   -1.2858    0.0394    2.5750 C   0  0  0  0  0  0  0  0  0  0  0  0
   -2.1982    0.7371    2.1999 O   0  0  0  0  0  0  0  0  0  0  0  0
   -1.3392   -0.8039    3.7489 C   0  0  0  0  0  0  0  0  0  0  0  0
   -0.3258   -1.5615    4.3083 C   0  0  0  0  0  0  0  0  0  0  0  0
   -0.7945   -2.2101    5.4582 N   0  0  0  0  0  0  0  0  0  0  0  0
   -0.0467   -3.0550    6.3200 C   0  0  0  0  0  0  0  0  0  0  0  0
   -0.5910   -3.5252    7.2851 O   0  0  0  0  0  0  0  0  0  0  0  0
    1.3813   -3.2975    5.9521 C   0  0  0  0  0  0  0  0  0  0  0  0
   -2.1574   -1.8504    5.6413 C   0  0  0  0  0  0  0  0  0  0  0  0
   -3.0686   -2.2187    6.6289 C   0  0  0  0  0  0  0  0  0  0  0  0
   -4.3496   -1.6903    6.5396 C   0  0  0  0  0  0  0  0  0  0  0  0
   -4.7149   -0.8222    5.4972 C   0  0  0  0  0  0  0  0  0  0  0  0
   -3.8084   -0.4547    4.5120 C   0  0  0  0  0  0  0  0  0  0  0  0
   -2.5161   -0.9691    4.5776 C   0  0  0  0  0  0  0  0  0  0  0  0
    4.1763   -0.5115   -0.3679 H   0  0  0  0  0  0  0  0  0  0  0  0
    5.4664   -0.3084    0.8524 H   0  0  0  0  0  0  0  0  0  0  0  0
    4.5654    1.1211    0.2364 H   0  0  0  0  0  0  0  0  0  0  0  0
    3.1794    0.1654    3.6888 H   0  0  0  0  0  0  0  0  0  0  0  0
    3.9807    1.5328    2.8633 H   0  0  0  0  0  0  0  0  0  0  0  0
    4.8885    0.0194    3.1916 H   0  0  0  0  0  0  0  0  0  0  0  0
    0.6977   -1.6749    3.9735 H   0  0  0  0  0  0  0  0  0  0  0  0
    1.4814   -3.8125    4.9837 H   0  0  0  0  0  0  0  0  0  0  0  0
    1.8638   -3.9412    6.7087 H   0  0  0  0  0  0  0  0  0  0  0  0
    1.9679   -2.3668    5.9022 H   0  0  0  0  0  0  0  0  0  0  0  0
   -2.7875   -2.8913    7.4383 H   0  0  0  0  0  0  0  0  0  0  0  0
   -5.0904   -1.9522    7.2951 H   0  0  0  0  0  0  0  0  0  0  0  0
   -5.7312   -0.4321    5.4674 H   0  0  0  0  0  0  0  0  0  0  0  0
   -4.0848    0.2225    3.7022 H   0  0  0  0  0  0  0  0  0  0  0  0
  1  8  1  0  0  0  0
  2  1  1  0  0  0  0
  2  3  2  0  0  0  0
  3  4  1  0  0  0  0
  3  7  2  0  0  0  0
  4  6  1  0  0  0  0
  5 24  1  0  0  0  0
  5  4  1  0  0  0  0
  6 28  1  0  0  0  0
  6 26  1  0  0  0  0
  8  7  2  0  0  0  0
  8  9  1  0  0  0  0
  9 11  1  0  0  0  0
 10  9  2  0  0  0  0
 11 12  2  0  0  0  0
 11 22  1  0  0  0  0
 12 13  1  0  0  0  0
 13 17  1  0  0  0  0
 13 14  1  0  0  0  0
 14 15  2  0  0  0  0
 16 14  1  0  0  0  0
 16 31  1  0  0  0  0
 17 18  2  0  0  0  0
 18 33  1  0  0  0  0
 19 18  1  0  0  0  0
 19 34  1  0  0  0  0
 20 19  2  0  0  0  0
 21 22  2  0  0  0  0
 21 20  1  0  0  0  0
 22 17  1  0  0  0  0
 23  5  1  0  0  0  0
 25  5  1  0  0  0  0
 27  6  1  0  0  0  0
 29 12  1  0  0  0  0
 30 16  1  0  0  0  0
 32 16  1  0  0  0  0
 35 20  1  0  0  0  0
 36 21  1  0  0  0  0
M  END
$$$$
