36
rmsd209.gzmat
S          0.00000        0.00000        0.00000
N          1.73290        0.00000        0.00000
C          2.17250        0.00000        1.25670
N          3.50630       -0.16620        1.61540
C          4.47910        0.06260        0.53160
C          3.90840        0.43360        2.89960
N          1.17890        0.01710        2.28070
C         -0.02570        0.01480        1.76520
C         -1.28580        0.03940        2.57500
O         -2.19820        0.73710        2.19990
C         -1.33920       -0.80390        3.74890
C         -0.32580       -1.56150        4.30830
N         -0.79450       -2.21010        5.45820
C         -0.04670       -3.05500        6.32000
O         -0.59100       -3.52520        7.28510
C          1.38130       -3.29750        5.95210
C         -2.15740       -1.85040        5.64130
C         -3.06860       -2.21870        6.62890
C         -4.34960       -1.69030        6.53960
C         -4.71490       -0.82220        5.49720
C         -3.80840       -0.45470        4.51200
C         -2.51610       -0.96910        4.57760
H          4.17630       -0.51150       -0.36790
H          5.46640       -0.30840        0.85240
H          4.56540        1.12110        0.23640
H          3.17940        0.16540        3.68880
H          3.98070        1.53280        2.86330
H          4.88850        0.01940        3.19160
H          0.69770       -1.67490        3.97350
H          1.48140       -3.81250        4.98370
H          1.86380       -3.94120        6.70870
H          1.96790       -2.36680        5.90220
H         -2.78750       -2.89130        7.43830
H         -5.09040       -1.95220        7.29510
H         -5.73120       -0.43210        5.46740
H         -4.08480        0.22250        3.70220
