36
rmsd193.gzmat
S          0.00000        0.00000        0.00000
N          1.73340        0.00000        0.00000
C          2.17270        0.00000        1.25660
N          3.50340        0.17180        1.62400
C          3.90280       -0.45320        2.89710
C          4.48670       -0.02010        0.54360
N          1.17880       -0.02000        2.27950
C         -0.02620       -0.01470        1.76450
C         -1.28460       -0.03000        2.57690
O         -2.21840       -0.68620        2.18060
C         -1.31090        0.77310        3.77910
C         -0.27230        1.46660        4.37360
N         -0.72400        2.09500        5.54130
C          0.05330        2.88360        6.43010
O         -0.47460        3.34510        7.40840
C          1.49070        3.08070        6.06910
C         -2.10300        1.79000        5.69890
C         -3.00970        2.16480        6.68810
C         -4.31200        1.69870        6.56450
C         -4.70270        0.88320        5.48910
C         -3.80050        0.50810        4.50320
C         -2.48800        0.96210        4.60210
H          3.16120       -0.22030        3.68530
H          4.87100       -0.02860        3.21130
H          3.99610       -1.54940        2.83230
H          4.16520        0.53940       -0.35810
H          4.61860       -1.07440        0.25260
H          5.45700        0.39260        0.86710
H          0.75890        1.54860        4.05260
H          2.03970        2.12920        5.99190
H          1.99850        3.68350        6.84250
H          1.61120        3.61800        5.11470
H         -2.70900        2.79560        7.52360
H         -5.05030        1.96920        7.31910
H         -5.73490        0.54070        5.43360
H         -4.09420       -0.12830        3.66680
