rmsd205.gzmat
 OpenBabel08211713383D

 36 38  0  0  0  0  0  0  0  0999 V2000
    0.0000    0.0000    0.0000 S   0  0  0  0  0  0  0  0  0  0  0  0
    1.7332    0.0000    0.0000 N   0  0  0  0  0  0  0  0  0  0  0  0
    2.1730    0.0000    1.2566 C   0  0  0  0  0  0  0  0  0  0  0  0
    3.5076    0.1607    1.6162 N   0  0  0  0  0  0  0  0  0  0  0  0
    3.9086   -0.4538    2.8939 C   0  0  0  0  0  0  0  0  0  0  0  0
    4.4766   -0.0641    0.5281 C   0  0  0  0  0  0  0  0  0  0  0  0
    1.1793   -0.0152    2.2806 N   0  0  0  0  0  0  0  0  0  0  0  0
   -0.0251   -0.0142    1.7652 C   0  0  0  0  0  0  0  0  0  0  0  0
   -1.2870   -0.0376    2.5722 C   0  0  0  0  0  0  0  0  0  0  0  0
   -2.1883   -0.7580    2.2137 O   0  0  0  0  0  0  0  0  0  0  0  0
   -1.3568    0.8402    3.7192 C   0  0  0  0  0  0  0  0  0  0  0  0
   -0.3469    1.6051    4.2738 C   0  0  0  0  0  0  0  0  0  0  0  0
   -0.8328    2.3018    5.3875 N   0  0  0  0  0  0  0  0  0  0  0  0
   -0.0923    3.1776    6.2245 C   0  0  0  0  0  0  0  0  0  0  0  0
   -0.6476    3.6910    7.1606 O   0  0  0  0  0  0  0  0  0  0  0  0
    1.3419    3.3948    5.8640 C   0  0  0  0  0  0  0  0  0  0  0  0
   -2.2037    1.9661    5.5521 C   0  0  0  0  0  0  0  0  0  0  0  0
   -3.1334    2.3862    6.5010 C   0  0  0  0  0  0  0  0  0  0  0  0
   -4.4188    1.8706    6.4005 C   0  0  0  0  0  0  0  0  0  0  0  0
   -4.7702    0.9629    5.3873 C   0  0  0  0  0  0  0  0  0  0  0  0
   -3.8453    0.5442    4.4405 C   0  0  0  0  0  0  0  0  0  0  0  0
   -2.5493    1.0480    4.5155 C   0  0  0  0  0  0  0  0  0  0  0  0
    3.1709   -0.2106    3.6829 H   0  0  0  0  0  0  0  0  0  0  0  0
    4.8802   -0.0298    3.1998 H   0  0  0  0  0  0  0  0  0  0  0  0
    3.9969   -1.5510    2.8398 H   0  0  0  0  0  0  0  0  0  0  0  0
    4.1809    0.5314   -0.3596 H   0  0  0  0  0  0  0  0  0  0  0  0
    4.5436   -1.1185    0.2142 H   0  0  0  0  0  0  0  0  0  0  0  0
    5.4709    0.2854    0.8511 H   0  0  0  0  0  0  0  0  0  0  0  0
    0.6861    1.6930    3.9604 H   0  0  0  0  0  0  0  0  0  0  0  0
    1.9256    2.4611    5.8810 H   0  0  0  0  0  0  0  0  0  0  0  0
    1.8161    4.0838    6.5848 H   0  0  0  0  0  0  0  0  0  0  0  0
    1.4575    3.8463    4.8660 H   0  0  0  0  0  0  0  0  0  0  0  0
   -2.8622    3.0881    7.2885 H   0  0  0  0  0  0  0  0  0  0  0  0
   -5.1751    2.1744    7.1240 H   0  0  0  0  0  0  0  0  0  0  0  0
   -5.7900    0.5825    5.3507 H   0  0  0  0  0  0  0  0  0  0  0  0
   -4.1102   -0.1640    3.6537 H   0  0  0  0  0  0  0  0  0  0  0  0
  1  8  1  0  0  0  0
  2  1  1  0  0  0  0
  2  3  2  0  0  0  0
  3  4  1  0  0  0  0
  3  7  2  0  0  0  0
  4  5  1  0  0  0  0
  5 24  1  0  0  0  0
  5 23  1  0  0  0  0
  6 28  1  0  0  0  0
  6  4  1  0  0  0  0
  8  7  2  0  0  0  0
  8  9  1  0  0  0  0
  9 11  1  0  0  0  0
 10  9  2  0  0  0  0
 11 12  2  0  0  0  0
 11 22  1  0  0  0  0
 12 13  1  0  0  0  0
 13 17  1  0  0  0  0
 13 14  1  0  0  0  0
 14 15  2  0  0  0  0
 16 30  1  0  0  0  0
 16 14  1  0  0  0  0
 16 31  1  0  0  0  0
 17 18  2  0  0  0  0
 18 33  1  0  0  0  0
 19 18  1  0  0  0  0
 19 34  1  0  0  0  0
 20 19  2  0  0  0  0
 21 22  2  0  0  0  0
 21 20  1  0  0  0  0
 22 17  1  0  0  0  0
 25  5  1  0  0  0  0
 26  6  1  0  0  0  0
 27  6  1  0  0  0  0
 29 12  1  0  0  0  0
 32 16  1  0  0  0  0
 35 20  1  0  0  0  0
 36 21  1  0  0  0  0
M  END
$$$$
