31
rmsd219.gzmat
S          0.00000        0.00000        0.00000
C          1.84490        0.00000        0.00000
O          2.48250        0.00000        1.00190
C          2.38260        0.05720       -1.41740
N          1.31000       -0.10570       -2.38860
C         -0.07930       -0.03450       -1.82220
H         -0.63950        0.83090       -2.21780
C         -0.42690       -1.41320       -2.52720
H         -1.15450       -1.30880       -3.35520
C          1.07930       -1.39950       -3.00240
O          1.75600       -2.05880       -3.71100
N         -0.75660       -2.51780       -1.67470
C          0.22950       -3.11050       -0.89840
O          1.37980       -2.72710       -1.00110
C         -0.17920       -4.20550        0.05480
C         -1.47010       -4.86460       -0.30820
C         -1.49510       -5.85070       -1.29680
C         -2.70170       -6.44980       -1.65020
C         -3.88350       -6.06900       -1.01620
C         -3.85790       -5.08640       -0.02800
C         -2.65380       -4.48280        0.32660
H          3.17160       -0.72760       -1.55770
H          2.87750        1.04690       -1.59190
H         -1.72540       -2.79860       -1.61420
H         -0.21390       -3.77180        1.08340
H          0.65050       -4.95300        0.10640
H         -0.57220       -6.14810       -1.79400
H         -2.72180       -7.21660       -2.42350
H         -4.82560       -6.53930       -1.29100
H         -4.77980       -4.79050        0.46970
H         -2.63880       -3.71690        1.10080
