rmsd209.gzmat
 OpenBabel08211713393D

 31 32  0  0  1  0  0  0  0  0999 V2000
    0.0000    0.0000    0.0000 S   0  0  0  0  0  0  0  0  0  0  0  0
    1.8448    0.0000    0.0000 C   0  0  0  0  0  0  0  0  0  0  0  0
    2.4825    0.0000    1.0021 O   0  0  0  0  0  0  0  0  0  0  0  0
    2.3833    0.0525   -1.4174 C   0  0  0  0  0  0  0  0  0  0  0  0
    1.3096   -0.1057   -2.3885 N   0  0  0  0  0  0  0  0  0  0  0  0
   -0.0797   -0.0337   -1.8220 C   0  0  0  0  0  0  0  0  0  0  0  0
   -0.6397    0.8333   -2.2153 H   0  0  0  0  0  0  0  0  0  0  0  0
   -0.4296   -1.4101   -2.5298 C   0  0  1  0  0  0  0  0  0  0  0  0
   -1.1586   -1.3016   -3.3565 H   0  0  0  0  0  0  0  0  0  0  0  0
    1.0768   -1.3972   -3.0060 C   0  0  0  0  0  0  0  0  0  0  0  0
    1.7537   -2.0545   -3.7167 O   0  0  0  0  0  0  0  0  0  0  0  0
   -0.7601   -2.5187   -1.6816 N   0  0  0  0  0  0  0  0  0  0  0  0
    0.2288   -3.1181   -0.9143 C   0  0  0  0  0  0  0  0  0  0  0  0
    1.3781   -2.7291   -1.0173 O   0  0  0  0  0  0  0  0  0  0  0  0
   -0.1582   -4.2396    0.0167 C   0  0  0  0  0  0  0  0  0  0  0  0
   -1.5410   -4.7623   -0.1972 C   0  0  0  0  0  0  0  0  0  0  0  0
   -1.7959   -5.6552   -1.2409 C   0  0  0  0  0  0  0  0  0  0  0  0
   -3.0883   -6.1287   -1.4509 C   0  0  0  0  0  0  0  0  0  0  0  0
   -4.1284   -5.7138   -0.6203 C   0  0  0  0  0  0  0  0  0  0  0  0
   -3.8733   -4.8264    0.4237 C   0  0  0  0  0  0  0  0  0  0  0  0
   -2.5818   -4.3500    0.6373 C   0  0  0  0  0  0  0  0  0  0  0  0
    3.1679   -0.7376   -1.5555 H   0  0  0  0  0  0  0  0  0  0  0  0
    2.8847    1.0383   -1.5943 H   0  0  0  0  0  0  0  0  0  0  0  0
   -1.7318   -2.7870   -1.6089 H   0  0  0  0  0  0  0  0  0  0  0  0
   -0.0131   -3.8799    1.0649 H   0  0  0  0  0  0  0  0  0  0  0  0
    0.5976   -5.0567   -0.0918 H   0  0  0  0  0  0  0  0  0  0  0  0
   -0.9845   -5.9816   -1.8910 H   0  0  0  0  0  0  0  0  0  0  0  0
   -3.2858   -6.8264   -2.2634 H   0  0  0  0  0  0  0  0  0  0  0  0
   -5.1380   -6.0851   -0.7849 H   0  0  0  0  0  0  0  0  0  0  0  0
   -4.6843   -4.5059    1.0754 H   0  0  0  0  0  0  0  0  0  0  0  0
   -2.3867   -3.6591    1.4567 H   0  0  0  0  0  0  0  0  0  0  0  0
  1  2  1  0  0  0  0
  2  3  2  0  0  0  0
  4  2  1  0  0  0  0
  5  6  1  0  0  0  0
  5  4  1  0  0  0  0
  7  6  1  0  0  0  0
  8  9  1  6  0  0  0
  8  6  1  0  0  0  0
  8 12  1  0  0  0  0
 10  8  1  0  0  0  0
 10  5  1  0  0  0  0
 11 10  2  0  0  0  0
 12 24  1  0  0  0  0
 12 13  1  0  0  0  0
 13 15  1  0  0  0  0
 14 13  2  0  0  0  0
 15 25  1  0  0  0  0
 16 15  1  0  0  0  0
 16 21  2  0  0  0  0
 17 16  1  0  0  0  0
 18 17  2  0  0  0  0
 18 19  1  0  0  0  0
 19 20  2  0  0  0  0
 20 21  1  0  0  0  0
 20 30  1  0  0  0  0
 21 31  1  0  0  0  0
 22  4  1  0  0  0  0
 23  4  1  0  0  0  0
 26 15  1  0  0  0  0
 27 17  1  0  0  0  0
 28 18  1  0  0  0  0
 29 19  1  0  0  0  0
M  RAD  2   1   2   6   2
M  END
$$$$
