rmsd232.gzmat
 OpenBabel08211713393D

 31 33  0  0  1  0  0  0  0  0999 V2000
    0.0000    0.0000    0.0000 S   0  0  0  0  0  0  0  0  0  0  0  0
    1.8453    0.0000    0.0000 C   0  0  0  0  0  0  0  0  0  0  0  0
    2.4828    0.0000    1.0022 O   0  0  0  0  0  0  0  0  0  0  0  0
    2.3831    0.0577   -1.4176 C   0  0  0  0  0  0  0  0  0  0  0  0
    1.3083   -0.0879   -2.3897 N   0  0  0  0  0  0  0  0  0  0  0  0
   -0.0805   -0.0147   -1.8229 C   0  0  1  0  0  0  0  0  0  0  0  0
   -0.6355    0.8596   -2.2066 H   0  0  0  0  0  0  0  0  0  0  0  0
   -0.4374   -1.3830   -2.5455 C   0  0  1  0  0  0  0  0  0  0  0  0
   -1.1645   -1.2652   -3.3722 H   0  0  0  0  0  0  0  0  0  0  0  0
    1.0691   -1.3713   -3.0215 C   0  0  0  0  0  0  0  0  0  0  0  0
    1.7422   -2.0229   -3.7407 O   0  0  0  0  0  0  0  0  0  0  0  0
   -0.7725   -2.4912   -1.6997 N   0  0  0  0  0  0  0  0  0  0  0  0
    0.2121   -3.0973   -0.9301 C   0  0  0  0  0  0  0  0  0  0  0  0
    1.3656   -2.7271   -1.0341 O   0  0  0  0  0  0  0  0  0  0  0  0
   -0.2267   -4.1784    0.0267 C   0  0  0  0  0  0  0  0  0  0  0  0
   -1.2367   -5.0984   -0.5795 C   0  0  0  0  0  0  0  0  0  0  0  0
   -0.8243   -6.0696   -1.4950 C   0  0  0  0  0  0  0  0  0  0  0  0
   -1.7625   -6.9170   -2.0784 C   0  0  0  0  0  0  0  0  0  0  0  0
   -3.1124   -6.7969   -1.7504 C   0  0  0  0  0  0  0  0  0  0  0  0
   -3.5224   -5.8331   -0.8310 C   0  0  0  0  0  0  0  0  0  0  0  0
   -2.5870   -4.9827   -0.2451 C   0  0  0  0  0  0  0  0  0  0  0  0
    3.1637   -0.7350   -1.5614 H   0  0  0  0  0  0  0  0  0  0  0  0
    2.8892    1.0428   -1.5870 H   0  0  0  0  0  0  0  0  0  0  0  0
   -1.7360   -2.7889   -1.6609 H   0  0  0  0  0  0  0  0  0  0  0  0
   -0.6034   -3.6978    0.9593 H   0  0  0  0  0  0  0  0  0  0  0  0
    0.6774   -4.7470    0.3579 H   0  0  0  0  0  0  0  0  0  0  0  0
    0.2302   -6.1615   -1.7562 H   0  0  0  0  0  0  0  0  0  0  0  0
   -1.4407   -7.6753   -2.7913 H   0  0  0  0  0  0  0  0  0  0  0  0
   -3.8449   -7.4574   -2.2103 H   0  0  0  0  0  0  0  0  0  0  0  0
   -4.5754   -5.7470   -0.5681 H   0  0  0  0  0  0  0  0  0  0  0  0
   -2.9128   -4.2373    0.4776 H   0  0  0  0  0  0  0  0  0  0  0  0
  1  2  1  0  0  0  0
  2  3  2  0  0  0  0
  4  2  1  0  0  0  0
  5  6  1  0  0  0  0
  5  4  1  0  0  0  0
  6  8  1  0  0  0  0
  6  1  1  0  0  0  0
  6  7  1  6  0  0  0
  8  9  1  6  0  0  0
  8 12  1  0  0  0  0
 10  8  1  0  0  0  0
 10  5  1  0  0  0  0
 11 10  2  0  0  0  0
 12 24  1  0  0  0  0
 12 13  1  0  0  0  0
 13 15  1  0  0  0  0
 14 13  2  0  0  0  0
 15 26  1  0  0  0  0
 15 25  1  0  0  0  0
 16 21  1  0  0  0  0
 16 15  1  0  0  0  0
 17 16  2  0  0  0  0
 18 19  2  0  0  0  0
 18 17  1  0  0  0  0
 19 20  1  0  0  0  0
 20 30  1  0  0  0  0
 20 21  2  0  0  0  0
 21 31  1  0  0  0  0
 22  4  1  0  0  0  0
 23  4  1  0  0  0  0
 27 17  1  0  0  0  0
 28 18  1  0  0  0  0
 29 19  1  0  0  0  0
M  END
$$$$
