31
rmsd209.gzmat
S          0.00000        0.00000        0.00000
C          1.84480        0.00000        0.00000
O          2.48250        0.00000        1.00210
C          2.38330        0.05250       -1.41740
N          1.30960       -0.10570       -2.38850
C         -0.07970       -0.03370       -1.82200
H         -0.63970        0.83330       -2.21530
C         -0.42960       -1.41010       -2.52980
H         -1.15860       -1.30160       -3.35650
C          1.07680       -1.39720       -3.00600
O          1.75370       -2.05450       -3.71670
N         -0.76010       -2.51870       -1.68160
C          0.22880       -3.11810       -0.91430
O          1.37810       -2.72910       -1.01730
C         -0.15820       -4.23960        0.01670
C         -1.54100       -4.76230       -0.19720
C         -1.79590       -5.65520       -1.24090
C         -3.08830       -6.12870       -1.45090
C         -4.12840       -5.71380       -0.62030
C         -3.87330       -4.82640        0.42370
C         -2.58180       -4.35000        0.63730
H          3.16790       -0.73760       -1.55550
H          2.88470        1.03830       -1.59430
H         -1.73180       -2.78700       -1.60890
H         -0.01310       -3.87990        1.06490
H          0.59760       -5.05670       -0.09180
H         -0.98450       -5.98160       -1.89100
H         -3.28580       -6.82640       -2.26340
H         -5.13800       -6.08510       -0.78490
H         -4.68430       -4.50590        1.07540
H         -2.38670       -3.65910        1.45670
