
     RDKit          3D

 31 33  0  0  0  0  0  0  0  0999 V2000
    0.7505   -1.2779    0.1056 S   0  0  0  0  0  0  0  0  0  0  0  0
    2.4501   -0.8611   -0.4235 C   0  0  0  0  0  0  0  0  0  0  0  0
    3.4336   -1.1792    0.1729 O   0  0  0  0  0  0  0  0  0  0  0  0
    2.4206   -0.0361   -1.7295 C   0  0  0  0  0  0  0  0  0  0  0  0
    1.0758   -0.0605   -2.2315 N   0  0  0  0  0  0  0  0  0  0  0  0
    0.0015   -0.2971   -1.2608 C   0  0  1  0  0  0  0  0  0  0  0  0
   -0.4950    0.5976   -0.8603 H   0  0  0  0  0  0  0  0  0  0  0  0
   -0.7523   -1.1272   -2.3564 C   0  0  1  0  0  0  0  0  0  0  0  0
   -1.5781   -0.5583   -2.8092 H   0  0  0  0  0  0  0  0  0  0  0  0
    0.5862   -1.0221   -3.1300 C   0  0  0  0  0  0  0  0  0  0  0  0
    1.1107   -1.5813   -4.0486 O   0  0  0  0  0  0  0  0  0  0  0  0
   -1.2251   -2.4295   -2.0536 N   0  0  0  0  0  0  0  0  0  0  0  0
   -2.5632   -2.7366   -2.0476 C   0  0  0  0  0  0  0  0  0  0  0  0
   -3.4238   -1.9418   -2.3713 O   0  0  0  0  0  0  0  0  0  0  0  0
   -2.8881   -4.1761   -1.6308 C   0  0  0  0  0  0  0  0  0  0  0  0
   -1.8530   -4.8209   -0.7437 C   0  0  0  0  0  0  0  0  0  0  0  0
   -0.8845   -5.6875   -1.2719 C   0  0  0  0  0  0  0  0  0  0  0  0
    0.1288   -6.2076   -0.4606 C   0  0  0  0  0  0  0  0  0  0  0  0
    0.1865   -5.8668    0.8925 C   0  0  0  0  0  0  0  0  0  0  0  0
   -0.7761   -5.0070    1.4311 C   0  0  0  0  0  0  0  0  0  0  0  0
   -1.7857   -4.4892    0.6190 C   0  0  0  0  0  0  0  0  0  0  0  0
    3.1075   -0.4940   -2.4572 H   0  0  0  0  0  0  0  0  0  0  0  0
    2.7802    0.9810   -1.4987 H   0  0  0  0  0  0  0  0  0  0  0  0
   -0.5670   -3.1153   -1.6984 H   0  0  0  0  0  0  0  0  0  0  0  0
   -3.0192   -4.7519   -2.5619 H   0  0  0  0  0  0  0  0  0  0  0  0
   -3.8740   -4.1307   -1.1467 H   0  0  0  0  0  0  0  0  0  0  0  0
   -0.9231   -5.9545   -2.3317 H   0  0  0  0  0  0  0  0  0  0  0  0
    0.8748   -6.8812   -0.8888 H   0  0  0  0  0  0  0  0  0  0  0  0
    0.9795   -6.2692    1.5269 H   0  0  0  0  0  0  0  0  0  0  0  0
   -0.7368   -4.7356    2.4886 H   0  0  0  0  0  0  0  0  0  0  0  0
   -2.5296   -3.8090    1.0427 H   0  0  0  0  0  0  0  0  0  0  0  0
  1  2  1  0
  1  6  1  0
  2  3  2  0
  2  4  1  0
  4  5  1  0
  4 22  1  0
  4 23  1  0
  5  6  1  0
  5 10  1  0
  6  7  1  1
  6  8  1  0
  8  9  1  6
  8 10  1  0
  8 12  1  0
 10 11  2  0
 12 13  1  0
 12 24  1  0
 13 14  2  0
 13 15  1  0
 15 16  1  0
 15 25  1  0
 15 26  1  0
 16 17  2  0
 16 21  1  0
 17 18  1  0
 17 27  1  0
 18 19  2  0
 18 28  1  0
 19 20  1  0
 19 29  1  0
 20 21  2  0
 20 30  1  0
 21 31  1  0
M  END

