rmsd149.gzmat
 OpenBabel08211713393D

 31 33  0  0  1  0  0  0  0  0999 V2000
    0.0000    0.0000    0.0000 S   0  0  0  0  0  0  0  0  0  0  0  0
    1.8456    0.0000    0.0000 C   0  0  0  0  0  0  0  0  0  0  0  0
    2.4834    0.0000    1.0020 O   0  0  0  0  0  0  0  0  0  0  0  0
    2.3817    0.0589   -1.4177 C   0  0  0  0  0  0  0  0  0  0  0  0
    1.3079   -0.0995   -2.3885 N   0  0  0  0  0  0  0  0  0  0  0  0
   -0.0815   -0.0311   -1.8218 C   0  0  1  0  0  0  0  0  0  0  0  0
   -0.6418    0.8365   -2.2138 H   0  0  0  0  0  0  0  0  0  0  0  0
   -0.4294   -1.4057   -2.5352 C   0  0  1  0  0  0  0  0  0  0  0  0
   -1.1557   -1.2940   -3.3642 H   0  0  0  0  0  0  0  0  0  0  0  0
    1.0773   -1.3904   -3.0083 C   0  0  0  0  0  0  0  0  0  0  0  0
    1.7569   -2.0462   -3.7178 O   0  0  0  0  0  0  0  0  0  0  0  0
   -0.7610   -2.5231   -1.6993 N   0  0  0  0  0  0  0  0  0  0  0  0
    0.2199   -3.1106   -0.9103 C   0  0  0  0  0  0  0  0  0  0  0  0
    1.3713   -2.7289   -1.0096 O   0  0  0  0  0  0  0  0  0  0  0  0
   -0.1814   -4.2461   -0.0015 C   0  0  0  0  0  0  0  0  0  0  0  0
   -1.6311   -4.2419    0.3617 C   0  0  0  0  0  0  0  0  0  0  0  0
   -2.1047   -3.3570    1.3333 C   0  0  0  0  0  0  0  0  0  0  0  0
   -3.4604   -3.3344    1.6511 C   0  0  0  0  0  0  0  0  0  0  0  0
   -4.3443   -4.1973    1.0044 C   0  0  0  0  0  0  0  0  0  0  0  0
   -3.8704   -5.0859    0.0407 C   0  0  0  0  0  0  0  0  0  0  0  0
   -2.5152   -5.1109   -0.2805 C   0  0  0  0  0  0  0  0  0  0  0  0
    3.1691   -0.7267   -1.5614 H   0  0  0  0  0  0  0  0  0  0  0  0
    2.8803    1.0471   -1.5903 H   0  0  0  0  0  0  0  0  0  0  0  0
   -1.7373   -2.7677   -1.6029 H   0  0  0  0  0  0  0  0  0  0  0  0
    0.4561   -4.1987    0.9169 H   0  0  0  0  0  0  0  0  0  0  0  0
    0.1202   -5.2039   -0.4883 H   0  0  0  0  0  0  0  0  0  0  0  0
   -1.4155   -2.6835    1.8433 H   0  0  0  0  0  0  0  0  0  0  0  0
   -3.8304   -2.6418    2.4064 H   0  0  0  0  0  0  0  0  0  0  0  0
   -5.4028   -4.1815    1.2557 H   0  0  0  0  0  0  0  0  0  0  0  0
   -4.5596   -5.7630   -0.4608 H   0  0  0  0  0  0  0  0  0  0  0  0
   -2.1489   -5.8130   -1.0283 H   0  0  0  0  0  0  0  0  0  0  0  0
  1  2  1  0  0  0  0
  2  3  2  0  0  0  0
  4  2  1  0  0  0  0
  5  6  1  0  0  0  0
  5  4  1  0  0  0  0
  6  8  1  0  0  0  0
  6  1  1  0  0  0  0
  6  7  1  6  0  0  0
  8  9  1  6  0  0  0
  8 12  1  0  0  0  0
 10  8  1  0  0  0  0
 10  5  1  0  0  0  0
 11 10  2  0  0  0  0
 12 24  1  0  0  0  0
 12 13  1  0  0  0  0
 13 15  1  0  0  0  0
 14 13  2  0  0  0  0
 15 16  1  0  0  0  0
 15 25  1  0  0  0  0
 16 17  2  0  0  0  0
 17 18  1  0  0  0  0
 17 27  1  0  0  0  0
 18 28  1  0  0  0  0
 19 29  1  0  0  0  0
 19 18  2  0  0  0  0
 20 19  1  0  0  0  0
 21 20  2  0  0  0  0
 21 16  1  0  0  0  0
 22  4  1  0  0  0  0
 23  4  1  0  0  0  0
 26 15  1  0  0  0  0
 30 20  1  0  0  0  0
 31 21  1  0  0  0  0
M  END
$$$$
