rmsd201.gzmat
 OpenBabel08211713393D

 31 33  0  0  1  0  0  0  0  0999 V2000
    0.0000    0.0000    0.0000 S   0  0  0  0  0  0  0  0  0  0  0  0
    1.8457    0.0000    0.0000 C   0  0  0  0  0  0  0  0  0  0  0  0
    2.4809    0.0000    1.0036 O   0  0  0  0  0  0  0  0  0  0  0  0
    2.3851    0.0564   -1.4160 C   0  0  0  0  0  0  0  0  0  0  0  0
    1.3095   -0.0709   -2.3909 N   0  0  0  0  0  0  0  0  0  0  0  0
   -0.0802   -0.0194   -1.8200 C   0  0  1  0  0  0  0  0  0  0  0  0
   -0.6463    0.8484   -2.2041 H   0  0  0  0  0  0  0  0  0  0  0  0
   -0.4218   -1.3880   -2.5470 C   0  0  1  0  0  0  0  0  0  0  0  0
   -1.1615   -1.2770   -3.3633 H   0  0  0  0  0  0  0  0  0  0  0  0
    1.0793   -1.3488   -3.0375 C   0  0  0  0  0  0  0  0  0  0  0  0
    1.7538   -1.9876   -3.7669 O   0  0  0  0  0  0  0  0  0  0  0  0
   -0.7219   -2.5242   -1.7230 N   0  0  0  0  0  0  0  0  0  0  0  0
    0.2819   -3.1025   -0.9584 C   0  0  0  0  0  0  0  0  0  0  0  0
    1.4195   -2.6777   -1.0524 O   0  0  0  0  0  0  0  0  0  0  0  0
   -0.0631   -4.2773   -0.0787 C   0  0  0  0  0  0  0  0  0  0  0  0
   -1.5216   -4.4252    0.2076 C   0  0  0  0  0  0  0  0  0  0  0  0
   -2.2484   -5.4708   -0.3635 C   0  0  0  0  0  0  0  0  0  0  0  0
   -3.6119   -5.5922   -0.1033 C   0  0  0  0  0  0  0  0  0  0  0  0
   -4.2514   -4.6715    0.7241 C   0  0  0  0  0  0  0  0  0  0  0  0
   -3.5238   -3.6310    1.3003 C   0  0  0  0  0  0  0  0  0  0  0  0
   -2.1603   -3.5095    1.0476 C   0  0  0  0  0  0  0  0  0  0  0  0
    3.1542   -0.7484   -1.5602 H   0  0  0  0  0  0  0  0  0  0  0  0
    2.9085    1.0318   -1.5837 H   0  0  0  0  0  0  0  0  0  0  0  0
   -1.6883   -2.8076   -1.6397 H   0  0  0  0  0  0  0  0  0  0  0  0
    0.5139   -4.1775    0.8756 H   0  0  0  0  0  0  0  0  0  0  0  0
    0.3619   -5.1948   -0.5519 H   0  0  0  0  0  0  0  0  0  0  0  0
   -1.7552   -6.1947   -1.0099 H   0  0  0  0  0  0  0  0  0  0  0  0
   -4.1780   -6.4095   -0.5467 H   0  0  0  0  0  0  0  0  0  0  0  0
   -5.3164   -4.7680    0.9243 H   0  0  0  0  0  0  0  0  0  0  0  0
   -4.0212   -2.9138    1.9515 H   0  0  0  0  0  0  0  0  0  0  0  0
   -1.5927   -2.6994    1.5060 H   0  0  0  0  0  0  0  0  0  0  0  0
  1  2  1  0  0  0  0
  2  3  2  0  0  0  0
  4  2  1  0  0  0  0
  5  6  1  0  0  0  0
  5  4  1  0  0  0  0
  6  8  1  0  0  0  0
  6  1  1  0  0  0  0
  6  7  1  6  0  0  0
  8  9  1  6  0  0  0
  8 12  1  0  0  0  0
 10  8  1  0  0  0  0
 10  5  1  0  0  0  0
 11 10  2  0  0  0  0
 12 24  1  0  0  0  0
 12 13  1  0  0  0  0
 13 15  1  0  0  0  0
 14 13  2  0  0  0  0
 15 16  1  0  0  0  0
 15 25  1  0  0  0  0
 16 21  2  0  0  0  0
 17 18  2  0  0  0  0
 17 16  1  0  0  0  0
 18 19  1  0  0  0  0
 19 29  1  0  0  0  0
 19 20  2  0  0  0  0
 20 30  1  0  0  0  0
 21 20  1  0  0  0  0
 21 31  1  0  0  0  0
 22  4  1  0  0  0  0
 23  4  1  0  0  0  0
 26 15  1  0  0  0  0
 27 17  1  0  0  0  0
 28 18  1  0  0  0  0
M  END
$$$$
