rmsd36.gzmat
 OpenBabel08211713393D

 31 33  0  0  1  0  0  0  0  0999 V2000
    0.0000    0.0000    0.0000 S   0  0  0  0  0  0  0  0  0  0  0  0
    1.8378    0.0000    0.0000 C   0  0  0  0  0  0  0  0  0  0  0  0
    2.4855    0.0000    0.9962 O   0  0  0  0  0  0  0  0  0  0  0  0
    2.3768    0.0122   -1.4218 C   0  0  0  0  0  0  0  0  0  0  0  0
    1.2949   -0.2001   -2.3653 N   0  0  0  0  0  0  0  0  0  0  0  0
   -0.0849    0.0324   -1.8311 C   0  0  1  0  0  0  0  0  0  0  0  0
   -0.5434    0.9637   -2.2047 H   0  0  0  0  0  0  0  0  0  0  0  0
   -0.5633   -1.2865   -2.5702 C   0  0  1  0  0  0  0  0  0  0  0  0
   -1.1794   -1.0682   -3.4775 H   0  0  0  0  0  0  0  0  0  0  0  0
    0.9617   -1.5021   -2.8952 C   0  0  0  0  0  0  0  0  0  0  0  0
    1.6461   -2.3364   -3.3786 O   0  0  0  0  0  0  0  0  0  0  0  0
   -1.1373   -2.3136   -1.7643 N   0  0  0  0  0  0  0  0  0  0  0  0
   -2.3972   -2.8226   -2.0677 C   0  0  0  0  0  0  0  0  0  0  0  0
   -3.0271   -2.3836   -3.0034 O   0  0  0  0  0  0  0  0  0  0  0  0
   -2.9220   -3.9013   -1.1450 C   0  0  0  0  0  0  0  0  0  0  0  0
   -1.8390   -4.7789   -0.6036 C   0  0  0  0  0  0  0  0  0  0  0  0
   -1.3194   -5.8082   -1.3906 C   0  0  0  0  0  0  0  0  0  0  0  0
   -0.2832   -6.6007   -0.9022 C   0  0  0  0  0  0  0  0  0  0  0  0
    0.2337   -6.3701    0.3716 C   0  0  0  0  0  0  0  0  0  0  0  0
   -0.2921   -5.3490    1.1610 C   0  0  0  0  0  0  0  0  0  0  0  0
   -1.3282   -4.5542    0.6765 C   0  0  0  0  0  0  0  0  0  0  0  0
    3.1842   -0.7493   -1.5535 H   0  0  0  0  0  0  0  0  0  0  0  0
    2.8545    1.0052   -1.6307 H   0  0  0  0  0  0  0  0  0  0  0  0
   -0.5897   -2.6918   -1.0006 H   0  0  0  0  0  0  0  0  0  0  0  0
   -3.6795   -4.5025   -1.7030 H   0  0  0  0  0  0  0  0  0  0  0  0
   -3.5044   -3.4154   -0.3289 H   0  0  0  0  0  0  0  0  0  0  0  0
   -1.7176   -5.9885   -2.3881 H   0  0  0  0  0  0  0  0  0  0  0  0
    0.1247   -7.4002   -1.5188 H   0  0  0  0  0  0  0  0  0  0  0  0
    1.0469   -6.9870    0.7492 H   0  0  0  0  0  0  0  0  0  0  0  0
    0.1088   -5.1696    2.1574 H   0  0  0  0  0  0  0  0  0  0  0  0
   -1.7361   -3.7602    1.2996 H   0  0  0  0  0  0  0  0  0  0  0  0
  1  2  1  0  0  0  0
  2  3  2  0  0  0  0
  4  2  1  0  0  0  0
  5  6  1  0  0  0  0
  5  4  1  0  0  0  0
  6  8  1  0  0  0  0
  6  1  1  0  0  0  0
  6  7  1  6  0  0  0
  8  9  1  6  0  0  0
  8 12  1  0  0  0  0
 10  8  1  0  0  0  0
 10  5  1  0  0  0  0
 11 10  2  0  0  0  0
 12 24  1  0  0  0  0
 13 12  1  0  0  0  0
 13 15  1  0  0  0  0
 14 13  2  0  0  0  0
 15 16  1  0  0  0  0
 15 26  1  0  0  0  0
 16 21  2  0  0  0  0
 17 18  2  0  0  0  0
 17 16  1  0  0  0  0
 18 19  1  0  0  0  0
 19 29  1  0  0  0  0
 19 20  2  0  0  0  0
 20 30  1  0  0  0  0
 21 20  1  0  0  0  0
 21 31  1  0  0  0  0
 22  4  1  0  0  0  0
 23  4  1  0  0  0  0
 25 15  1  0  0  0  0
 27 17  1  0  0  0  0
 28 18  1  0  0  0  0
M  END
$$$$
