rmsd231.gzmat
 OpenBabel08211713393D

 31 33  0  0  1  0  0  0  0  0999 V2000
    0.0000    0.0000    0.0000 S   0  0  0  0  0  0  0  0  0  0  0  0
    1.8446    0.0000    0.0000 C   0  0  0  0  0  0  0  0  0  0  0  0
    2.4832    0.0000    1.0016 O   0  0  0  0  0  0  0  0  0  0  0  0
    2.3829    0.0589   -1.4175 C   0  0  0  0  0  0  0  0  0  0  0  0
    1.3090   -0.0941   -2.3885 N   0  0  0  0  0  0  0  0  0  0  0  0
   -0.0800   -0.0131   -1.8227 C   0  0  1  0  0  0  0  0  0  0  0  0
   -0.6307    0.8631   -2.2078 H   0  0  0  0  0  0  0  0  0  0  0  0
   -0.4422   -1.3800   -2.5419 C   0  0  1  0  0  0  0  0  0  0  0  0
   -1.1617   -1.2585   -3.3750 H   0  0  0  0  0  0  0  0  0  0  0  0
    1.0679   -1.3825   -3.0078 C   0  0  0  0  0  0  0  0  0  0  0  0
    1.7425   -2.0487   -3.7124 O   0  0  0  0  0  0  0  0  0  0  0  0
   -0.7924   -2.4873   -1.7008 N   0  0  0  0  0  0  0  0  0  0  0  0
    0.1850   -3.1159   -0.9409 C   0  0  0  0  0  0  0  0  0  0  0  0
    1.3389   -2.7401   -1.0220 O   0  0  0  0  0  0  0  0  0  0  0  0
   -0.2528   -4.2418   -0.0379 C   0  0  0  0  0  0  0  0  0  0  0  0
   -1.3502   -5.0745   -0.6186 C   0  0  0  0  0  0  0  0  0  0  0  0
   -1.1452   -5.7488   -1.8256 C   0  0  0  0  0  0  0  0  0  0  0  0
   -2.1654   -6.5213   -2.3728 C   0  0  0  0  0  0  0  0  0  0  0  0
   -3.3912   -6.6279   -1.7164 C   0  0  0  0  0  0  0  0  0  0  0  0
   -3.5917   -5.9654   -0.5076 C   0  0  0  0  0  0  0  0  0  0  0  0
   -2.5734   -5.1892    0.0428 C   0  0  0  0  0  0  0  0  0  0  0  0
    3.1680   -0.7289   -1.5615 H   0  0  0  0  0  0  0  0  0  0  0  0
    2.8840    1.0461   -1.5884 H   0  0  0  0  0  0  0  0  0  0  0  0
   -1.7616   -2.7652   -1.6560 H   0  0  0  0  0  0  0  0  0  0  0  0
   -0.5317   -3.8122    0.9523 H   0  0  0  0  0  0  0  0  0  0  0  0
    0.6389   -4.8815    0.1829 H   0  0  0  0  0  0  0  0  0  0  0  0
   -0.1872   -5.6685   -2.3400 H   0  0  0  0  0  0  0  0  0  0  0  0
   -2.0055   -7.0458   -3.3141 H   0  0  0  0  0  0  0  0  0  0  0  0
   -4.1879   -7.2313   -2.1465 H   0  0  0  0  0  0  0  0  0  0  0  0
   -4.5442   -6.0567    0.0112 H   0  0  0  0  0  0  0  0  0  0  0  0
   -2.7365   -4.6806    0.9909 H   0  0  0  0  0  0  0  0  0  0  0  0
  1  2  1  0  0  0  0
  2  3  2  0  0  0  0
  4  2  1  0  0  0  0
  5  6  1  0  0  0  0
  5  4  1  0  0  0  0
  6  8  1  0  0  0  0
  6  1  1  0  0  0  0
  6  7  1  6  0  0  0
  8  9  1  6  0  0  0
  8 12  1  0  0  0  0
 10  8  1  0  0  0  0
 10  5  1  0  0  0  0
 11 10  2  0  0  0  0
 12 24  1  0  0  0  0
 12 13  1  0  0  0  0
 13 15  1  0  0  0  0
 14 13  2  0  0  0  0
 15 26  1  0  0  0  0
 15 25  1  0  0  0  0
 16 15  1  0  0  0  0
 16 21  2  0  0  0  0
 17 16  1  0  0  0  0
 18 17  2  0  0  0  0
 18 19  1  0  0  0  0
 19 20  2  0  0  0  0
 20 30  1  0  0  0  0
 20 21  1  0  0  0  0
 21 31  1  0  0  0  0
 22  4  1  0  0  0  0
 23  4  1  0  0  0  0
 27 17  1  0  0  0  0
 28 18  1  0  0  0  0
 29 19  1  0  0  0  0
M  END
$$$$
