31
rmsd36.gzmat
S          0.00000        0.00000        0.00000
C          1.83780        0.00000        0.00000
O          2.48550        0.00000        0.99620
C          2.37680        0.01220       -1.42180
N          1.29490       -0.20010       -2.36530
C         -0.08490        0.03240       -1.83110
H         -0.54340        0.96370       -2.20470
C         -0.56330       -1.28650       -2.57020
H         -1.17940       -1.06820       -3.47750
C          0.96170       -1.50210       -2.89520
O          1.64610       -2.33640       -3.37860
N         -1.13730       -2.31360       -1.76430
C         -2.39720       -2.82260       -2.06770
O         -3.02710       -2.38360       -3.00340
C         -2.92200       -3.90130       -1.14500
C         -1.83900       -4.77890       -0.60360
C         -1.31940       -5.80820       -1.39060
C         -0.28320       -6.60070       -0.90220
C          0.23370       -6.37010        0.37160
C         -0.29210       -5.34900        1.16100
C         -1.32820       -4.55420        0.67650
H          3.18420       -0.74930       -1.55350
H          2.85450        1.00520       -1.63070
H         -0.58970       -2.69180       -1.00060
H         -3.67950       -4.50250       -1.70300
H         -3.50440       -3.41540       -0.32890
H         -1.71760       -5.98850       -2.38810
H          0.12470       -7.40020       -1.51880
H          1.04690       -6.98700        0.74920
H          0.10880       -5.16960        2.15740
H         -1.73610       -3.76020        1.29960
