31

O          0.14580        0.96240        0.02840
C          1.53640        0.75040        0.08340
C          1.96520        0.16470        1.41520
H          1.64000        0.84740        2.22740
O          1.29240       -1.08940        1.58650
C          2.13320       -2.07100        2.13850
H          1.71240       -2.40970        3.09910
C          3.51030       -1.42150        2.35670
C          3.47310       -0.10800        1.55420
H          3.91190       -0.27400        0.56410
O          4.18490        0.96330        2.12250
N          2.11260       -3.27880        1.30120
C          2.63620       -3.22190        0.00930
O          3.18670       -2.23860       -0.44700
N          2.48080       -4.38920       -0.71120
H          2.86370       -4.36830       -1.65330
C          1.85650       -5.58520       -0.32240
O          1.79850       -6.53310       -1.08070
C          1.30720       -5.54750        1.03700
C          0.60690       -6.77300        1.53870
C          1.45680       -4.40990        1.75540
H         -0.26700        0.10810        0.21820
H          2.03170        1.72590       -0.04740
H          1.89150        0.07420       -0.71800
H          3.62360       -1.17930        3.42590
H          4.34020       -2.07920        2.07100
H          3.77590        1.19180        2.96880
H          0.23220       -6.63240        2.56280
H          1.28520       -7.64130        1.52530
H         -0.24010       -7.03230        0.88360
H          1.05840       -4.32570        2.76860
