rmsd2.gzmat
 OpenBabel08211713373D

 31 32  0  0  1  0  0  0  0  0999 V2000
    0.0000    0.0000    0.0000 O   0  0  0  0  0  0  0  0  0  0  0  0
    1.4112    0.0000    0.0000 C   0  0  0  0  0  0  0  0  0  0  0  0
    1.9204    0.0000    1.4420 C   0  0  1  0  0  0  0  0  0  0  0  0
    1.1578    0.4464    2.1222 H   0  0  0  0  0  0  0  0  0  0  0  0
    2.0193   -1.3561    1.8848 O   0  0  0  0  0  0  0  0  0  0  0  0
    3.3512   -1.7358    2.1225 C   0  0  2  0  0  0  0  0  0  0  0  0
    3.3090   -2.3112    3.0820 H   0  0  0  0  0  0  0  0  0  0  0  0
    4.2037   -0.4655    2.2031 C   0  0  0  0  0  0  0  0  0  0  0  0
    3.3085    0.6510    1.6281 C   0  0  2  0  0  0  0  0  0  0  0  0
    3.7226    1.1056    0.7000 H   0  0  0  0  0  0  0  0  0  0  0  0
    3.2383    1.7469    2.4979 O   0  0  0  0  0  0  0  0  0  0  0  0
    3.7706   -2.6655    1.0460 N   0  0  0  0  0  0  0  0  0  0  0  0
    4.1279   -2.1720   -0.2256 C   0  0  0  0  0  0  0  0  0  0  0  0
    4.1914   -0.9843   -0.4719 O   0  0  0  0  0  0  0  0  0  0  0  0
    4.4481   -3.1172   -1.2025 N   0  0  0  0  0  0  0  0  0  0  0  0
    4.7488   -2.7612   -2.1151 H   0  0  0  0  0  0  0  0  0  0  0  0
    4.3767   -4.5235   -1.0158 C   0  0  0  0  0  0  0  0  0  0  0  0
    4.7057   -5.2219   -1.9438 O   0  0  0  0  0  0  0  0  0  0  0  0
    3.8998   -4.9482    0.2984 C   0  0  0  0  0  0  0  0  0  0  0  0
    3.7801   -6.4110    0.5084 C   0  0  0  0  0  0  0  0  0  0  0  0
    3.5989   -4.0342    1.2517 C   0  0  0  0  0  0  0  0  0  0  0  0
   -0.3431   -0.8277    0.3939 H   0  0  0  0  0  0  0  0  0  0  0  0
    1.6613    0.9374   -0.5341 H   0  0  0  0  0  0  0  0  0  0  0  0
    1.7844   -0.8644   -0.5771 H   0  0  0  0  0  0  0  0  0  0  0  0
    4.4966   -0.2395    3.2435 H   0  0  0  0  0  0  0  0  0  0  0  0
    5.1548   -0.5411    1.6441 H   0  0  0  0  0  0  0  0  0  0  0  0
    2.8549    1.5081    3.3649 H   0  0  0  0  0  0  0  0  0  0  0  0
    3.3309   -6.6763    1.4731 H   0  0  0  0  0  0  0  0  0  0  0  0
    4.7679   -6.9008    0.4563 H   0  0  0  0  0  0  0  0  0  0  0  0
    3.1674   -6.8810   -0.2811 H   0  0  0  0  0  0  0  0  0  0  0  0
    3.2250   -4.3264    2.2415 H   0  0  0  0  0  0  0  0  0  0  0  0
  1  2  1  0  0  0  0
  1 22  1  0  0  0  0
  2  3  1  0  0  0  0
  3  9  1  0  0  0  0
  3  5  1  0  0  0  0
  3  4  1  1  0  0  0
  5  6  1  0  0  0  0
  6  8  1  0  0  0  0
  6  7  1  1  0  0  0
  8 25  1  0  0  0  0
  9 10  1  6  0  0  0
  9  8  1  0  0  0  0
  9 11  1  0  0  0  0
 11 27  1  0  0  0  0
 12 21  1  0  0  0  0
 12  6  1  0  0  0  0
 13 12  1  0  0  0  0
 14 13  2  0  0  0  0
 15 17  1  0  0  0  0
 15 13  1  0  0  0  0
 16 15  1  0  0  0  0
 17 19  1  0  0  0  0
 18 17  2  0  0  0  0
 19 20  1  0  0  0  0
 19 21  2  0  0  0  0
 20 28  1  0  0  0  0
 21 31  1  0  0  0  0
 23  2  1  0  0  0  0
 24  2  1  0  0  0  0
 26  8  1  0  0  0  0
 29 20  1  0  0  0  0
 30 20  1  0  0  0  0
M  END
$$$$
