
     RDKit          3D

 31 32  0  0  0  0  0  0  0  0999 V2000
    0.1207    0.2191   -0.1376 O   0  0  0  0  0  0  0  0  0  0  0  0
    1.4953   -0.0682    0.0087 C   0  0  0  0  0  0  0  0  0  0  0  0
    1.9999   -0.0333    1.4495 C   0  0  1  0  0  0  0  0  0  0  0  0
    3.0402   -0.3950    1.4576 H   0  0  0  0  0  0  0  0  0  0  0  0
    2.0204    1.3041    1.9938 O   0  0  0  0  0  0  0  0  0  0  0  0
    0.8794    1.5501    2.7760 C   0  0  2  0  0  0  0  0  0  0  0  0
    1.1907    1.9488    3.7547 H   0  0  0  0  0  0  0  0  0  0  0  0
    0.1258    0.2114    2.9045 C   0  0  0  0  0  0  0  0  0  0  0  0
    1.1649   -0.8258    2.4657 C   0  0  2  0  0  0  0  0  0  0  0  0
    0.6956   -1.7083    2.0086 H   0  0  0  0  0  0  0  0  0  0  0  0
    1.9566   -1.3110    3.5310 O   0  0  0  0  0  0  0  0  0  0  0  0
    0.0598    2.6118    2.1348 N   0  0  0  0  0  0  0  0  0  0  0  0
   -1.0903    2.9923    2.8186 C   0  0  0  0  0  0  0  0  0  0  0  0
   -1.3838    2.5408    3.9084 O   0  0  0  0  0  0  0  0  0  0  0  0
   -1.8624    3.9175    2.1403 N   0  0  0  0  0  0  0  0  0  0  0  0
   -2.7158    4.2035    2.6138 H   0  0  0  0  0  0  0  0  0  0  0  0
   -1.6172    4.5085    0.8908 C   0  0  0  0  0  0  0  0  0  0  0  0
   -2.4008    5.3057    0.4123 O   0  0  0  0  0  0  0  0  0  0  0  0
   -0.3539    4.0860    0.2741 C   0  0  0  0  0  0  0  0  0  0  0  0
    0.0267    4.7159   -1.0310 C   0  0  0  0  0  0  0  0  0  0  0  0
    0.4144    3.1803    0.9319 C   0  0  0  0  0  0  0  0  0  0  0  0
   -0.0015    1.1729   -0.2320 H   0  0  0  0  0  0  0  0  0  0  0  0
    2.1246    0.6067   -0.6012 H   0  0  0  0  0  0  0  0  0  0  0  0
    1.6572   -1.0901   -0.3747 H   0  0  0  0  0  0  0  0  0  0  0  0
   -0.2405    0.0323    3.9215 H   0  0  0  0  0  0  0  0  0  0  0  0
   -0.7219    0.2029    2.2095 H   0  0  0  0  0  0  0  0  0  0  0  0
    2.3927   -0.5589    3.9550 H   0  0  0  0  0  0  0  0  0  0  0  0
    0.9877    4.3285   -1.3996 H   0  0  0  0  0  0  0  0  0  0  0  0
    0.1036    5.8104   -0.9283 H   0  0  0  0  0  0  0  0  0  0  0  0
   -0.7475    4.5324   -1.7931 H   0  0  0  0  0  0  0  0  0  0  0  0
    1.3872    2.8591    0.5598 H   0  0  0  0  0  0  0  0  0  0  0  0
  1  2  1  0
  1 22  1  0
  2  3  1  0
  2 23  1  0
  2 24  1  0
  3  4  1  6
  3  5  1  0
  3  9  1  0
  5  6  1  0
  6  7  1  1
  6  8  1  0
  6 12  1  0
  8  9  1  0
  8 25  1  0
  8 26  1  0
  9 10  1  6
  9 11  1  0
 11 27  1  0
 12 13  1  0
 12 21  1  0
 13 14  2  0
 13 15  1  0
 15 16  1  0
 15 17  1  0
 17 18  2  0
 17 19  1  0
 19 20  1  0
 19 21  2  0
 20 28  1  0
 20 29  1  0
 20 30  1  0
 21 31  1  0
M  END

