
     RDKit          3D

 31 32  0  0  0  0  0  0  0  0999 V2000
   -0.1365    0.0433    0.1491 O   0  0  0  0  0  0  0  0  0  0  0  0
    1.0939   -0.6590    0.2162 C   0  0  0  0  0  0  0  0  0  0  0  0
    1.9849   -0.2458    1.3847 C   0  0  1  0  0  0  0  0  0  0  0  0
    2.8571   -0.9230    1.3986 H   0  0  0  0  0  0  0  0  0  0  0  0
    2.4465    1.0944    1.2052 O   0  0  0  0  0  0  0  0  0  0  0  0
    1.9558    1.9594    2.2183 C   0  0  2  0  0  0  0  0  0  0  0  0
    2.7652    2.2432    2.9076 H   0  0  0  0  0  0  0  0  0  0  0  0
    0.8500    1.1740    2.9348 C   0  0  0  0  0  0  0  0  0  0  0  0
    1.3178   -0.2747    2.7784 C   0  0  2  0  0  0  0  0  0  0  0  0
    0.4832   -0.9921    2.8178 H   0  0  0  0  0  0  0  0  0  0  0  0
    2.2077   -0.6838    3.7944 O   0  0  0  0  0  0  0  0  0  0  0  0
    1.5263    3.2144    1.6205 N   0  0  0  0  0  0  0  0  0  0  0  0
    2.0848    4.3992    2.1081 C   0  0  0  0  0  0  0  0  0  0  0  0
    2.8736    4.4397    3.0323 O   0  0  0  0  0  0  0  0  0  0  0  0
    1.6427    5.5273    1.4459 N   0  0  0  0  0  0  0  0  0  0  0  0
    2.0268    6.4061    1.7835 H   0  0  0  0  0  0  0  0  0  0  0  0
    0.7389    5.6187    0.3743 C   0  0  0  0  0  0  0  0  0  0  0  0
    0.4487    6.7006   -0.1001 O   0  0  0  0  0  0  0  0  0  0  0  0
    0.2199    4.3239   -0.0763 C   0  0  0  0  0  0  0  0  0  0  0  0
   -0.7407    4.3188   -1.2264 C   0  0  0  0  0  0  0  0  0  0  0  0
    0.6380    3.2033    0.5590 C   0  0  0  0  0  0  0  0  0  0  0  0
   -0.7780   -0.3815    0.7319 H   0  0  0  0  0  0  0  0  0  0  0  0
    1.6352   -0.4343   -0.7155 H   0  0  0  0  0  0  0  0  0  0  0  0
    0.9324   -1.7526    0.2532 H   0  0  0  0  0  0  0  0  0  0  0  0
    0.7338    1.4632    3.9877 H   0  0  0  0  0  0  0  0  0  0  0  0
   -0.1048    1.3256    2.4129 H   0  0  0  0  0  0  0  0  0  0  0  0
    2.9710   -0.0898    3.8010 H   0  0  0  0  0  0  0  0  0  0  0  0
   -1.0553    3.2958   -1.4776 H   0  0  0  0  0  0  0  0  0  0  0  0
   -0.2845    4.7789   -2.1178 H   0  0  0  0  0  0  0  0  0  0  0  0
   -1.6342    4.9199   -0.9923 H   0  0  0  0  0  0  0  0  0  0  0  0
    0.2987    2.2093    0.2596 H   0  0  0  0  0  0  0  0  0  0  0  0
  1  2  1  0
  1 22  1  0
  2  3  1  0
  2 23  1  0
  2 24  1  0
  3  4  1  1
  3  5  1  0
  3  9  1  0
  5  6  1  0
  6  7  1  1
  6  8  1  0
  6 12  1  0
  8  9  1  0
  8 25  1  0
  8 26  1  0
  9 10  1  6
  9 11  1  0
 11 27  1  0
 12 13  1  0
 12 21  1  0
 13 14  2  0
 13 15  1  0
 15 16  1  0
 15 17  1  0
 17 18  2  0
 17 19  1  0
 19 20  1  0
 19 21  2  0
 20 28  1  0
 20 29  1  0
 20 30  1  0
 21 31  1  0
M  END

