rmsd34.gzmat
 OpenBabel08211713373D

 31 32  0  0  1  0  0  0  0  0999 V2000
    0.0000    0.0000    0.0000 O   0  0  0  0  0  0  0  0  0  0  0  0
    1.4080    0.0000    0.0000 C   0  0  0  0  0  0  0  0  0  0  0  0
    1.9276    0.0000    1.4447 C   0  0  1  0  0  0  0  0  0  0  0  0
    1.7511   -0.9688    1.9565 H   0  0  0  0  0  0  0  0  0  0  0  0
    3.3487    0.1204    1.4266 O   0  0  0  0  0  0  0  0  0  0  0  0
    3.7525    1.4486    1.6717 C   0  0  2  0  0  0  0  0  0  0  0  0
    4.6063    1.3648    2.3898 H   0  0  0  0  0  0  0  0  0  0  0  0
    2.5361    2.2258    2.1987 C   0  0  0  0  0  0  0  0  0  0  0  0
    1.3921    1.2017    2.2505 C   0  0  2  0  0  0  0  0  0  0  0  0
    0.4170    1.5877    1.8763 H   0  0  0  0  0  0  0  0  0  0  0  0
    1.0864    0.8206    3.5635 O   0  0  0  0  0  0  0  0  0  0  0  0
    4.2706    2.0015    0.3881 N   0  0  0  0  0  0  0  0  0  0  0  0
    4.6609    3.3579    0.3888 C   0  0  0  0  0  0  0  0  0  0  0  0
    4.5470    4.0373    1.3885 O   0  0  0  0  0  0  0  0  0  0  0  0
    5.1629    3.8653   -0.8071 N   0  0  0  0  0  0  0  0  0  0  0  0
    5.4333    4.8526   -0.8228 H   0  0  0  0  0  0  0  0  0  0  0  0
    5.3348    3.0942   -1.9923 C   0  0  0  0  0  0  0  0  0  0  0  0
    5.7632    3.6719   -2.9621 O   0  0  0  0  0  0  0  0  0  0  0  0
    4.9720    1.6863   -1.8759 C   0  0  0  0  0  0  0  0  0  0  0  0
    5.2018    0.8493   -3.0783 C   0  0  0  0  0  0  0  0  0  0  0  0
    4.4723    1.1883   -0.7165 C   0  0  0  0  0  0  0  0  0  0  0  0
   -0.3533   -0.8083    0.4258 H   0  0  0  0  0  0  0  0  0  0  0  0
    1.6589    0.9375   -0.5356 H   0  0  0  0  0  0  0  0  0  0  0  0
    1.7897   -0.8609   -0.5748 H   0  0  0  0  0  0  0  0  0  0  0  0
    2.7332    2.6723    3.1913 H   0  0  0  0  0  0  0  0  0  0  0  0
    2.2727    3.0912    1.5606 H   0  0  0  0  0  0  0  0  0  0  0  0
    1.8735    0.4868    4.0405 H   0  0  0  0  0  0  0  0  0  0  0  0
    4.7355   -0.1409   -3.0120 H   0  0  0  0  0  0  0  0  0  0  0  0
    6.2800    0.6960   -3.2547 H   0  0  0  0  0  0  0  0  0  0  0  0
    4.8101    1.3389   -3.9874 H   0  0  0  0  0  0  0  0  0  0  0  0
    4.2076    0.1273   -0.5971 H   0  0  0  0  0  0  0  0  0  0  0  0
  1  2  1  0  0  0  0
  1 22  1  0  0  0  0
  2  3  1  0  0  0  0
  3  4  1  1  0  0  0
  3  9  1  0  0  0  0
  5  3  1  0  0  0  0
  5  6  1  0  0  0  0
  6  8  1  0  0  0  0
  6  7  1  1  0  0  0
  8  9  1  0  0  0  0
  8 25  1  0  0  0  0
  9 10  1  6  0  0  0
  9 11  1  0  0  0  0
 11 27  1  0  0  0  0
 12 13  1  0  0  0  0
 12  6  1  0  0  0  0
 13 14  2  0  0  0  0
 15 13  1  0  0  0  0
 16 15  1  0  0  0  0
 17 19  1  0  0  0  0
 17 15  1  0  0  0  0
 18 17  2  0  0  0  0
 19 21  2  0  0  0  0
 20 28  1  0  0  0  0
 20 19  1  0  0  0  0
 21 31  1  0  0  0  0
 21 12  1  0  0  0  0
 23  2  1  0  0  0  0
 24  2  1  0  0  0  0
 26  8  1  0  0  0  0
 29 20  1  0  0  0  0
 30 20  1  0  0  0  0
M  END
$$$$
