rmsd7.gzmat
 OpenBabel08211713373D

 31 32  0  0  1  0  0  0  0  0999 V2000
    0.0000    0.0000    0.0000 O   0  0  0  0  0  0  0  0  0  0  0  0
    1.4116    0.0000    0.0000 C   0  0  0  0  0  0  0  0  0  0  0  0
    1.9177    0.0000    1.4443 C   0  0  1  0  0  0  0  0  0  0  0  0
    1.4443    0.8210    2.0290 H   0  0  0  0  0  0  0  0  0  0  0  0
    1.4321   -1.1856    2.0797 O   0  0  0  0  0  0  0  0  0  0  0  0
    2.4748   -2.0676    2.4167 C   0  0  2  0  0  0  0  0  0  0  0  0
    2.2219   -2.4083    3.4540 H   0  0  0  0  0  0  0  0  0  0  0  0
    3.7950   -1.2966    2.3331 C   0  0  0  0  0  0  0  0  0  0  0  0
    3.4565   -0.0026    1.5646 C   0  0  2  0  0  0  0  0  0  0  0  0
    3.9843    0.0709    0.5863 H   0  0  0  0  0  0  0  0  0  0  0  0
    3.9133    1.1352    2.2412 O   0  0  0  0  0  0  0  0  0  0  0  0
    2.3935   -3.2439    1.5198 N   0  0  0  0  0  0  0  0  0  0  0  0
    2.9535   -3.2108    0.2257 C   0  0  0  0  0  0  0  0  0  0  0  0
    3.5969   -2.2667   -0.1865 O   0  0  0  0  0  0  0  0  0  0  0  0
    2.7741   -4.3454   -0.5688 N   0  0  0  0  0  0  0  0  0  0  0  0
    3.2215   -4.3438   -1.4908 H   0  0  0  0  0  0  0  0  0  0  0  0
    2.0122   -5.4824   -0.1883 C   0  0  0  0  0  0  0  0  0  0  0  0
    1.9735   -6.4081   -0.9620 O   0  0  0  0  0  0  0  0  0  0  0  0
    1.3552   -5.3760    1.1129 C   0  0  0  0  0  0  0  0  0  0  0  0
    0.4912   -6.5156    1.5028 C   0  0  0  0  0  0  0  0  0  0  0  0
    1.5457   -4.2872    1.8950 C   0  0  0  0  0  0  0  0  0  0  0  0
   -0.3210   -0.7750    0.5098 H   0  0  0  0  0  0  0  0  0  0  0  0
    1.6752    0.9356   -0.5289 H   0  0  0  0  0  0  0  0  0  0  0  0
    1.7761   -0.8680   -0.5784 H   0  0  0  0  0  0  0  0  0  0  0  0
    4.1885   -1.0666    3.3385 H   0  0  0  0  0  0  0  0  0  0  0  0
    4.6034   -1.8600    1.8297 H   0  0  0  0  0  0  0  0  0  0  0  0
    3.5295    1.2146    3.1370 H   0  0  0  0  0  0  0  0  0  0  0  0
   -0.1117   -6.3163    2.3971 H   0  0  0  0  0  0  0  0  0  0  0  0
    1.0907   -7.4210    1.6988 H   0  0  0  0  0  0  0  0  0  0  0  0
   -0.2061   -6.7853    0.6895 H   0  0  0  0  0  0  0  0  0  0  0  0
    1.0577   -4.1789    2.8724 H   0  0  0  0  0  0  0  0  0  0  0  0
  1  2  1  0  0  0  0
  1 22  1  0  0  0  0
  2  3  1  0  0  0  0
  3  9  1  0  0  0  0
  3  4  1  1  0  0  0
  3  5  1  0  0  0  0
  5  6  1  0  0  0  0
  6  7  1  1  0  0  0
  8  6  1  0  0  0  0
  8 25  1  0  0  0  0
  9 10  1  6  0  0  0
  9 11  1  0  0  0  0
  9  8  1  0  0  0  0
 11 27  1  0  0  0  0
 12 21  1  0  0  0  0
 12  6  1  0  0  0  0
 13 12  1  0  0  0  0
 14 13  2  0  0  0  0
 15 17  1  0  0  0  0
 15 13  1  0  0  0  0
 16 15  1  0  0  0  0
 17 19  1  0  0  0  0
 18 17  2  0  0  0  0
 19 20  1  0  0  0  0
 19 21  2  0  0  0  0
 20 29  1  0  0  0  0
 20 28  1  0  0  0  0
 21 31  1  0  0  0  0
 23  2  1  0  0  0  0
 24  2  1  0  0  0  0
 26  8  1  0  0  0  0
 30 20  1  0  0  0  0
M  END
$$$$
