rmsd4.gzmat
 OpenBabel08211713373D

 31 32  0  0  1  0  0  0  0  0999 V2000
    0.0000    0.0000    0.0000 O   0  0  0  0  0  0  0  0  0  0  0  0
    1.4103    0.0000    0.0000 C   0  0  0  0  0  0  0  0  0  0  0  0
    1.9398    0.0000    1.4346 C   0  0  1  0  0  0  0  0  0  0  0  0
    1.3321    0.6660    2.0894 H   0  0  0  0  0  0  0  0  0  0  0  0
    1.7400   -1.2952    2.0054 O   0  0  0  0  0  0  0  0  0  0  0  0
    2.9334   -2.0406    2.0331 C   0  0  2  0  0  0  0  0  0  0  0  0
    2.9395   -2.5383    3.0351 H   0  0  0  0  0  0  0  0  0  0  0  0
    4.0992   -1.0722    1.7815 C   0  0  0  0  0  0  0  0  0  0  0  0
    3.4510    0.2965    1.5254 C   0  0  2  0  0  0  0  0  0  0  0  0
    3.8628    0.8240    0.6387 H   0  0  0  0  0  0  0  0  0  0  0  0
    3.7162    1.2050    2.5574 O   0  0  0  0  0  0  0  0  0  0  0  0
    2.8322   -3.0967    0.9849 N   0  0  0  0  0  0  0  0  0  0  0  0
    3.9797   -3.8825    0.7455 C   0  0  0  0  0  0  0  0  0  0  0  0
    5.0072   -3.6928    1.3640 O   0  0  0  0  0  0  0  0  0  0  0  0
    3.8729   -4.8621   -0.2387 N   0  0  0  0  0  0  0  0  0  0  0  0
    4.7061   -5.4237   -0.4355 H   0  0  0  0  0  0  0  0  0  0  0  0
    2.6799   -5.1387   -0.9668 C   0  0  0  0  0  0  0  0  0  0  0  0
    2.7433   -5.9983   -1.8122 O   0  0  0  0  0  0  0  0  0  0  0  0
    1.5214   -4.3385   -0.5858 C   0  0  0  0  0  0  0  0  0  0  0  0
    0.2492   -4.6517   -1.2801 C   0  0  0  0  0  0  0  0  0  0  0  0
    1.6241   -3.3730    0.3619 C   0  0  0  0  0  0  0  0  0  0  0  0
   -0.3397   -0.7157    0.5771 H   0  0  0  0  0  0  0  0  0  0  0  0
    1.6600    0.9370   -0.5364 H   0  0  0  0  0  0  0  0  0  0  0  0
    1.7734   -0.8660   -0.5828 H   0  0  0  0  0  0  0  0  0  0  0  0
    4.7935   -1.0412    2.6428 H   0  0  0  0  0  0  0  0  0  0  0  0
    4.7435   -1.3801    0.9357 H   0  0  0  0  0  0  0  0  0  0  0  0
    3.4410    0.8573    3.4313 H   0  0  0  0  0  0  0  0  0  0  0  0
   -0.5420   -3.9171   -1.0851 H   0  0  0  0  0  0  0  0  0  0  0  0
   -0.1353   -5.6419   -0.9821 H   0  0  0  0  0  0  0  0  0  0  0  0
    0.3922   -4.6959   -2.3743 H   0  0  0  0  0  0  0  0  0  0  0  0
    0.7629   -2.7673    0.6784 H   0  0  0  0  0  0  0  0  0  0  0  0
  1  2  1  0  0  0  0
  1 22  1  0  0  0  0
  2  3  1  0  0  0  0
  3  9  1  0  0  0  0
  3  5  1  0  0  0  0
  3  4  1  1  0  0  0
  5  6  1  0  0  0  0
  6  7  1  1  0  0  0
  8  6  1  0  0  0  0
  8 25  1  0  0  0  0
  9 10  1  6  0  0  0
  9  8  1  0  0  0  0
  9 11  1  0  0  0  0
 11 27  1  0  0  0  0
 12  6  1  0  0  0  0
 13 12  1  0  0  0  0
 13 14  2  0  0  0  0
 15 13  1  0  0  0  0
 16 15  1  0  0  0  0
 17 19  1  0  0  0  0
 17 15  1  0  0  0  0
 18 17  2  0  0  0  0
 19 21  2  0  0  0  0
 20 28  1  0  0  0  0
 20 29  1  0  0  0  0
 20 19  1  0  0  0  0
 21 31  1  0  0  0  0
 21 12  1  0  0  0  0
 23  2  1  0  0  0  0
 24  2  1  0  0  0  0
 26  8  1  0  0  0  0
 30 20  1  0  0  0  0
M  END
$$$$
