rmsd15.gzmat
 OpenBabel08211713373D

 31 32  0  0  1  0  0  0  0  0999 V2000
    0.0000    0.0000    0.0000 O   0  0  0  0  0  0  0  0  0  0  0  0
    1.4092    0.0000    0.0000 C   0  0  0  0  0  0  0  0  0  0  0  0
    1.9719    0.0000    1.4234 C   0  0  1  0  0  0  0  0  0  0  0  0
    3.0314   -0.3370    1.4457 H   0  0  0  0  0  0  0  0  0  0  0  0
    2.0450    1.3411    1.9141 O   0  0  0  0  0  0  0  0  0  0  0  0
    0.9714    1.6373    2.7757 C   0  0  2  0  0  0  0  0  0  0  0  0
    1.4279    2.1927    3.6316 H   0  0  0  0  0  0  0  0  0  0  0  0
    0.2882    0.3140    3.1517 C   0  0  0  0  0  0  0  0  0  0  0  0
    1.0828   -0.7771    2.4171 C   0  0  2  0  0  0  0  0  0  0  0  0
    0.4449   -1.5506    1.9341 H   0  0  0  0  0  0  0  0  0  0  0  0
    1.8712   -1.5306    3.2965 O   0  0  0  0  0  0  0  0  0  0  0  0
    0.0638    2.5636    2.0349 N   0  0  0  0  0  0  0  0  0  0  0  0
   -1.1860    2.8659    2.6189 C   0  0  0  0  0  0  0  0  0  0  0  0
   -1.5259    2.3582    3.6672 O   0  0  0  0  0  0  0  0  0  0  0  0
   -2.0093    3.7368    1.9101 N   0  0  0  0  0  0  0  0  0  0  0  0
   -2.9382    3.9262    2.2992 H   0  0  0  0  0  0  0  0  0  0  0  0
   -1.6334    4.3903    0.7019 C   0  0  0  0  0  0  0  0  0  0  0  0
   -2.4622    5.0955    0.1799 O   0  0  0  0  0  0  0  0  0  0  0  0
   -0.2737    4.1168    0.2462 C   0  0  0  0  0  0  0  0  0  0  0  0
    0.1693    4.8494   -0.9643 C   0  0  0  0  0  0  0  0  0  0  0  0
    0.5231    3.2478    0.9155 C   0  0  0  0  0  0  0  0  0  0  0  0
   -0.3370    0.7910    0.4708 H   0  0  0  0  0  0  0  0  0  0  0  0
    1.7775    0.8647   -0.5822 H   0  0  0  0  0  0  0  0  0  0  0  0
    1.6593   -0.9370   -0.5364 H   0  0  0  0  0  0  0  0  0  0  0  0
    0.2815    0.1536    4.2462 H   0  0  0  0  0  0  0  0  0  0  0  0
   -0.7831    0.2797    2.8716 H   0  0  0  0  0  0  0  0  0  0  0  0
    2.4505   -0.9638    3.8457 H   0  0  0  0  0  0  0  0  0  0  0  0
    1.1059    4.4646   -1.3858 H   0  0  0  0  0  0  0  0  0  0  0  0
    0.3199    5.9205   -0.7477 H   0  0  0  0  0  0  0  0  0  0  0  0
   -0.5943    4.8032   -1.7613 H   0  0  0  0  0  0  0  0  0  0  0  0
    1.5563    3.0336    0.6031 H   0  0  0  0  0  0  0  0  0  0  0  0
  1 22  1  0  0  0  0
  2  1  1  0  0  0  0
  2  3  1  0  0  0  0
  3  4  1  6  0  0  0
  3  5  1  0  0  0  0
  3  9  1  0  0  0  0
  5  6  1  0  0  0  0
  6  8  1  0  0  0  0
  6  7  1  1  0  0  0
  8 25  1  0  0  0  0
  9 10  1  6  0  0  0
  9  8  1  0  0  0  0
  9 11  1  0  0  0  0
 11 27  1  0  0  0  0
 12 13  1  0  0  0  0
 12  6  1  0  0  0  0
 13 14  2  0  0  0  0
 15 16  1  0  0  0  0
 15 13  1  0  0  0  0
 17 15  1  0  0  0  0
 18 17  2  0  0  0  0
 19 17  1  0  0  0  0
 19 21  2  0  0  0  0
 20 29  1  0  0  0  0
 20 19  1  0  0  0  0
 21 12  1  0  0  0  0
 23  2  1  0  0  0  0
 24  2  1  0  0  0  0
 26  8  1  0  0  0  0
 28 20  1  0  0  0  0
 30 20  1  0  0  0  0
 31 21  1  0  0  0  0
M  END
$$$$
