rmsd18.gzmat
 OpenBabel08211713373D

 31 32  0  0  1  0  0  0  0  0999 V2000
    0.0000    0.0000    0.0000 O   0  0  0  0  0  0  0  0  0  0  0  0
    1.4077    0.0000    0.0000 C   0  0  0  0  0  0  0  0  0  0  0  0
    1.9323    0.0000    1.4430 C   0  0  1  0  0  0  0  0  0  0  0  0
    1.7984   -0.9819    1.9427 H   0  0  0  0  0  0  0  0  0  0  0  0
    3.3476    0.1790    1.4152 O   0  0  0  0  0  0  0  0  0  0  0  0
    3.6980    1.5204    1.6694 C   0  0  2  0  0  0  0  0  0  0  0  0
    4.5786    1.4623    2.3564 H   0  0  0  0  0  0  0  0  0  0  0  0
    2.4647    2.2292    2.2506 C   0  0  0  0  0  0  0  0  0  0  0  0
    1.3551    1.1668    2.2710 C   0  0  2  0  0  0  0  0  0  0  0  0
    0.3702    1.5304    1.8991 H   0  0  0  0  0  0  0  0  0  0  0  0
    1.0531    0.7474    3.5731 O   0  0  0  0  0  0  0  0  0  0  0  0
    4.1468    2.1176    0.3789 N   0  0  0  0  0  0  0  0  0  0  0  0
    4.4121    3.5036    0.3667 C   0  0  0  0  0  0  0  0  0  0  0  0
    4.2851    4.1732    1.3714 O   0  0  0  0  0  0  0  0  0  0  0  0
    4.8085    4.0542   -0.8498 N   0  0  0  0  0  0  0  0  0  0  0  0
    4.9795    5.0633   -0.8757 H   0  0  0  0  0  0  0  0  0  0  0  0
    5.0062    3.3000   -2.0411 C   0  0  0  0  0  0  0  0  0  0  0  0
    5.3223    3.9141   -3.0316 O   0  0  0  0  0  0  0  0  0  0  0  0
    4.8060    1.8616   -1.9052 C   0  0  0  0  0  0  0  0  0  0  0  0
    5.1011    1.0477   -3.1095 C   0  0  0  0  0  0  0  0  0  0  0  0
    4.3975    1.3224   -0.7288 C   0  0  0  0  0  0  0  0  0  0  0  0
   -0.3525   -0.8093    0.4240 H   0  0  0  0  0  0  0  0  0  0  0  0
    1.6588    0.9380   -0.5350 H   0  0  0  0  0  0  0  0  0  0  0  0
    1.7892   -0.8601   -0.5763 H   0  0  0  0  0  0  0  0  0  0  0  0
    2.6633    2.6334    3.2609 H   0  0  0  0  0  0  0  0  0  0  0  0
    2.1599    3.1165    1.6626 H   0  0  0  0  0  0  0  0  0  0  0  0
    1.8499    0.4477    4.0561 H   0  0  0  0  0  0  0  0  0  0  0  0
    4.7601    0.0091   -3.0267 H   0  0  0  0  0  0  0  0  0  0  0  0
    6.1852    1.0249   -3.3136 H   0  0  0  0  0  0  0  0  0  0  0  0
    4.6299    1.4798   -4.0102 H   0  0  0  0  0  0  0  0  0  0  0  0
    4.2510    0.2402   -0.5967 H   0  0  0  0  0  0  0  0  0  0  0  0
  1  2  1  0  0  0  0
  1 22  1  0  0  0  0
  2  3  1  0  0  0  0
  3  4  1  1  0  0  0
  3  9  1  0  0  0  0
  5  3  1  0  0  0  0
  5  6  1  0  0  0  0
  6  8  1  0  0  0  0
  6  7  1  1  0  0  0
  8  9  1  0  0  0  0
  8 25  1  0  0  0  0
  9 10  1  6  0  0  0
  9 11  1  0  0  0  0
 11 27  1  0  0  0  0
 12  6  1  0  0  0  0
 13 12  1  0  0  0  0
 13 14  2  0  0  0  0
 15 13  1  0  0  0  0
 16 15  1  0  0  0  0
 17 19  1  0  0  0  0
 17 15  1  0  0  0  0
 18 17  2  0  0  0  0
 19 21  2  0  0  0  0
 20 28  1  0  0  0  0
 20 19  1  0  0  0  0
 21 31  1  0  0  0  0
 21 12  1  0  0  0  0
 23  2  1  0  0  0  0
 24  2  1  0  0  0  0
 26  8  1  0  0  0  0
 29 20  1  0  0  0  0
 30 20  1  0  0  0  0
M  END
$$$$
