31
rmsd9.gzmat
O          0.00000        0.00000        0.00000
C          1.41040        0.00000        0.00000
C          1.97960        0.00000        1.42750
H          2.76500       -0.78330        1.53850
O          2.69920        1.21370        1.61110
C          2.07890        2.07060        2.54690
H          2.92120        2.41460        3.20800
C          0.99060        1.26890        3.27590
C          0.93490       -0.09250        2.56200
H         -0.08800       -0.36830        2.22720
O          1.25110       -1.14850        3.42900
N          1.53420        3.22810        1.81350
C          2.26360        4.43920        1.88870
O          3.15930        4.58660        2.69340
N          1.87210        5.46500        1.02870
H          2.38470        6.34920        1.09110
C          0.82680        5.35320        0.07070
O          0.60890        6.32030       -0.61940
C          0.14190        4.06480        0.04720
C         -0.96200        3.92460       -0.93330
C          0.51580        3.06320        0.87960
H         -0.35260       -0.90790        0.09510
H          1.67000        0.94470       -0.52640
H          1.78780       -0.84940       -0.59300
H          1.23260        1.14440        4.34790
H          0.01000        1.77710        3.26910
H          2.12790       -1.03230        3.84930
H         -1.47860        2.95810       -0.86330
H         -0.58910        4.02200       -1.96700
H         -1.71810        4.71730       -0.80180
H          0.02050        2.07910        0.87270
