
     RDKit          3D

 31 32  0  0  0  0  0  0  0  0999 V2000
    0.1441    0.0813   -0.2594 O   0  0  0  0  0  0  0  0  0  0  0  0
    1.2075   -0.7079    0.2362 C   0  0  0  0  0  0  0  0  0  0  0  0
    1.9254   -0.0932    1.4288 C   0  0  1  0  0  0  0  0  0  0  0  0
    2.6772   -0.8317    1.7808 H   0  0  0  0  0  0  0  0  0  0  0  0
    2.5884    1.1113    1.0485 O   0  0  0  0  0  0  0  0  0  0  0  0
    2.5317    2.0735    2.0749 C   0  0  2  0  0  0  0  0  0  0  0  0
    3.5361    2.4532    2.3029 H   0  0  0  0  0  0  0  0  0  0  0  0
    1.8929    1.3792    3.2850 C   0  0  0  0  0  0  0  0  0  0  0  0
    1.0400    0.2948    2.6244 C   0  0  2  0  0  0  0  0  0  0  0  0
    0.1072    0.7438    2.2459 H   0  0  0  0  0  0  0  0  0  0  0  0
    0.6440   -0.7863    3.4252 O   0  0  0  0  0  0  0  0  0  0  0  0
    1.7522    3.2436    1.6130 N   0  0  0  0  0  0  0  0  0  0  0  0
    1.9690    4.4249    2.3165 C   0  0  0  0  0  0  0  0  0  0  0  0
    2.7376    4.4943    3.2588 O   0  0  0  0  0  0  0  0  0  0  0  0
    1.2303    5.4943    1.8529 N   0  0  0  0  0  0  0  0  0  0  0  0
    1.3728    6.3711    2.3477 H   0  0  0  0  0  0  0  0  0  0  0  0
    0.2910    5.5166    0.8062 C   0  0  0  0  0  0  0  0  0  0  0  0
   -0.2959    6.5448    0.5244 O   0  0  0  0  0  0  0  0  0  0  0  0
    0.1182    4.2236    0.1415 C   0  0  0  0  0  0  0  0  0  0  0  0
   -0.8600    4.1432   -0.9915 C   0  0  0  0  0  0  0  0  0  0  0  0
    0.8517    3.1655    0.5702 C   0  0  0  0  0  0  0  0  0  0  0  0
   -0.6425   -0.0775    0.2776 H   0  0  0  0  0  0  0  0  0  0  0  0
    1.9297   -0.8238   -0.5865 H   0  0  0  0  0  0  0  0  0  0  0  0
    0.8652   -1.7168    0.5309 H   0  0  0  0  0  0  0  0  0  0  0  0
    2.6830    0.9038    3.8914 H   0  0  0  0  0  0  0  0  0  0  0  0
    1.3414    2.0735    3.9301 H   0  0  0  0  0  0  0  0  0  0  0  0
    1.4265   -1.1459    3.8663 H   0  0  0  0  0  0  0  0  0  0  0  0
   -0.9076    3.1242   -1.4018 H   0  0  0  0  0  0  0  0  0  0  0  0
   -0.5808    4.8381   -1.8002 H   0  0  0  0  0  0  0  0  0  0  0  0
   -1.8676    4.4438   -0.6613 H   0  0  0  0  0  0  0  0  0  0  0  0
    0.7673    2.1820    0.1066 H   0  0  0  0  0  0  0  0  0  0  0  0
  1  2  1  0
  1 22  1  0
  2  3  1  0
  2 23  1  0
  2 24  1  0
  3  4  1  1
  3  5  1  0
  3  9  1  0
  5  6  1  0
  6  7  1  1
  6  8  1  0
  6 12  1  0
  8  9  1  0
  8 25  1  0
  8 26  1  0
  9 10  1  6
  9 11  1  0
 11 27  1  0
 12 13  1  0
 12 21  1  0
 13 14  2  0
 13 15  1  0
 15 16  1  0
 15 17  1  0
 17 18  2  0
 17 19  1  0
 19 20  1  0
 19 21  2  0
 20 28  1  0
 20 29  1  0
 20 30  1  0
 21 31  1  0
M  END

