31
rmsd4.gzmat
O          0.00000        0.00000        0.00000
C          1.41030        0.00000        0.00000
C          1.93980        0.00000        1.43460
H          1.33210        0.66600        2.08940
O          1.74000       -1.29520        2.00540
C          2.93340       -2.04060        2.03310
H          2.93950       -2.53830        3.03510
C          4.09920       -1.07220        1.78150
C          3.45100        0.29650        1.52540
H          3.86280        0.82400        0.63870
O          3.71620        1.20500        2.55740
N          2.83220       -3.09670        0.98490
C          3.97970       -3.88250        0.74550
O          5.00720       -3.69280        1.36400
N          3.87290       -4.86210       -0.23870
H          4.70610       -5.42370       -0.43550
C          2.67990       -5.13870       -0.96680
O          2.74330       -5.99830       -1.81220
C          1.52140       -4.33850       -0.58580
C          0.24920       -4.65170       -1.28010
C          1.62410       -3.37300        0.36190
H         -0.33970       -0.71570        0.57710
H          1.66000        0.93700       -0.53640
H          1.77340       -0.86600       -0.58280
H          4.79350       -1.04120        2.64280
H          4.74350       -1.38010        0.93570
H          3.44100        0.85730        3.43130
H         -0.54200       -3.91710       -1.08510
H         -0.13530       -5.64190       -0.98210
H          0.39220       -4.69590       -2.37430
H          0.76290       -2.76730        0.67840
