31

O          0.12070        0.21910       -0.13760
C          1.49530       -0.06820        0.00870
C          1.99990       -0.03330        1.44950
H          3.04020       -0.39500        1.45760
O          2.02040        1.30410        1.99380
C          0.87940        1.55010        2.77600
H          1.19070        1.94880        3.75470
C          0.12580        0.21140        2.90450
C          1.16490       -0.82580        2.46570
H          0.69560       -1.70830        2.00860
O          1.95660       -1.31100        3.53100
N          0.05980        2.61180        2.13480
C         -1.09030        2.99230        2.81860
O         -1.38380        2.54080        3.90840
N         -1.86240        3.91750        2.14030
H         -2.71580        4.20350        2.61380
C         -1.61720        4.50850        0.89080
O         -2.40080        5.30570        0.41230
C         -0.35390        4.08600        0.27410
C          0.02670        4.71590       -1.03100
C          0.41440        3.18030        0.93190
H         -0.00150        1.17290       -0.23200
H          2.12460        0.60670       -0.60120
H          1.65720       -1.09010       -0.37470
H         -0.24050        0.03230        3.92150
H         -0.72190        0.20290        2.20950
H          2.39270       -0.55890        3.95500
H          0.98770        4.32850       -1.39960
H          0.10360        5.81040       -0.92830
H         -0.74750        4.53240       -1.79310
H          1.38720        2.85910        0.55980
