31
rmsd5.gzmat
O          0.00000        0.00000        0.00000
C          1.41060        0.00000        0.00000
C          1.94010        0.00000        1.43450
H          1.35990        0.70130        2.07750
O          1.68140       -1.27720        2.02230
C          2.84810       -2.05900        2.10730
H          2.81820       -2.51560        3.12860
C          4.05320       -1.14340        1.84300
C          3.46150        0.23720        1.52320
H          3.89830        0.70760        0.61640
O          3.75800        1.17940        2.51590
N          2.73930       -3.15380        1.10100
C          3.85180       -4.01280        0.97230
O          4.84820       -3.84550        1.64630
N          3.74880       -5.03460        0.03250
H          4.55710       -5.65300       -0.08090
C          2.59100       -5.27700       -0.76190
O          2.65190       -6.18900       -1.55050
C          1.46790       -4.38120       -0.51090
C          0.23770       -4.63680       -1.29780
C          1.56500       -3.38000        0.39990
H         -0.33980       -0.69570        0.60160
H          1.66160        0.93690       -0.53600
H          1.77120       -0.86670       -0.58350
H          4.73220       -1.10480        2.71660
H          4.70010       -1.50950        1.02280
H          3.46990        0.87950        3.40340
H         -0.54550       -3.88680       -1.13230
H         -0.19200       -5.62430       -1.05780
H          0.45440       -4.65280       -2.38040
H          0.72570       -2.70640        0.62310
