31

O          0.14410        0.08130       -0.25940
C          1.20750       -0.70790        0.23620
C          1.92540       -0.09320        1.42880
H          2.67720       -0.83170        1.78080
O          2.58840        1.11130        1.04850
C          2.53170        2.07350        2.07490
H          3.53610        2.45320        2.30290
C          1.89290        1.37920        3.28500
C          1.04000        0.29480        2.62440
H          0.10720        0.74380        2.24590
O          0.64400       -0.78630        3.42520
N          1.75220        3.24360        1.61300
C          1.96900        4.42490        2.31650
O          2.73760        4.49430        3.25880
N          1.23030        5.49430        1.85290
H          1.37280        6.37110        2.34770
C          0.29100        5.51660        0.80620
O         -0.29590        6.54480        0.52440
C          0.11820        4.22360        0.14150
C         -0.86000        4.14320       -0.99150
C          0.85170        3.16550        0.57020
H         -0.64250       -0.07750        0.27760
H          1.92970       -0.82380       -0.58650
H          0.86520       -1.71680        0.53090
H          2.68300        0.90380        3.89140
H          1.34140        2.07350        3.93010
H          1.42650       -1.14590        3.86630
H         -0.90760        3.12420       -1.40180
H         -0.58080        4.83810       -1.80020
H         -1.86760        4.44380       -0.66130
H          0.76730        2.18200        0.10660
