31

O         -0.13650        0.04330        0.14910
C          1.09390       -0.65900        0.21620
C          1.98490       -0.24580        1.38470
H          2.85710       -0.92300        1.39860
O          2.44650        1.09440        1.20520
C          1.95580        1.95940        2.21830
H          2.76520        2.24320        2.90760
C          0.85000        1.17400        2.93480
C          1.31780       -0.27470        2.77840
H          0.48320       -0.99210        2.81780
O          2.20770       -0.68380        3.79440
N          1.52630        3.21440        1.62050
C          2.08480        4.39920        2.10810
O          2.87360        4.43970        3.03230
N          1.64270        5.52730        1.44590
H          2.02680        6.40610        1.78350
C          0.73890        5.61870        0.37430
O          0.44870        6.70060       -0.10010
C          0.21990        4.32390       -0.07630
C         -0.74070        4.31880       -1.22640
C          0.63800        3.20330        0.55900
H         -0.77800       -0.38150        0.73190
H          1.63520       -0.43430       -0.71550
H          0.93240       -1.75260        0.25320
H          0.73380        1.46320        3.98770
H         -0.10480        1.32560        2.41290
H          2.97100       -0.08980        3.80100
H         -1.05530        3.29580       -1.47760
H         -0.28450        4.77890       -2.11780
H         -1.63420        4.91990       -0.99230
H          0.29870        2.20930        0.25960
