31
rmsd2.gzmat
O          0.00000        0.00000        0.00000
C          1.41120        0.00000        0.00000
C          1.92040        0.00000        1.44200
H          1.15780        0.44640        2.12220
O          2.01930       -1.35610        1.88480
C          3.35120       -1.73580        2.12250
H          3.30900       -2.31120        3.08200
C          4.20370       -0.46550        2.20310
C          3.30850        0.65100        1.62810
H          3.72260        1.10560        0.70000
O          3.23830        1.74690        2.49790
N          3.77060       -2.66550        1.04600
C          4.12790       -2.17200       -0.22560
O          4.19140       -0.98430       -0.47190
N          4.44810       -3.11720       -1.20250
H          4.74880       -2.76120       -2.11510
C          4.37670       -4.52350       -1.01580
O          4.70570       -5.22190       -1.94380
C          3.89980       -4.94820        0.29840
C          3.78010       -6.41100        0.50840
C          3.59890       -4.03420        1.25170
H         -0.34310       -0.82770        0.39390
H          1.66130        0.93740       -0.53410
H          1.78440       -0.86440       -0.57710
H          4.49660       -0.23950        3.24350
H          5.15480       -0.54110        1.64410
H          2.85490        1.50810        3.36490
H          3.33090       -6.67630        1.47310
H          4.76790       -6.90080        0.45630
H          3.16740       -6.88100       -0.28110
H          3.22500       -4.32640        2.24150
