70
rmsd64.gzmat
O          0.00000        0.00000        0.00000
C          1.21220        0.00000        0.00000
N          1.94000        0.00000        1.17570
C          1.23890       -0.33530        2.41860
H          0.21090        0.14630        2.40100
C          1.10960       -1.83400        2.56720
C          2.11880       -2.60690        3.13870
C          1.96900       -3.98940        3.22380
C          0.82490       -4.60260        2.71740
C         -0.17400       -3.83050        2.12620
C         -0.03520       -2.44740        2.05370
C          2.05190        0.25000        3.56400
O          3.24660        0.28100        3.68760
O          1.22130        0.75930        4.50160
C          2.00820        0.01600       -1.32620
H          1.34160       -0.47970       -2.09580
N          3.25960       -0.73480       -1.14670
C          3.23310       -2.12350       -1.02510
C          2.03130       -2.84210       -0.88890
C          2.07130       -4.19680       -0.59070
C          3.29370       -4.85050       -0.44490
C          4.48890       -4.15340       -0.63050
C          4.46880       -2.79920       -0.92560
C          3.31020       -6.27610       -0.03500
N          3.11250       -6.73670        1.15740
N          3.61870       -7.18920       -1.04690
C          2.31740        1.41840       -1.78200
C          2.72430        1.59420       -3.10750
C          3.02200        2.87130       -3.58330
O          3.41050        2.86240       -4.88400
C          3.76050        4.09740       -5.49230
C          2.89870        3.98320       -2.72050
C          2.48490        3.79770       -1.40720
C          2.20160        2.51520       -0.93620
O          3.20040        5.18820       -3.28370
C          3.25950        6.32670       -2.43160
C          4.36100        6.23460       -1.42190
C          5.47600        5.43390       -1.67020
C          6.48790        5.33690       -0.71810
C          6.39240        6.04960        0.47610
C          5.28480        6.86120        0.71650
C          4.26710        6.95400       -0.23000
H          2.94380       -0.17280        1.15570
H          3.03240       -2.14360        3.51470
H          2.75100       -4.58690        3.68970
H          0.71040       -5.68490        2.78080
H         -1.06480       -4.30800        1.72190
H         -0.81330       -1.84180        1.58180
H          1.68930        1.13330        5.29010
H          4.08660       -0.30130       -1.53980
H          1.06510       -2.35420       -0.99420
H          1.13850       -4.74820       -0.45710
H          5.44050       -4.68090       -0.53510
H          5.40020       -2.25600       -1.05720
H          2.99100       -6.09620        1.92170
H          3.42430       -6.93130       -1.99070
H          3.51860       -8.16500       -0.83080
H          2.80930        0.74730       -3.78810
H          4.02080        3.78260       -6.51170
H          4.62440        4.54840       -4.99370
H          2.90580        4.78230       -5.50750
H          2.38940        4.64370       -0.72880
H          1.88770        2.39470        0.10240
H          2.26510        6.50020       -1.97920
H          3.45750        7.12760       -3.17850
H          5.54840        4.87740       -2.60450
H          7.35200        4.70180       -0.90660
H          7.18180        5.97040        1.22110
H          5.21250        7.42050        1.64730
H          3.40310        7.58560       -0.03540
