rmsd64.gzmat
 OpenBabel08211713423D

 70 73  0  0  1  0  0  0  0  0999 V2000
    0.0000    0.0000    0.0000 O   0  0  0  0  0  0  0  0  0  0  0  0
    1.2122    0.0000    0.0000 C   0  0  0  0  0  0  0  0  0  0  0  0
    1.9400    0.0000    1.1757 N   0  0  0  0  0  0  0  0  0  0  0  0
    1.2389   -0.3353    2.4186 C   0  0  1  0  0  0  0  0  0  0  0  0
    0.2109    0.1463    2.4010 H   0  0  0  0  0  0  0  0  0  0  0  0
    1.1096   -1.8340    2.5672 C   0  0  0  0  0  0  0  0  0  0  0  0
    2.1188   -2.6069    3.1387 C   0  0  0  0  0  0  0  0  0  0  0  0
    1.9690   -3.9894    3.2238 C   0  0  0  0  0  0  0  0  0  0  0  0
    0.8249   -4.6026    2.7174 C   0  0  0  0  0  0  0  0  0  0  0  0
   -0.1740   -3.8305    2.1262 C   0  0  0  0  0  0  0  0  0  0  0  0
   -0.0352   -2.4474    2.0537 C   0  0  0  0  0  0  0  0  0  0  0  0
    2.0519    0.2500    3.5640 C   0  0  0  0  0  0  0  0  0  0  0  0
    3.2466    0.2810    3.6876 O   0  0  0  0  0  0  0  0  0  0  0  0
    1.2213    0.7593    4.5016 O   0  0  0  0  0  0  0  0  0  0  0  0
    2.0082    0.0160   -1.3262 C   0  0  2  0  0  0  0  0  0  0  0  0
    1.3416   -0.4797   -2.0958 H   0  0  0  0  0  0  0  0  0  0  0  0
    3.2596   -0.7348   -1.1467 N   0  0  0  0  0  0  0  0  0  0  0  0
    3.2331   -2.1235   -1.0251 C   0  0  0  0  0  0  0  0  0  0  0  0
    2.0313   -2.8421   -0.8889 C   0  0  0  0  0  0  0  0  0  0  0  0
    2.0713   -4.1968   -0.5907 C   0  0  0  0  0  0  0  0  0  0  0  0
    3.2937   -4.8505   -0.4449 C   0  0  0  0  0  0  0  0  0  0  0  0
    4.4889   -4.1534   -0.6305 C   0  0  0  0  0  0  0  0  0  0  0  0
    4.4688   -2.7992   -0.9256 C   0  0  0  0  0  0  0  0  0  0  0  0
    3.3102   -6.2761   -0.0350 C   0  0  0  0  0  0  0  0  0  0  0  0
    3.1125   -6.7367    1.1574 N   0  0  0  0  0  0  0  0  0  0  0  0
    3.6187   -7.1892   -1.0469 N   0  0  0  0  0  0  0  0  0  0  0  0
    2.3174    1.4184   -1.7820 C   0  0  0  0  0  0  0  0  0  0  0  0
    2.7243    1.5942   -3.1075 C   0  0  0  0  0  0  0  0  0  0  0  0
    3.0220    2.8713   -3.5833 C   0  0  0  0  0  0  0  0  0  0  0  0
    3.4105    2.8624   -4.8840 O   0  0  0  0  0  0  0  0  0  0  0  0
    3.7605    4.0974   -5.4923 C   0  0  0  0  0  0  0  0  0  0  0  0
    2.8987    3.9832   -2.7205 C   0  0  0  0  0  0  0  0  0  0  0  0
    2.4849    3.7977   -1.4072 C   0  0  0  0  0  0  0  0  0  0  0  0
    2.2016    2.5152   -0.9362 C   0  0  0  0  0  0  0  0  0  0  0  0
    3.2004    5.1882   -3.2837 O   0  0  0  0  0  0  0  0  0  0  0  0
    3.2595    6.3267   -2.4316 C   0  0  0  0  0  0  0  0  0  0  0  0
    4.3610    6.2346   -1.4219 C   0  0  0  0  0  0  0  0  0  0  0  0
    5.4760    5.4339   -1.6702 C   0  0  0  0  0  0  0  0  0  0  0  0
    6.4879    5.3369   -0.7181 C   0  0  0  0  0  0  0  0  0  0  0  0
    6.3924    6.0496    0.4761 C   0  0  0  0  0  0  0  0  0  0  0  0
    5.2848    6.8612    0.7165 C   0  0  0  0  0  0  0  0  0  0  0  0
    4.2671    6.9540   -0.2300 C   0  0  0  0  0  0  0  0  0  0  0  0
    2.9438   -0.1728    1.1557 H   0  0  0  0  0  0  0  0  0  0  0  0
    3.0324   -2.1436    3.5147 H   0  0  0  0  0  0  0  0  0  0  0  0
    2.7510   -4.5869    3.6897 H   0  0  0  0  0  0  0  0  0  0  0  0
    0.7104   -5.6849    2.7808 H   0  0  0  0  0  0  0  0  0  0  0  0
   -1.0648   -4.3080    1.7219 H   0  0  0  0  0  0  0  0  0  0  0  0
   -0.8133   -1.8418    1.5818 H   0  0  0  0  0  0  0  0  0  0  0  0
    1.6893    1.1333    5.2901 H   0  0  0  0  0  0  0  0  0  0  0  0
    4.0866   -0.3013   -1.5398 H   0  0  0  0  0  0  0  0  0  0  0  0
    1.0651   -2.3542   -0.9942 H   0  0  0  0  0  0  0  0  0  0  0  0
    1.1385   -4.7482   -0.4571 H   0  0  0  0  0  0  0  0  0  0  0  0
    5.4405   -4.6809   -0.5351 H   0  0  0  0  0  0  0  0  0  0  0  0
    5.4002   -2.2560   -1.0572 H   0  0  0  0  0  0  0  0  0  0  0  0
    2.9910   -6.0962    1.9217 H   0  0  0  0  0  0  0  0  0  0  0  0
    3.4243   -6.9313   -1.9907 H   0  0  0  0  0  0  0  0  0  0  0  0
    3.5186   -8.1650   -0.8308 H   0  0  0  0  0  0  0  0  0  0  0  0
    2.8093    0.7473   -3.7881 H   0  0  0  0  0  0  0  0  0  0  0  0
    4.0208    3.7826   -6.5117 H   0  0  0  0  0  0  0  0  0  0  0  0
    4.6244    4.5484   -4.9937 H   0  0  0  0  0  0  0  0  0  0  0  0
    2.9058    4.7823   -5.5075 H   0  0  0  0  0  0  0  0  0  0  0  0
    2.3894    4.6437   -0.7288 H   0  0  0  0  0  0  0  0  0  0  0  0
    1.8877    2.3947    0.1024 H   0  0  0  0  0  0  0  0  0  0  0  0
    2.2651    6.5002   -1.9792 H   0  0  0  0  0  0  0  0  0  0  0  0
    3.4575    7.1276   -3.1785 H   0  0  0  0  0  0  0  0  0  0  0  0
    5.5484    4.8774   -2.6045 H   0  0  0  0  0  0  0  0  0  0  0  0
    7.3520    4.7018   -0.9066 H   0  0  0  0  0  0  0  0  0  0  0  0
    7.1818    5.9704    1.2211 H   0  0  0  0  0  0  0  0  0  0  0  0
    5.2125    7.4205    1.6473 H   0  0  0  0  0  0  0  0  0  0  0  0
    3.4031    7.5856   -0.0354 H   0  0  0  0  0  0  0  0  0  0  0  0
  1  2  2  0  0  0  0
  2  3  1  0  0  0  0
  3  4  1  0  0  0  0
  4  5  1  6  0  0  0
  4  6  1  0  0  0  0
  4 12  1  0  0  0  0
  6  7  2  0  0  0  0
  7  8  1  0  0  0  0
  7 44  1  0  0  0  0
  8 45  1  0  0  0  0
  9 46  1  0  0  0  0
  9  8  2  0  0  0  0
 10  9  1  0  0  0  0
 11 10  2  0  0  0  0
 11  6  1  0  0  0  0
 12 13  2  0  0  0  0
 12 14  1  0  0  0  0
 14 49  1  0  0  0  0
 15 16  1  6  0  0  0
 15 17  1  0  0  0  0
 15  2  1  0  0  0  0
 17 18  1  0  0  0  0
 18 23  2  0  0  0  0
 18 19  1  0  0  0  0
 19 20  2  0  0  0  0
 20 52  1  0  0  0  0
 20 21  1  0  0  0  0
 21 24  1  0  0  0  0
 22 53  1  0  0  0  0
 22 21  2  0  0  0  0
 23 22  1  0  0  0  0
 24 25  1  0  0  0  0
 25 55  1  0  0  0  0
 26 57  1  0  0  0  0
 26 24  2  0  0  0  0
 27 15  1  0  0  0  0
 27 34  2  0  0  0  0
 28 27  1  0  0  0  0
 29 28  2  0  0  0  0
 29 32  1  0  0  0  0
 30 29  1  0  0  0  0
 31 60  1  0  0  0  0
 31 30  1  0  0  0  0
 32 33  2  0  0  0  0
 33 34  1  0  0  0  0
 33 62  1  0  0  0  0
 34 63  1  0  0  0  0
 35 32  1  0  0  0  0
 35 36  1  0  0  0  0
 36 64  1  0  0  0  0
 36 37  1  0  0  0  0
 37 42  1  0  0  0  0
 38 37  2  0  0  0  0
 38 39  1  0  0  0  0
 39 40  2  0  0  0  0
 40 41  1  0  0  0  0
 40 68  1  0  0  0  0
 41 69  1  0  0  0  0
 42 70  1  0  0  0  0
 42 41  2  0  0  0  0
 43  3  1  0  0  0  0
 47 10  1  0  0  0  0
 48 11  1  0  0  0  0
 50 17  1  0  0  0  0
 51 19  1  0  0  0  0
 54 23  1  0  0  0  0
 56 26  1  0  0  0  0
 58 28  1  0  0  0  0
 59 31  1  0  0  0  0
 61 31  1  0  0  0  0
 65 36  1  0  0  0  0
 66 38  1  0  0  0  0
 67 39  1  0  0  0  0
M  RAD  1  25   2
M  END
$$$$
