rmsd134.gzmat
 OpenBabel08211713423D

 70 73  0  0  1  0  0  0  0  0999 V2000
    0.0000    0.0000    0.0000 O   0  0  0  0  0  0  0  0  0  0  0  0
    1.2117    0.0000    0.0000 C   0  0  0  0  0  0  0  0  0  0  0  0
    1.9395    0.0000    1.1771 N   0  0  0  0  0  0  0  0  0  0  0  0
    1.2453   -0.3445    2.4197 C   0  0  1  0  0  0  0  0  0  0  0  0
    0.1765    0.0358    2.3647 H   0  0  0  0  0  0  0  0  0  0  0  0
    1.2635   -1.8416    2.6303 C   0  0  0  0  0  0  0  0  0  0  0  0
    2.3624   -2.4869    3.1957 C   0  0  0  0  0  0  0  0  0  0  0  0
    2.3598   -3.8739    3.3270 C   0  0  0  0  0  0  0  0  0  0  0  0
    1.2702   -4.6168    2.8765 C   0  0  0  0  0  0  0  0  0  0  0  0
    0.1780   -3.9716    2.2978 C   0  0  0  0  0  0  0  0  0  0  0  0
    0.1728   -2.5845    2.1761 C   0  0  0  0  0  0  0  0  0  0  0  0
    1.9695    0.3625    3.5567 C   0  0  0  0  0  0  0  0  0  0  0  0
    3.1516    0.5116    3.7096 O   0  0  0  0  0  0  0  0  0  0  0  0
    1.0673    0.8251    4.4507 O   0  0  0  0  0  0  0  0  0  0  0  0
    2.0057   -0.0102   -1.3272 C   0  0  2  0  0  0  0  0  0  0  0  0
    1.3667   -0.5846   -2.0617 H   0  0  0  0  0  0  0  0  0  0  0  0
    3.3025   -0.6763   -1.1293 N   0  0  0  0  0  0  0  0  0  0  0  0
    3.3692   -2.0660   -1.0226 C   0  0  0  0  0  0  0  0  0  0  0  0
    2.2318   -2.8623   -0.8022 C   0  0  0  0  0  0  0  0  0  0  0  0
    2.3848   -4.2178   -0.5408 C   0  0  0  0  0  0  0  0  0  0  0  0
    3.6541   -4.7927   -0.5131 C   0  0  0  0  0  0  0  0  0  0  0  0
    4.7836   -4.0122   -0.7691 C   0  0  0  0  0  0  0  0  0  0  0  0
    4.6508   -2.6580   -1.0289 C   0  0  0  0  0  0  0  0  0  0  0  0
    3.8161   -6.2374   -0.2151 C   0  0  0  0  0  0  0  0  0  0  0  0
    4.1647   -7.1804   -1.0260 N   0  0  0  0  0  0  0  0  0  0  0  0
    3.5104   -6.5954    1.1040 N   0  0  0  0  0  0  0  0  0  0  0  0
    2.2437    1.3878   -1.8305 C   0  0  0  0  0  0  0  0  0  0  0  0
    2.0154    1.6572   -3.1834 C   0  0  0  0  0  0  0  0  0  0  0  0
    2.2633    2.9289   -3.6860 C   0  0  0  0  0  0  0  0  0  0  0  0
    2.1469    3.2744   -4.9981 O   0  0  0  0  0  0  0  0  0  0  0  0
    1.3051    2.4517   -5.7977 C   0  0  0  0  0  0  0  0  0  0  0  0
    2.7171    3.9511   -2.8243 C   0  0  0  0  0  0  0  0  0  0  0  0
    2.9508    3.6667   -1.4755 C   0  0  0  0  0  0  0  0  0  0  0  0
    2.7177    2.3858   -0.9841 C   0  0  0  0  0  0  0  0  0  0  0  0
    2.9834    5.2455   -3.1303 O   0  0  0  0  0  0  0  0  0  0  0  0
    2.7656    5.7250   -4.4500 C   0  0  0  0  0  0  0  0  0  0  0  0
    1.3191    5.7943   -4.8287 C   0  0  0  0  0  0  0  0  0  0  0  0
    0.3179    5.7089   -3.8621 C   0  0  0  0  0  0  0  0  0  0  0  0
   -1.0214    5.7463   -4.2444 C   0  0  0  0  0  0  0  0  0  0  0  0
   -1.3614    5.8901   -5.5878 C   0  0  0  0  0  0  0  0  0  0  0  0
   -0.3597    5.9959   -6.5516 C   0  0  0  0  0  0  0  0  0  0  0  0
    0.9798    5.9486   -6.1754 C   0  0  0  0  0  0  0  0  0  0  0  0
    2.9434   -0.1667    1.1550 H   0  0  0  0  0  0  0  0  0  0  0  0
    3.2303   -1.9162    3.5304 H   0  0  0  0  0  0  0  0  0  0  0  0
    3.2103   -4.3716    3.7869 H   0  0  0  0  0  0  0  0  0  0  0  0
    1.2714   -5.7021    2.9703 H   0  0  0  0  0  0  0  0  0  0  0  0
   -0.6692   -4.5530    1.9379 H   0  0  0  0  0  0  0  0  0  0  0  0
   -0.6758   -2.0779    1.7120 H   0  0  0  0  0  0  0  0  0  0  0  0
    1.4718    1.2824    5.2303 H   0  0  0  0  0  0  0  0  0  0  0  0
    4.0941   -0.1979   -1.5468 H   0  0  0  0  0  0  0  0  0  0  0  0
    1.2309   -2.4372   -0.8142 H   0  0  0  0  0  0  0  0  0  0  0  0
    1.5049   -4.8359   -0.3461 H   0  0  0  0  0  0  0  0  0  0  0  0
    5.7747   -4.4698   -0.7598 H   0  0  0  0  0  0  0  0  0  0  0  0
    5.5310   -2.0508   -1.2206 H   0  0  0  0  0  0  0  0  0  0  0  0
    4.2934   -6.9914   -2.0017 H   0  0  0  0  0  0  0  0  0  0  0  0
    3.5956   -5.8896    1.8066 H   0  0  0  0  0  0  0  0  0  0  0  0
    3.7438   -7.5299    1.3899 H   0  0  0  0  0  0  0  0  0  0  0  0
    1.6479    0.8703   -3.8388 H   0  0  0  0  0  0  0  0  0  0  0  0
    1.2122    3.0451   -6.7182 H   0  0  0  0  0  0  0  0  0  0  0  0
    0.3209    2.3166   -5.3381 H   0  0  0  0  0  0  0  0  0  0  0  0
    1.7925    1.4943   -6.0029 H   0  0  0  0  0  0  0  0  0  0  0  0
    3.3116    4.4591   -0.8195 H   0  0  0  0  0  0  0  0  0  0  0  0
    2.9028    2.1743    0.0710 H   0  0  0  0  0  0  0  0  0  0  0  0
    3.3687    5.1319   -5.1650 H   0  0  0  0  0  0  0  0  0  0  0  0
    3.2082    6.7439   -4.3604 H   0  0  0  0  0  0  0  0  0  0  0  0
    0.5816    5.6072   -2.8091 H   0  0  0  0  0  0  0  0  0  0  0  0
   -1.8015    5.6624   -3.4899 H   0  0  0  0  0  0  0  0  0  0  0  0
   -2.4067    5.9238   -5.8849 H   0  0  0  0  0  0  0  0  0  0  0  0
   -0.6246    6.1131   -7.5999 H   0  0  0  0  0  0  0  0  0  0  0  0
    1.7562    6.0284   -6.9320 H   0  0  0  0  0  0  0  0  0  0  0  0
  2  1  2  0  0  0  0
  2  3  1  0  0  0  0
  3  4  1  0  0  0  0
  4  5  1  6  0  0  0
  4  6  1  0  0  0  0
  4 12  1  0  0  0  0
  6  7  2  0  0  0  0
  7  8  1  0  0  0  0
  7 44  1  0  0  0  0
  8 45  1  0  0  0  0
  9 46  1  0  0  0  0
  9  8  2  0  0  0  0
 10  9  1  0  0  0  0
 11 10  2  0  0  0  0
 11  6  1  0  0  0  0
 12 13  2  0  0  0  0
 12 14  1  0  0  0  0
 14 49  1  0  0  0  0
 15 16  1  6  0  0  0
 15 17  1  0  0  0  0
 15  2  1  0  0  0  0
 17 18  1  0  0  0  0
 18 19  1  0  0  0  0
 19 20  2  0  0  0  0
 20 21  1  0  0  0  0
 20 52  1  0  0  0  0
 21 24  1  0  0  0  0
 22 53  1  0  0  0  0
 22 21  2  0  0  0  0
 23 18  2  0  0  0  0
 23 22  1  0  0  0  0
 24 26  2  0  0  0  0
 25 24  1  0  0  0  0
 26 57  1  0  0  0  0
 26 56  1  0  0  0  0
 27 15  1  0  0  0  0
 27 34  2  0  0  0  0
 28 27  1  0  0  0  0
 29 28  2  0  0  0  0
 29 32  1  0  0  0  0
 30 29  1  0  0  0  0
 31 60  1  0  0  0  0
 31 30  1  0  0  0  0
 32 33  2  0  0  0  0
 33 34  1  0  0  0  0
 33 62  1  0  0  0  0
 34 63  1  0  0  0  0
 35 32  1  0  0  0  0
 36 65  1  0  0  0  0
 36 35  1  0  0  0  0
 37 36  1  0  0  0  0
 37 38  2  0  0  0  0
 38 66  1  0  0  0  0
 39 38  1  0  0  0  0
 39 67  1  0  0  0  0
 40 39  2  0  0  0  0
 41 42  2  0  0  0  0
 41 40  1  0  0  0  0
 42 37  1  0  0  0  0
 43  3  1  0  0  0  0
 47 10  1  0  0  0  0
 48 11  1  0  0  0  0
 50 17  1  0  0  0  0
 51 19  1  0  0  0  0
 54 23  1  0  0  0  0
 55 25  1  0  0  0  0
 58 28  1  0  0  0  0
 59 31  1  0  0  0  0
 61 31  1  0  0  0  0
 64 36  1  0  0  0  0
 68 40  1  0  0  0  0
 69 41  1  0  0  0  0
 70 42  1  0  0  0  0
M  RAD  1  25   2
M  END
$$$$
