
     RDKit          3D

 70 73  0  0  0  0  0  0  0  0999 V2000
   -0.0660    0.0847    0.2788 O   0  0  0  0  0  0  0  0  0  0  0  0
    1.1401    0.0563    0.1196 C   0  0  0  0  0  0  0  0  0  0  0  0
    2.0541    0.1270    1.1215 N   0  0  0  0  0  0  0  0  0  0  0  0
    1.7114    0.0419    2.5165 C   0  0  1  0  0  0  0  0  0  0  0  0
    0.6403    0.2716    2.6083 H   0  0  0  0  0  0  0  0  0  0  0  0
    1.9758   -1.3558    3.0664 C   0  0  0  0  0  0  0  0  0  0  0  0
    3.2765   -1.8798    3.0305 C   0  0  0  0  0  0  0  0  0  0  0  0
    3.5231   -3.1873    3.4457 C   0  0  0  0  0  0  0  0  0  0  0  0
    2.4730   -3.9823    3.9169 C   0  0  0  0  0  0  0  0  0  0  0  0
    1.1766   -3.4639    3.9577 C   0  0  0  0  0  0  0  0  0  0  0  0
    0.9277   -2.1559    3.5289 C   0  0  0  0  0  0  0  0  0  0  0  0
    2.5030    1.0935    3.2858 C   0  0  0  0  0  0  0  0  0  0  0  0
    3.4341    1.7189    2.8359 O   0  0  0  0  0  0  0  0  0  0  0  0
    2.0608    1.2273    4.5417 O   0  0  0  0  0  0  0  0  0  0  0  0
    1.7888   -0.0377   -1.2821 C   0  0  2  0  0  0  0  0  0  0  0  0
    1.0433   -0.5570   -1.9093 H   0  0  0  0  0  0  0  0  0  0  0  0
    3.0520   -0.7528   -1.2165 N   0  0  0  0  0  0  0  0  0  0  0  0
    3.1573   -2.0717   -0.7971 C   0  0  0  0  0  0  0  0  0  0  0  0
    2.0409   -2.8040   -0.3434 C   0  0  0  0  0  0  0  0  0  0  0  0
    2.2038   -4.0840    0.1753 C   0  0  0  0  0  0  0  0  0  0  0  0
    3.4631   -4.6944    0.2519 C   0  0  0  0  0  0  0  0  0  0  0  0
    4.5687   -3.9738   -0.2344 C   0  0  0  0  0  0  0  0  0  0  0  0
    4.4239   -2.6898   -0.7466 C   0  0  0  0  0  0  0  0  0  0  0  0
    3.6159   -6.0457    0.8672 C   0  0  0  0  0  0  0  0  0  0  0  0
    2.8552   -6.5457    1.7729 N   0  0  0  0  0  0  0  0  0  0  0  0
    4.7178   -6.7659    0.4343 N   0  0  0  0  0  0  0  0  0  0  0  0
    2.0163    1.3526   -1.8481 C   0  0  0  0  0  0  0  0  0  0  0  0
    2.7537    2.2946   -1.1079 C   0  0  0  0  0  0  0  0  0  0  0  0
    2.9972    3.5703   -1.6171 C   0  0  0  0  0  0  0  0  0  0  0  0
    3.7050    4.5263   -0.9661 O   0  0  0  0  0  0  0  0  0  0  0  0
    4.2452    4.2290    0.3068 C   0  0  0  0  0  0  0  0  0  0  0  0
    2.4873    3.9232   -2.8926 C   0  0  0  0  0  0  0  0  0  0  0  0
    1.7624    2.9822   -3.6192 C   0  0  0  0  0  0  0  0  0  0  0  0
    1.5285    1.7001   -3.1077 C   0  0  0  0  0  0  0  0  0  0  0  0
    2.7523    5.1414   -3.4383 O   0  0  0  0  0  0  0  0  0  0  0  0
    2.1963    6.2916   -2.7964 C   0  0  0  0  0  0  0  0  0  0  0  0
    3.1346    7.4622   -2.9308 C   0  0  0  0  0  0  0  0  0  0  0  0
    4.5088    7.2906   -2.7084 C   0  0  0  0  0  0  0  0  0  0  0  0
    5.3765    8.3801   -2.7900 C   0  0  0  0  0  0  0  0  0  0  0  0
    4.8828    9.6548   -3.0894 C   0  0  0  0  0  0  0  0  0  0  0  0
    3.5156    9.8317   -3.3127 C   0  0  0  0  0  0  0  0  0  0  0  0
    2.6479    8.7378   -3.2389 C   0  0  0  0  0  0  0  0  0  0  0  0
    3.0231   -0.0220    0.8620 H   0  0  0  0  0  0  0  0  0  0  0  0
    4.1035   -1.2671    2.6608 H   0  0  0  0  0  0  0  0  0  0  0  0
    4.5346   -3.5950    3.3930 H   0  0  0  0  0  0  0  0  0  0  0  0
    2.6698   -5.0084    4.2336 H   0  0  0  0  0  0  0  0  0  0  0  0
    0.3509   -4.0825    4.3177 H   0  0  0  0  0  0  0  0  0  0  0  0
   -0.0894   -1.7569    3.5435 H   0  0  0  0  0  0  0  0  0  0  0  0
    2.6334    1.8771    4.9848 H   0  0  0  0  0  0  0  0  0  0  0  0
    3.7919   -0.3960   -1.8089 H   0  0  0  0  0  0  0  0  0  0  0  0
    1.0403   -2.3750   -0.3807 H   0  0  0  0  0  0  0  0  0  0  0  0
    1.3220   -4.6256    0.5237 H   0  0  0  0  0  0  0  0  0  0  0  0
    5.5648   -4.4163   -0.1722 H   0  0  0  0  0  0  0  0  0  0  0  0
    5.3032   -2.1357   -1.0866 H   0  0  0  0  0  0  0  0  0  0  0  0
    2.1597   -5.8586    2.0664 H   0  0  0  0  0  0  0  0  0  0  0  0
    4.9679   -6.6723   -0.5438 H   0  0  0  0  0  0  0  0  0  0  0  0
    4.7345   -7.7200    0.7816 H   0  0  0  0  0  0  0  0  0  0  0  0
    3.1184    2.0345   -0.1165 H   0  0  0  0  0  0  0  0  0  0  0  0
    4.7552    5.1401    0.6445 H   0  0  0  0  0  0  0  0  0  0  0  0
    4.9741    3.4019    0.2534 H   0  0  0  0  0  0  0  0  0  0  0  0
    3.4642    3.9525    1.0345 H   0  0  0  0  0  0  0  0  0  0  0  0
    1.3888    3.2772   -4.6014 H   0  0  0  0  0  0  0  0  0  0  0  0
    0.9559    0.9756   -3.6906 H   0  0  0  0  0  0  0  0  0  0  0  0
    2.0223    6.0742   -1.7300 H   0  0  0  0  0  0  0  0  0  0  0  0
    1.2194    6.5238   -3.2567 H   0  0  0  0  0  0  0  0  0  0  0  0
    4.8806    6.2922   -2.4748 H   0  0  0  0  0  0  0  0  0  0  0  0
    6.4464    8.2361   -2.6191 H   0  0  0  0  0  0  0  0  0  0  0  0
    5.5640   10.5068   -3.1533 H   0  0  0  0  0  0  0  0  0  0  0  0
    3.1227   10.8222   -3.5553 H   0  0  0  0  0  0  0  0  0  0  0  0
    1.5796    8.8772   -3.4276 H   0  0  0  0  0  0  0  0  0  0  0  0
  1  2  2  0
  2  3  1  0
  2 15  1  0
  3  4  1  0
  3 43  1  0
  4  5  1  6
  4  6  1  0
  4 12  1  0
  6  7  2  0
  6 11  1  0
  7  8  1  0
  7 44  1  0
  8  9  2  0
  8 45  1  0
  9 10  1  0
  9 46  1  0
 10 11  2  0
 10 47  1  0
 11 48  1  0
 12 13  2  0
 12 14  1  0
 14 49  1  0
 15 16  1  6
 15 17  1  0
 15 27  1  0
 17 18  1  0
 17 50  1  0
 18 19  2  0
 18 23  1  0
 19 20  1  0
 19 51  1  0
 20 21  2  0
 20 52  1  0
 21 22  1  0
 21 24  1  0
 22 23  2  0
 22 53  1  0
 23 54  1  0
 24 25  2  0
 24 26  1  0
 25 55  1  0
 26 56  1  0
 26 57  1  0
 27 28  2  0
 27 34  1  0
 28 29  1  0
 28 58  1  0
 29 30  1  0
 29 32  2  0
 30 31  1  0
 31 59  1  0
 31 60  1  0
 31 61  1  0
 32 33  1  0
 32 35  1  0
 33 34  2  0
 33 62  1  0
 34 63  1  0
 35 36  1  0
 36 37  1  0
 36 64  1  0
 36 65  1  0
 37 38  2  0
 37 42  1  0
 38 39  1  0
 38 66  1  0
 39 40  2  0
 39 67  1  0
 40 41  1  0
 40 68  1  0
 41 42  2  0
 41 69  1  0
 42 70  1  0
M  END

