70
rmsd243.gzmat
O          0.00000        0.00000        0.00000
C          1.21110        0.00000        0.00000
N          1.94970        0.00000        1.16470
C          1.29980       -0.26450        2.44360
H          0.17620       -0.15680        2.32740
C          1.66850       -1.63730        2.95890
C          3.00080       -1.94870        3.23860
C          3.33530       -3.22180        3.69150
C          2.34000       -4.18060        3.87440
C          1.01260       -3.87230        3.58320
C          0.67460       -2.60120        3.12170
C          1.81350        0.77750        3.43500
O          2.94040        1.16330        3.58550
O          0.78940        1.23160        4.19130
C          2.01480        0.00050       -1.32490
H          1.34260       -0.45530       -2.10850
N          3.24220       -0.79360       -1.15980
C          3.16380       -2.17380       -0.95990
C          4.38020       -2.87840       -0.82700
C          4.36290       -4.21350       -0.45710
C          3.14920       -4.86790       -0.23420
C          1.94560       -4.18560       -0.40970
C          1.94310       -2.84690       -0.77720
C          3.14840       -6.28950        0.18780
N          3.72570       -7.28930       -0.39420
N          2.38520       -6.55600        1.33290
C          2.36190        1.42040       -1.68700
C          1.68210        2.02540       -2.75480
C          1.98750        3.32880       -3.10850
O          1.41980        4.03980       -4.11850
C          0.31000        3.43710       -4.77210
C          2.99670        4.04020       -2.39840
C          3.65410        3.43390       -1.34030
C          3.32840        2.12200       -0.98050
O          3.20690        5.30060       -2.86140
C          4.24430        6.06220       -2.25150
C          5.60380        5.51110       -2.55130
C          5.82640        4.82140       -3.74350
C          7.08940        4.30370       -4.02080
C          8.13240        4.48400       -3.11350
C          7.91080        5.18170       -1.92710
C          6.64680        5.69370       -1.64250
H          2.95890       -0.11050        1.13250
H          3.78080       -1.19470        3.11470
H          4.37450       -3.46450        3.90780
H          2.60060       -5.16550        4.25770
H          0.23520       -4.62260        3.71970
H         -0.36430       -2.36650        2.88910
H          1.05590        1.90500        4.86640
H          4.05220       -0.43380       -1.65360
H          5.32610       -2.37070       -0.99380
H          5.30190       -4.75590       -0.33110
H          0.99920       -4.71030       -0.25510
H          0.99070       -2.33900       -0.91130
H          4.18660       -7.16530       -1.27580
H          2.26730       -5.81180        1.99220
H          2.45860       -7.47840        1.72440
H          0.91570        1.46930       -3.28920
H          0.00340        4.22840       -5.47020
H         -0.49770        3.21960       -4.06610
H          0.61770        2.54260       -5.32130
H          4.42830        3.96040       -0.78540
H          3.84170        1.66550       -0.13370
H          4.04210        6.17340       -1.17040
H          4.08710        7.04650       -2.74860
H          5.00770        4.68360       -4.45160
H          7.26110        3.75920       -4.94740
H          9.11910        4.08080       -3.33130
H          8.72580        5.32450       -1.22030
H          6.47860        6.23330       -0.71290
