70
rmsd127.gzmat
O          0.00000        0.00000        0.00000
C          1.20920        0.00000        0.00000
N          1.94340        0.00000        1.17410
C          1.24540       -0.30250        2.42510
H          0.22310        0.19150        2.39280
C          1.11340       -1.79370        2.63860
C          2.24560       -2.61010        2.61450
C          2.10840       -3.98570        2.76990
C          0.84680       -4.54720        2.95990
C         -0.28150       -3.72980        2.98990
C         -0.15030       -2.35230        2.82290
C          2.01680        0.28700        3.59910
O          1.56810        0.82800        4.56930
O          3.35400        0.10250        3.44370
C          2.05370       -0.00560       -1.29500
H          2.87480        0.76090       -1.21700
N          1.23210        0.30320       -2.46390
C          0.73320        1.59970       -2.63270
C          1.31150        2.72140       -2.01120
C          0.84000        3.99290       -2.31070
C         -0.20300        4.16510       -3.21990
C         -0.78430        3.05360       -3.83580
C         -0.32960        1.77780       -3.54670
C         -0.68920        5.52570       -3.55220
N         -0.71070        6.09130       -4.71440
N         -1.11710        6.28590       -2.45390
C          2.63510       -1.39280       -1.43870
C          1.82720       -2.51070       -1.20440
C          2.36430       -3.78690       -1.31020
O          1.67280       -4.93770       -1.09800
C          0.36860       -4.81020       -0.54380
C          3.72080       -3.95010       -1.67370
C          4.51660       -2.82560       -1.90010
C          3.97150       -1.54800       -1.78710
O          4.38250       -5.11080       -1.91450
C          3.85340       -6.33880       -1.43400
C          3.96060       -6.46450        0.05330
C          4.94880       -5.76510        0.74710
C          5.08360       -5.93420        2.12290
C          4.23330       -6.80220        2.80710
C          3.23740       -7.48970        2.11520
C          3.09780       -7.32080        0.73950
H          2.94330       -0.16380        1.17130
H          3.23660       -2.17660        2.47720
H          2.99050       -4.62640        2.73690
H          0.74810       -5.62380        3.08640
H         -1.26640       -4.16570        3.14680
H         -1.03690       -1.71780        2.83250
H          3.89400        0.46260        4.19050
H          0.60690       -0.45530       -2.72950
H          2.11950        2.61040       -1.29590
H          1.28680        4.86690       -1.83090
H         -1.60460        3.19230       -4.54230
H         -0.78900        0.91460       -4.02070
H         -0.30870        5.63150       -5.50970
H         -1.50980        5.79480       -1.67690
H         -1.54670        7.17200       -2.65940
H          0.77930       -2.37250       -0.93600
H          0.09100       -5.85790       -0.36990
H         -0.31230       -4.34250       -1.26140
H          0.39160       -4.26090        0.40560
H          5.56230       -2.96150       -2.17430
H          4.59860       -0.67910       -1.98300
H          4.53820       -7.05750       -1.94220
H          2.83100       -6.50030       -1.82490
H          5.61510       -5.09120        0.20810
H          5.85820       -5.39260        2.66260
H          4.34720       -6.94260        3.87990
H          2.57040       -8.16390        2.64860
H          2.31830       -7.85700        0.20270
