
     RDKit          3D

 70 73  0  0  0  0  0  0  0  0999 V2000
    0.2652    0.0014    0.0114 O   0  0  0  0  0  0  0  0  0  0  0  0
    1.4808   -0.0338    0.1184 C   0  0  0  0  0  0  0  0  0  0  0  0
    2.1417   -0.0387    1.2993 N   0  0  0  0  0  0  0  0  0  0  0  0
    1.4459   -0.2175    2.5529 C   0  0  1  0  0  0  0  0  0  0  0  0
    0.4957    0.3307    2.5001 H   0  0  0  0  0  0  0  0  0  0  0  0
    1.1401   -1.6899    2.8281 C   0  0  0  0  0  0  0  0  0  0  0  0
    2.1239   -2.5449    3.3417 C   0  0  0  0  0  0  0  0  0  0  0  0
    1.8455   -3.8979    3.5454 C   0  0  0  0  0  0  0  0  0  0  0  0
    0.5856   -4.4102    3.2207 C   0  0  0  0  0  0  0  0  0  0  0  0
   -0.3883   -3.5669    2.6776 C   0  0  0  0  0  0  0  0  0  0  0  0
   -0.1137   -2.2112    2.4843 C   0  0  0  0  0  0  0  0  0  0  0  0
    2.2987    0.3669    3.6654 C   0  0  0  0  0  0  0  0  0  0  0  0
    3.4945    0.5173    3.5965 O   0  0  0  0  0  0  0  0  0  0  0  0
    1.5758    0.6519    4.7554 O   0  0  0  0  0  0  0  0  0  0  0  0
    2.4008   -0.0543   -1.1250 C   0  0  2  0  0  0  0  0  0  0  0  0
    1.7857   -0.5280   -1.9115 H   0  0  0  0  0  0  0  0  0  0  0  0
    3.6166   -0.7917   -0.8604 N   0  0  0  0  0  0  0  0  0  0  0  0
    3.6007   -2.1554   -0.5809 C   0  0  0  0  0  0  0  0  0  0  0  0
    4.8226   -2.8442   -0.4297 C   0  0  0  0  0  0  0  0  0  0  0  0
    4.8418   -4.1868   -0.0772 C   0  0  0  0  0  0  0  0  0  0  0  0
    3.6508   -4.8996    0.1456 C   0  0  0  0  0  0  0  0  0  0  0  0
    2.4393   -4.2139   -0.0165 C   0  0  0  0  0  0  0  0  0  0  0  0
    2.4040   -2.8706   -0.3842 C   0  0  0  0  0  0  0  0  0  0  0  0
    3.6909   -6.3378    0.5465 C   0  0  0  0  0  0  0  0  0  0  0  0
    4.5986   -7.1863    0.2227 N   0  0  0  0  0  0  0  0  0  0  0  0
    2.6153   -6.7501    1.3106 N   0  0  0  0  0  0  0  0  0  0  0  0
    2.6924    1.3771   -1.5311 C   0  0  0  0  0  0  0  0  0  0  0  0
    1.7842    2.0353   -2.3786 C   0  0  0  0  0  0  0  0  0  0  0  0
    1.9704    3.3712   -2.7304 C   0  0  0  0  0  0  0  0  0  0  0  0
    1.1552    4.0742   -3.5491 O   0  0  0  0  0  0  0  0  0  0  0  0
    0.0045    3.4422   -4.0605 C   0  0  0  0  0  0  0  0  0  0  0  0
    3.0926    4.0791   -2.2215 C   0  0  0  0  0  0  0  0  0  0  0  0
    3.9902    3.4210   -1.3831 C   0  0  0  0  0  0  0  0  0  0  0  0
    3.7848    2.0802   -1.0278 C   0  0  0  0  0  0  0  0  0  0  0  0
    3.1886    5.3756   -2.6115 O   0  0  0  0  0  0  0  0  0  0  0  0
    4.3191    6.1304   -2.2251 C   0  0  0  0  0  0  0  0  0  0  0  0
    5.5941    5.7124   -2.9270 C   0  0  0  0  0  0  0  0  0  0  0  0
    5.5435    5.1537   -4.2106 C   0  0  0  0  0  0  0  0  0  0  0  0
    6.7209    4.7983   -4.8713 C   0  0  0  0  0  0  0  0  0  0  0  0
    7.9613    5.0016   -4.2589 C   0  0  0  0  0  0  0  0  0  0  0  0
    8.0178    5.5583   -2.9784 C   0  0  0  0  0  0  0  0  0  0  0  0
    6.8383    5.9066   -2.3149 C   0  0  0  0  0  0  0  0  0  0  0  0
    3.1506   -0.1594    1.2935 H   0  0  0  0  0  0  0  0  0  0  0  0
    3.1154   -2.1543    3.5829 H   0  0  0  0  0  0  0  0  0  0  0  0
    2.6172   -4.5523    3.9580 H   0  0  0  0  0  0  0  0  0  0  0  0
    0.3582   -5.4660    3.3900 H   0  0  0  0  0  0  0  0  0  0  0  0
   -1.3695   -3.9654    2.4093 H   0  0  0  0  0  0  0  0  0  0  0  0
   -0.8635   -1.5501    2.0458 H   0  0  0  0  0  0  0  0  0  0  0  0
    2.1948    0.9609    5.4398 H   0  0  0  0  0  0  0  0  0  0  0  0
    4.4350   -0.4565   -1.3559 H   0  0  0  0  0  0  0  0  0  0  0  0
    5.7619   -2.3018   -0.5676 H   0  0  0  0  0  0  0  0  0  0  0  0
    5.8013   -4.6914    0.0589 H   0  0  0  0  0  0  0  0  0  0  0  0
    1.4977   -4.7435    0.1341 H   0  0  0  0  0  0  0  0  0  0  0  0
    1.4354   -2.3886   -0.5070 H   0  0  0  0  0  0  0  0  0  0  0  0
    5.2591   -6.7649   -0.4328 H   0  0  0  0  0  0  0  0  0  0  0  0
    2.1937   -6.0681    1.9293 H   0  0  0  0  0  0  0  0  0  0  0  0
    2.7048   -7.6901    1.6816 H   0  0  0  0  0  0  0  0  0  0  0  0
    0.9210    1.4845   -2.7493 H   0  0  0  0  0  0  0  0  0  0  0  0
   -0.5139    4.1882   -4.6769 H   0  0  0  0  0  0  0  0  0  0  0  0
   -0.6712    3.1075   -3.2532 H   0  0  0  0  0  0  0  0  0  0  0  0
    0.2607    2.5709   -4.6902 H   0  0  0  0  0  0  0  0  0  0  0  0
    4.8665    3.9420   -1.0017 H   0  0  0  0  0  0  0  0  0  0  0  0
    4.4891    1.5991   -0.3473 H   0  0  0  0  0  0  0  0  0  0  0  0
    4.4551    6.1068   -1.1284 H   0  0  0  0  0  0  0  0  0  0  0  0
    4.0635    7.1669   -2.4973 H   0  0  0  0  0  0  0  0  0  0  0  0
    4.5712    4.9921   -4.6804 H   0  0  0  0  0  0  0  0  0  0  0  0
    6.6703    4.3589   -5.8706 H   0  0  0  0  0  0  0  0  0  0  0  0
    8.8820    4.7224   -4.7768 H   0  0  0  0  0  0  0  0  0  0  0  0
    8.9829    5.7143   -2.4902 H   0  0  0  0  0  0  0  0  0  0  0  0
    6.8861    6.3306   -1.3073 H   0  0  0  0  0  0  0  0  0  0  0  0
  1  2  2  0
  2  3  1  0
  2 15  1  0
  3  4  1  0
  3 43  1  0
  4  5  1  6
  4  6  1  0
  4 12  1  0
  6  7  2  0
  6 11  1  0
  7  8  1  0
  7 44  1  0
  8  9  2  0
  8 45  1  0
  9 10  1  0
  9 46  1  0
 10 11  2  0
 10 47  1  0
 11 48  1  0
 12 13  2  0
 12 14  1  0
 14 49  1  0
 15 16  1  6
 15 17  1  0
 15 27  1  0
 17 18  1  0
 17 50  1  0
 18 19  2  0
 18 23  1  0
 19 20  1  0
 19 51  1  0
 20 21  2  0
 20 52  1  0
 21 22  1  0
 21 24  1  0
 22 23  2  0
 22 53  1  0
 23 54  1  0
 24 25  2  0
 24 26  1  0
 25 55  1  0
 26 56  1  0
 26 57  1  0
 27 28  2  0
 27 34  1  0
 28 29  1  0
 28 58  1  0
 29 30  1  0
 29 32  2  0
 30 31  1  0
 31 59  1  0
 31 60  1  0
 31 61  1  0
 32 33  1  0
 32 35  1  0
 33 34  2  0
 33 62  1  0
 34 63  1  0
 35 36  1  0
 36 37  1  0
 36 64  1  0
 36 65  1  0
 37 38  2  0
 37 42  1  0
 38 39  1  0
 38 66  1  0
 39 40  2  0
 39 67  1  0
 40 41  1  0
 40 68  1  0
 41 42  2  0
 41 69  1  0
 42 70  1  0
M  END

