
     RDKit          3D

 70 73  0  0  0  0  0  0  0  0999 V2000
    0.1906    0.2731    0.2163 O   0  0  0  0  0  0  0  0  0  0  0  0
    1.4059    0.1881    0.2380 C   0  0  0  0  0  0  0  0  0  0  0  0
    2.1456    0.0742    1.3729 N   0  0  0  0  0  0  0  0  0  0  0  0
    1.5148   -0.1981    2.6498 C   0  0  1  0  0  0  0  0  0  0  0  0
    0.5410    0.3070    2.6460 H   0  0  0  0  0  0  0  0  0  0  0  0
    1.2791   -1.6938    2.8522 C   0  0  0  0  0  0  0  0  0  0  0  0
    0.0441   -2.2442    2.4823 C   0  0  0  0  0  0  0  0  0  0  0  0
   -0.1796   -3.6170    2.6026 C   0  0  0  0  0  0  0  0  0  0  0  0
    0.8263   -4.4516    3.0993 C   0  0  0  0  0  0  0  0  0  0  0  0
    2.0660   -3.9103    3.4519 C   0  0  0  0  0  0  0  0  0  0  0  0
    2.2932   -2.5381    3.3224 C   0  0  0  0  0  0  0  0  0  0  0  0
    2.3095    0.3938    3.8038 C   0  0  0  0  0  0  0  0  0  0  0  0
    1.8394    0.7436    4.8523 O   0  0  0  0  0  0  0  0  0  0  0  0
    3.6356    0.4458    3.5381 O   0  0  0  0  0  0  0  0  0  0  0  0
    2.2433    0.2222   -1.0607 C   0  0  2  0  0  0  0  0  0  0  0  0
    1.5886   -0.2326   -1.8246 H   0  0  0  0  0  0  0  0  0  0  0  0
    3.4888   -0.5067   -0.9029 N   0  0  0  0  0  0  0  0  0  0  0  0
    3.5202   -1.8871   -0.7294 C   0  0  0  0  0  0  0  0  0  0  0  0
    4.7609   -2.5587   -0.7273 C   0  0  0  0  0  0  0  0  0  0  0  0
    4.8296   -3.9209   -0.4680 C   0  0  0  0  0  0  0  0  0  0  0  0
    3.6724   -4.6704   -0.1950 C   0  0  0  0  0  0  0  0  0  0  0  0
    2.4407   -4.0017   -0.2129 C   0  0  0  0  0  0  0  0  0  0  0  0
    2.3544   -2.6384   -0.4861 C   0  0  0  0  0  0  0  0  0  0  0  0
    3.7681   -6.1295    0.1096 C   0  0  0  0  0  0  0  0  0  0  0  0
    4.6502   -6.9401   -0.3522 N   0  0  0  0  0  0  0  0  0  0  0  0
    2.7764   -6.6050    0.9469 N   0  0  0  0  0  0  0  0  0  0  0  0
    2.5200    1.6585   -1.4570 C   0  0  0  0  0  0  0  0  0  0  0  0
    1.9647    2.1888   -2.6266 C   0  0  0  0  0  0  0  0  0  0  0  0
    2.2161    3.5057   -3.0133 C   0  0  0  0  0  0  0  0  0  0  0  0
    1.7376    3.9465   -4.2122 O   0  0  0  0  0  0  0  0  0  0  0  0
    0.7620    4.9809   -4.1734 C   0  0  0  0  0  0  0  0  0  0  0  0
    3.0327    4.3261   -2.2059 C   0  0  0  0  0  0  0  0  0  0  0  0
    3.5881    3.7990   -1.0357 C   0  0  0  0  0  0  0  0  0  0  0  0
    3.3289    2.4799   -0.6614 C   0  0  0  0  0  0  0  0  0  0  0  0
    3.2326    5.6043   -2.6359 O   0  0  0  0  0  0  0  0  0  0  0  0
    4.4920    6.2144   -2.3969 C   0  0  0  0  0  0  0  0  0  0  0  0
    5.6333    5.4785   -3.0628 C   0  0  0  0  0  0  0  0  0  0  0  0
    6.9185    5.5107   -2.5093 C   0  0  0  0  0  0  0  0  0  0  0  0
    7.9813    4.8634   -3.1452 C   0  0  0  0  0  0  0  0  0  0  0  0
    7.7625    4.1657   -4.3359 C   0  0  0  0  0  0  0  0  0  0  0  0
    6.4777    4.1205   -4.8865 C   0  0  0  0  0  0  0  0  0  0  0  0
    5.4177    4.7748   -4.2564 C   0  0  0  0  0  0  0  0  0  0  0  0
    3.1276   -0.1581    1.2598 H   0  0  0  0  0  0  0  0  0  0  0  0
   -0.7331   -1.5886    2.0849 H   0  0  0  0  0  0  0  0  0  0  0  0
   -1.1468   -4.0363    2.3158 H   0  0  0  0  0  0  0  0  0  0  0  0
    0.6385   -5.5224    3.2127 H   0  0  0  0  0  0  0  0  0  0  0  0
    2.8611   -4.5562    3.8322 H   0  0  0  0  0  0  0  0  0  0  0  0
    3.2678   -2.1244    3.5907 H   0  0  0  0  0  0  0  0  0  0  0  0
    4.0685    0.8065    4.3313 H   0  0  0  0  0  0  0  0  0  0  0  0
    4.2840   -0.1013   -1.3828 H   0  0  0  0  0  0  0  0  0  0  0  0
    5.6771   -1.9898   -0.9083 H   0  0  0  0  0  0  0  0  0  0  0  0
    5.8043   -4.4142   -0.4468 H   0  0  0  0  0  0  0  0  0  0  0  0
    1.5236   -4.5597   -0.0196 H   0  0  0  0  0  0  0  0  0  0  0  0
    1.3720   -2.1686   -0.4951 H   0  0  0  0  0  0  0  0  0  0  0  0
    5.2382   -6.4679   -1.0415 H   0  0  0  0  0  0  0  0  0  0  0  0
    2.4128   -5.9687    1.6462 H   0  0  0  0  0  0  0  0  0  0  0  0
    2.9114   -7.5644    1.2483 H   0  0  0  0  0  0  0  0  0  0  0  0
    1.3379    1.5782   -3.2790 H   0  0  0  0  0  0  0  0  0  0  0  0
    0.4744    5.1803   -5.2147 H   0  0  0  0  0  0  0  0  0  0  0  0
    1.1638    5.9003   -3.7214 H   0  0  0  0  0  0  0  0  0  0  0  0
   -0.1305    4.6555   -3.6097 H   0  0  0  0  0  0  0  0  0  0  0  0
    4.2314    4.4195   -0.4115 H   0  0  0  0  0  0  0  0  0  0  0  0
    3.7556    2.0933    0.2658 H   0  0  0  0  0  0  0  0  0  0  0  0
    4.6839    6.3363   -1.3163 H   0  0  0  0  0  0  0  0  0  0  0  0
    4.3878    7.2267   -2.8184 H   0  0  0  0  0  0  0  0  0  0  0  0
    7.0908    6.0444   -1.5699 H   0  0  0  0  0  0  0  0  0  0  0  0
    8.9806    4.8964   -2.7043 H   0  0  0  0  0  0  0  0  0  0  0  0
    8.5905    3.6531   -4.8313 H   0  0  0  0  0  0  0  0  0  0  0  0
    6.2988    3.5699   -5.8133 H   0  0  0  0  0  0  0  0  0  0  0  0
    4.4108    4.7291   -4.6769 H   0  0  0  0  0  0  0  0  0  0  0  0
  1  2  2  0
  2  3  1  0
  2 15  1  0
  3  4  1  0
  3 43  1  0
  4  5  1  6
  4  6  1  0
  4 12  1  0
  6  7  2  0
  6 11  1  0
  7  8  1  0
  7 44  1  0
  8  9  2  0
  8 45  1  0
  9 10  1  0
  9 46  1  0
 10 11  2  0
 10 47  1  0
 11 48  1  0
 12 13  2  0
 12 14  1  0
 14 49  1  0
 15 16  1  6
 15 17  1  0
 15 27  1  0
 17 18  1  0
 17 50  1  0
 18 19  2  0
 18 23  1  0
 19 20  1  0
 19 51  1  0
 20 21  2  0
 20 52  1  0
 21 22  1  0
 21 24  1  0
 22 23  2  0
 22 53  1  0
 23 54  1  0
 24 25  2  0
 24 26  1  0
 25 55  1  0
 26 56  1  0
 26 57  1  0
 27 28  2  0
 27 34  1  0
 28 29  1  0
 28 58  1  0
 29 30  1  0
 29 32  2  0
 30 31  1  0
 31 59  1  0
 31 60  1  0
 31 61  1  0
 32 33  1  0
 32 35  1  0
 33 34  2  0
 33 62  1  0
 34 63  1  0
 35 36  1  0
 36 37  1  0
 36 64  1  0
 36 65  1  0
 37 38  2  0
 37 42  1  0
 38 39  1  0
 38 66  1  0
 39 40  2  0
 39 67  1  0
 40 41  1  0
 40 68  1  0
 41 42  2  0
 41 69  1  0
 42 70  1  0
M  END

