70

O         -0.07300        0.02730       -0.07690
C          1.13250        0.12910        0.05010
N          1.78760        0.06730        1.24030
C          1.13700       -0.21580        2.48590
H          0.05420       -0.11930        2.31290
C          1.42780       -1.61940        3.01650
C          2.70080       -2.18540        2.87230
C          2.96790       -3.46360        3.36720
C          1.96200       -4.19020        4.01100
C          0.68810       -3.63120        4.15560
C          0.42480       -2.35120        3.66330
C          1.54660        0.83940        3.51340
O          2.42590        1.65120        3.35160
O          0.82150        0.74950        4.63470
C          2.07250        0.36920       -1.15430
H          1.55850       -0.09550       -2.01360
N          3.38140       -0.21200       -0.91220
C          3.57830       -1.56610       -0.68690
C          2.50750       -2.48160       -0.66700
C          2.71990       -3.80570       -0.29260
C          3.99480       -4.27720        0.04940
C          5.06780       -3.37200       -0.01950
C          4.87020       -2.04450       -0.37850
C          4.21550       -5.68480        0.49650
N          5.28040       -6.37740        0.30760
N          3.13640       -6.25580        1.14510
C          2.21600        1.85520       -1.42570
C          2.64470        2.71730       -0.40290
C          2.81680        4.08400       -0.63410
O          3.17270        4.96720        0.33290
C          3.58580        4.46960        1.59010
C          2.60010        4.60160       -1.93530
C          2.16050        3.73840       -2.93920
C          1.95960        2.37820       -2.69340
O          2.76350        5.91210       -2.26500
C          3.90980        6.63130       -1.79450
C          5.19460        5.84700       -1.91060
C          5.52570        5.20430       -3.11260
C          6.70270        4.46270       -3.22020
C          7.56860        4.35740       -2.12640
C          7.24780        4.99550       -0.92580
C          6.06300        5.72960       -0.81910
H          2.79840        0.12900        1.21530
H          3.49360       -1.64730        2.34990
H          3.96310       -3.89350        3.23780
H          2.17060       -5.19030        4.39940
H         -0.10510       -4.19530        4.65180
H         -0.57070       -1.91590        3.77730
H          1.15340        1.42290        5.25340
H          4.17500        0.33240       -1.22800
H          1.49740       -2.16150       -0.92040
H          1.87300       -4.49370       -0.27130
H          6.07120       -3.71020        0.25050
H          5.71410       -1.34920       -0.38710
H          5.93510       -5.86420       -0.28570
H          2.55190       -5.64880        1.70900
H          3.32730       -7.17080        1.54030
H          2.80180        2.32660        0.60030
H          3.86640        5.34460        2.19120
H          4.46090        3.80420        1.48750
H          2.78480        3.91600        2.10610
H          1.99150        4.16500       -3.92950
H          1.61870        1.72260       -3.49750
H          3.75840        6.96130       -0.75780
H          3.94420        7.52120       -2.44230
H          4.84570        5.28030       -3.96420
H          6.94760        3.96470       -4.16160
H          8.49120        3.77800       -2.21090
H          7.91850        4.91620       -0.06670
H          5.80240        6.21240        0.12570
