rmsd227.gzmat
 OpenBabel08211713423D

 70 73  0  0  1  0  0  0  0  0999 V2000
    0.0000    0.0000    0.0000 O   0  0  0  0  0  0  0  0  0  0  0  0
    1.2101    0.0000    0.0000 C   0  0  0  0  0  0  0  0  0  0  0  0
    1.9497    0.0000    1.1645 N   0  0  0  0  0  0  0  0  0  0  0  0
    1.3153   -0.2024    2.4612 C   0  0  1  0  0  0  0  0  0  0  0  0
    0.1877   -0.1784    2.3454 H   0  0  0  0  0  0  0  0  0  0  0  0
    1.7819   -1.5060    3.0654 C   0  0  0  0  0  0  0  0  0  0  0  0
    3.1299   -1.6910    3.3803 C   0  0  0  0  0  0  0  0  0  0  0  0
    3.5630   -2.9156    3.8803 C   0  0  0  0  0  0  0  0  0  0  0  0
    2.6505   -3.9516    4.0746 C   0  0  0  0  0  0  0  0  0  0  0  0
    1.3057   -3.7646    3.7610 C   0  0  0  0  0  0  0  0  0  0  0  0
    0.8690   -2.5427    3.2525 C   0  0  0  0  0  0  0  0  0  0  0  0
    1.7550    0.9556    3.3555 C   0  0  0  0  0  0  0  0  0  0  0  0
    2.7878    1.5700    3.3219 O   0  0  0  0  0  0  0  0  0  0  0  0
    0.7879    1.2324    4.2569 O   0  0  0  0  0  0  0  0  0  0  0  0
    2.0256    0.0184   -1.3188 C   0  0  2  0  0  0  0  0  0  0  0  0
    1.3776   -0.4645   -2.1054 H   0  0  0  0  0  0  0  0  0  0  0  0
    3.2841   -0.7217   -1.1415 N   0  0  0  0  0  0  0  0  0  0  0  0
    3.2800   -2.0858   -0.8595 C   0  0  0  0  0  0  0  0  0  0  0  0
    2.0927   -2.8156   -0.6652 C   0  0  0  0  0  0  0  0  0  0  0  0
    2.1589   -4.1203   -0.1973 C   0  0  0  0  0  0  0  0  0  0  0  0
    3.3933   -4.7170    0.0611 C   0  0  0  0  0  0  0  0  0  0  0  0
    4.5751   -4.0133   -0.1829 C   0  0  0  0  0  0  0  0  0  0  0  0
    4.5298   -2.7098   -0.6501 C   0  0  0  0  0  0  0  0  0  0  0  0
    3.4355   -6.0795    0.6425 C   0  0  0  0  0  0  0  0  0  0  0  0
    2.8588   -6.4724    1.7316 N   0  0  0  0  0  0  0  0  0  0  0  0
    4.2390   -7.0040   -0.0401 N   0  0  0  0  0  0  0  0  0  0  0  0
    2.3412    1.4449   -1.6869 C   0  0  0  0  0  0  0  0  0  0  0  0
    3.0171    2.2669   -0.7790 C   0  0  0  0  0  0  0  0  0  0  0  0
    3.3001    3.5843   -1.1094 C   0  0  0  0  0  0  0  0  0  0  0  0
    3.9349    4.4675   -0.2895 O   0  0  0  0  0  0  0  0  0  0  0  0
    4.2382    4.0197    1.0271 C   0  0  0  0  0  0  0  0  0  0  0  0
    2.9270    4.0871   -2.3768 C   0  0  0  0  0  0  0  0  0  0  0  0
    2.2534    3.2574   -3.2771 C   0  0  0  0  0  0  0  0  0  0  0  0
    1.9604    1.9398   -2.9302 C   0  0  0  0  0  0  0  0  0  0  0  0
    3.1774    5.3170   -2.8838 O   0  0  0  0  0  0  0  0  0  0  0  0
    3.6463    6.3342   -1.9871 C   0  0  0  0  0  0  0  0  0  0  0  0
    3.6799    7.5714   -2.8319 C   0  0  0  0  0  0  0  0  0  0  0  0
    4.1281    7.4978   -4.1515 C   0  0  0  0  0  0  0  0  0  0  0  0
    4.1717    8.6506   -4.9326 C   0  0  0  0  0  0  0  0  0  0  0  0
    3.7770    9.8744   -4.3942 C   0  0  0  0  0  0  0  0  0  0  0  0
    3.3315    9.9452   -3.0750 C   0  0  0  0  0  0  0  0  0  0  0  0
    3.2776    8.7937   -2.2926 C   0  0  0  0  0  0  0  0  0  0  0  0
    2.9583   -0.1197    1.1309 H   0  0  0  0  0  0  0  0  0  0  0  0
    3.8452   -0.8795    3.2401 H   0  0  0  0  0  0  0  0  0  0  0  0
    4.6152   -3.0649    4.1185 H   0  0  0  0  0  0  0  0  0  0  0  0
    2.9918   -4.9079    4.4726 H   0  0  0  0  0  0  0  0  0  0  0  0
    0.5931   -4.5739    3.9151 H   0  0  0  0  0  0  0  0  0  0  0  0
   -0.1822   -2.4039    3.0001 H   0  0  0  0  0  0  0  0  0  0  0  0
    1.0177    1.9664    4.8808 H   0  0  0  0  0  0  0  0  0  0  0  0
    4.0898   -0.3262   -1.6083 H   0  0  0  0  0  0  0  0  0  0  0  0
    1.1195   -2.3733   -0.8669 H   0  0  0  0  0  0  0  0  0  0  0  0
    1.2372   -4.6809   -0.0273 H   0  0  0  0  0  0  0  0  0  0  0  0
    5.5373   -4.4950    0.0086 H   0  0  0  0  0  0  0  0  0  0  0  0
    5.4504   -2.1631   -0.8309 H   0  0  0  0  0  0  0  0  0  0  0  0
    2.3697   -5.8067    2.3040 H   0  0  0  0  0  0  0  0  0  0  0  0
    4.3202   -6.9025   -1.0311 H   0  0  0  0  0  0  0  0  0  0  0  0
    4.2033   -7.9553    0.2866 H   0  0  0  0  0  0  0  0  0  0  0  0
    3.3115    1.8719    0.1930 H   0  0  0  0  0  0  0  0  0  0  0  0
    4.6502    4.9268    1.4878 H   0  0  0  0  0  0  0  0  0  0  0  0
    4.9898    3.2252    1.0008 H   0  0  0  0  0  0  0  0  0  0  0  0
    3.3377    3.6938    1.5612 H   0  0  0  0  0  0  0  0  0  0  0  0
    1.9590    3.6576   -4.2473 H   0  0  0  0  0  0  0  0  0  0  0  0
    1.4257    1.3083   -3.6391 H   0  0  0  0  0  0  0  0  0  0  0  0
    4.6619    6.0608   -1.6340 H   0  0  0  0  0  0  0  0  0  0  0  0
    2.9558    6.4124   -1.1274 H   0  0  0  0  0  0  0  0  0  0  0  0
    4.4362    6.5392   -4.5693 H   0  0  0  0  0  0  0  0  0  0  0  0
    4.5146    8.5947   -5.9637 H   0  0  0  0  0  0  0  0  0  0  0  0
    3.8165   10.7743   -5.0042 H   0  0  0  0  0  0  0  0  0  0  0  0
    3.0216   10.9003   -2.6559 H   0  0  0  0  0  0  0  0  0  0  0  0
    2.9207    8.8513   -1.2665 H   0  0  0  0  0  0  0  0  0  0  0  0
  2  1  2  0  0  0  0
  2  3  1  0  0  0  0
  3  4  1  0  0  0  0
  4  5  1  6  0  0  0
  4  6  1  0  0  0  0
  4 12  1  0  0  0  0
  6 11  2  0  0  0  0
  6  7  1  0  0  0  0
  7  8  2  0  0  0  0
  8  9  1  0  0  0  0
  8 45  1  0  0  0  0
  9 46  1  0  0  0  0
 10 47  1  0  0  0  0
 10  9  2  0  0  0  0
 11 10  1  0  0  0  0
 12 14  1  0  0  0  0
 13 12  2  0  0  0  0
 14 49  1  0  0  0  0
 15 16  1  6  0  0  0
 15 17  1  0  0  0  0
 15  2  1  0  0  0  0
 17 18  1  0  0  0  0
 18 19  2  0  0  0  0
 18 23  1  0  0  0  0
 19 20  1  0  0  0  0
 20 52  1  0  0  0  0
 20 21  2  0  0  0  0
 21 24  1  0  0  0  0
 22 53  1  0  0  0  0
 22 21  1  0  0  0  0
 23 22  2  0  0  0  0
 24 25  1  0  0  0  0
 25 55  1  0  0  0  0
 26 57  1  0  0  0  0
 26 24  2  0  0  0  0
 27 15  1  0  0  0  0
 27 28  2  0  0  0  0
 28 58  1  0  0  0  0
 29 28  1  0  0  0  0
 29 30  1  0  0  0  0
 30 31  1  0  0  0  0
 31 59  1  0  0  0  0
 31 61  1  0  0  0  0
 32 29  2  0  0  0  0
 33 34  2  0  0  0  0
 33 32  1  0  0  0  0
 34 27  1  0  0  0  0
 35 32  1  0  0  0  0
 35 36  1  0  0  0  0
 36 64  1  0  0  0  0
 36 65  1  0  0  0  0
 37 42  1  0  0  0  0
 37 36  1  0  0  0  0
 38 37  2  0  0  0  0
 39 40  2  0  0  0  0
 39 38  1  0  0  0  0
 40 41  1  0  0  0  0
 41 69  1  0  0  0  0
 41 42  2  0  0  0  0
 42 70  1  0  0  0  0
 43  3  1  0  0  0  0
 44  7  1  0  0  0  0
 48 11  1  0  0  0  0
 50 17  1  0  0  0  0
 51 19  1  0  0  0  0
 54 23  1  0  0  0  0
 56 26  1  0  0  0  0
 60 31  1  0  0  0  0
 62 33  1  0  0  0  0
 63 34  1  0  0  0  0
 66 38  1  0  0  0  0
 67 39  1  0  0  0  0
 68 40  1  0  0  0  0
M  RAD  1  25   2
M  END
$$$$
