
     RDKit          3D

 70 73  0  0  0  0  0  0  0  0999 V2000
   -0.0451   -0.3437   -0.9928 O   0  0  0  0  0  0  0  0  0  0  0  0
    1.0259   -0.1702   -0.4375 C   0  0  0  0  0  0  0  0  0  0  0  0
    1.2034   -0.2029    0.9067 N   0  0  0  0  0  0  0  0  0  0  0  0
    0.1707   -0.6775    1.7990 C   0  0  1  0  0  0  0  0  0  0  0  0
   -0.7996   -0.3292    1.4202 H   0  0  0  0  0  0  0  0  0  0  0  0
    0.1461   -2.2031    1.8756 C   0  0  0  0  0  0  0  0  0  0  0  0
    1.1190   -2.8951    2.6102 C   0  0  0  0  0  0  0  0  0  0  0  0
    1.1319   -4.2903    2.6244 C   0  0  0  0  0  0  0  0  0  0  0  0
    0.1740   -5.0055    1.8985 C   0  0  0  0  0  0  0  0  0  0  0  0
   -0.7842   -4.3197    1.1470 C   0  0  0  0  0  0  0  0  0  0  0  0
   -0.7978   -2.9223    1.1337 C   0  0  0  0  0  0  0  0  0  0  0  0
    0.4159   -0.0784    3.1732 C   0  0  0  0  0  0  0  0  0  0  0  0
    1.4798    0.3555    3.5454 O   0  0  0  0  0  0  0  0  0  0  0  0
   -0.6761   -0.1282    3.9457 O   0  0  0  0  0  0  0  0  0  0  0  0
    2.3187    0.1253   -1.2346 C   0  0  2  0  0  0  0  0  0  0  0  0
    2.1637   -0.3733   -2.2074 H   0  0  0  0  0  0  0  0  0  0  0  0
    3.4841   -0.3841   -0.5370 N   0  0  0  0  0  0  0  0  0  0  0  0
    3.6846   -1.7410   -0.3198 C   0  0  0  0  0  0  0  0  0  0  0  0
    2.7133   -2.7041   -0.6620 C   0  0  0  0  0  0  0  0  0  0  0  0
    2.9083   -4.0430   -0.3395 C   0  0  0  0  0  0  0  0  0  0  0  0
    4.0666   -4.4819    0.3159 C   0  0  0  0  0  0  0  0  0  0  0  0
    5.0474   -3.5225    0.6254 C   0  0  0  0  0  0  0  0  0  0  0  0
    4.8631   -2.1795    0.3184 C   0  0  0  0  0  0  0  0  0  0  0  0
    4.2186   -5.9139    0.7087 C   0  0  0  0  0  0  0  0  0  0  0  0
    3.2569   -6.7122    1.0034 N   0  0  0  0  0  0  0  0  0  0  0  0
    5.5264   -6.3600    0.8044 N   0  0  0  0  0  0  0  0  0  0  0  0
    2.4598    1.6147   -1.4770 C   0  0  0  0  0  0  0  0  0  0  0  0
    2.4196    2.1242   -2.7796 C   0  0  0  0  0  0  0  0  0  0  0  0
    2.5665    3.4897   -3.0270 C   0  0  0  0  0  0  0  0  0  0  0  0
    2.6223    3.9266   -4.3185 O   0  0  0  0  0  0  0  0  0  0  0  0
    1.5621    4.7672   -4.7569 C   0  0  0  0  0  0  0  0  0  0  0  0
    2.7453    4.3788   -1.9462 C   0  0  0  0  0  0  0  0  0  0  0  0
    2.7842    3.8730   -0.6432 C   0  0  0  0  0  0  0  0  0  0  0  0
    2.6369    2.5051   -0.4098 C   0  0  0  0  0  0  0  0  0  0  0  0
    2.8751    5.7014   -2.2536 O   0  0  0  0  0  0  0  0  0  0  0  0
    3.7619    6.4946   -1.4788 C   0  0  0  0  0  0  0  0  0  0  0  0
    5.1931    6.0106   -1.5503 C   0  0  0  0  0  0  0  0  0  0  0  0
    5.6647    5.3705   -2.7053 C   0  0  0  0  0  0  0  0  0  0  0  0
    6.9938    4.9500   -2.7814 C   0  0  0  0  0  0  0  0  0  0  0  0
    7.8656    5.1680   -1.7099 C   0  0  0  0  0  0  0  0  0  0  0  0
    7.3991    5.8028   -0.5559 C   0  0  0  0  0  0  0  0  0  0  0  0
    6.0664    6.2154   -0.4758 C   0  0  0  0  0  0  0  0  0  0  0  0
    2.1529   -0.1710    1.2659 H   0  0  0  0  0  0  0  0  0  0  0  0
    1.8794   -2.3415    3.1670 H   0  0  0  0  0  0  0  0  0  0  0  0
    1.8990   -4.8246    3.1887 H   0  0  0  0  0  0  0  0  0  0  0  0
    0.1784   -6.0982    1.9168 H   0  0  0  0  0  0  0  0  0  0  0  0
   -1.5263   -4.8746    0.5681 H   0  0  0  0  0  0  0  0  0  0  0  0
   -1.5304   -2.3810    0.5317 H   0  0  0  0  0  0  0  0  0  0  0  0
   -0.4252    0.2112    4.8224 H   0  0  0  0  0  0  0  0  0  0  0  0
    4.3122    0.1975   -0.5830 H   0  0  0  0  0  0  0  0  0  0  0  0
    1.7927   -2.4161   -1.1675 H   0  0  0  0  0  0  0  0  0  0  0  0
    2.1358   -4.7657   -0.6085 H   0  0  0  0  0  0  0  0  0  0  0  0
    5.9527   -3.8337    1.1505 H   0  0  0  0  0  0  0  0  0  0  0  0
    5.6236   -1.4457    0.5991 H   0  0  0  0  0  0  0  0  0  0  0  0
    2.3695   -6.2083    0.9897 H   0  0  0  0  0  0  0  0  0  0  0  0
    6.1863   -5.9890    0.1301 H   0  0  0  0  0  0  0  0  0  0  0  0
    5.6008   -7.3603    0.9617 H   0  0  0  0  0  0  0  0  0  0  0  0
    2.2951    1.4626   -3.6387 H   0  0  0  0  0  0  0  0  0  0  0  0
    1.7553    4.9908   -5.8150 H   0  0  0  0  0  0  0  0  0  0  0  0
    1.5263    5.7063   -4.1842 H   0  0  0  0  0  0  0  0  0  0  0  0
    0.5906    4.2485   -4.6706 H   0  0  0  0  0  0  0  0  0  0  0  0
    2.9338    4.5493    0.1988 H   0  0  0  0  0  0  0  0  0  0  0  0
    2.6506    2.1356    0.6170 H   0  0  0  0  0  0  0  0  0  0  0  0
    3.4274    6.5674   -0.4289 H   0  0  0  0  0  0  0  0  0  0  0  0
    3.6738    7.5034   -1.9123 H   0  0  0  0  0  0  0  0  0  0  0  0
    4.9783    5.1876   -3.5349 H   0  0  0  0  0  0  0  0  0  0  0  0
    7.3505    4.4466   -3.6833 H   0  0  0  0  0  0  0  0  0  0  0  0
    8.9054    4.8381   -1.7721 H   0  0  0  0  0  0  0  0  0  0  0  0
    8.0717    5.9686    0.2892 H   0  0  0  0  0  0  0  0  0  0  0  0
    5.7009    6.6988    0.4351 H   0  0  0  0  0  0  0  0  0  0  0  0
  1  2  2  0
  2  3  1  0
  2 15  1  0
  3  4  1  0
  3 43  1  0
  4  5  1  6
  4  6  1  0
  4 12  1  0
  6  7  2  0
  6 11  1  0
  7  8  1  0
  7 44  1  0
  8  9  2  0
  8 45  1  0
  9 10  1  0
  9 46  1  0
 10 11  2  0
 10 47  1  0
 11 48  1  0
 12 13  2  0
 12 14  1  0
 14 49  1  0
 15 16  1  6
 15 17  1  0
 15 27  1  0
 17 18  1  0
 17 50  1  0
 18 19  2  0
 18 23  1  0
 19 20  1  0
 19 51  1  0
 20 21  2  0
 20 52  1  0
 21 22  1  0
 21 24  1  0
 22 23  2  0
 22 53  1  0
 23 54  1  0
 24 25  2  0
 24 26  1  0
 25 55  1  0
 26 56  1  0
 26 57  1  0
 27 28  2  0
 27 34  1  0
 28 29  1  0
 28 58  1  0
 29 30  1  0
 29 32  2  0
 30 31  1  0
 31 59  1  0
 31 60  1  0
 31 61  1  0
 32 33  1  0
 32 35  1  0
 33 34  2  0
 33 62  1  0
 34 63  1  0
 35 36  1  0
 36 37  1  0
 36 64  1  0
 36 65  1  0
 37 38  2  0
 37 42  1  0
 38 39  1  0
 38 66  1  0
 39 40  2  0
 39 67  1  0
 40 41  1  0
 40 68  1  0
 41 42  2  0
 41 69  1  0
 42 70  1  0
M  END

