70
rmsd40.gzmat
O          0.00000        0.00000        0.00000
C          1.21160        0.00000        0.00000
N          1.94370        0.00000        1.16570
C          1.27690       -0.11760        2.45260
H          0.15420        0.02390        2.30400
C          1.50440       -1.44510        3.14520
C          1.00000       -1.61660        4.43750
C          1.16380       -2.83250        5.09410
C          1.81970       -3.88750        4.46000
C          2.31360       -3.71940        3.16900
C          2.15920       -2.49940        2.51240
C          1.76880        0.99500        3.37770
O          1.14400        1.53400        4.25010
O          3.05930        1.32070        3.12740
C          2.00960        0.00630       -1.32600
H          1.34150       -0.47160       -2.10180
N          3.26070       -0.75440       -1.17350
C          3.23170       -2.15050       -1.17290
C          4.46580       -2.82950       -1.27440
C          4.50610       -4.20720       -1.13110
C          3.33120       -4.92310       -0.89460
C          2.10750       -4.25960       -0.81830
C          2.04740       -2.87960       -0.96370
C          3.38510       -6.39890       -0.74700
N          3.46070       -7.28170       -1.68620
N          3.28680       -6.85790        0.57310
C          2.32150        1.43010       -1.70660
C          1.71620        1.97330       -2.83980
C          2.01620        3.27980       -3.22940
O          1.38340        3.64470       -4.37410
C          1.38410        5.02190       -4.72610
C          2.93250        4.04200       -2.47210
C          3.51450        3.49760       -1.33240
C          3.20720        2.19340       -0.94970
O          3.16320        5.30120       -2.94170
C          4.21160        6.05350       -2.34090
C          5.56040        5.45350       -2.59100
C          6.59890        5.67730       -1.68600
C          7.85460        5.12170       -1.92110
C          8.07280        4.34060       -3.05510
C          7.03470        4.11970       -3.95880
C          5.77980        4.67970       -3.73040
H          2.95520       -0.06660        1.15660
H          0.47470       -0.79960        4.93660
H          0.77570       -2.96020        6.10310
H          1.94070       -4.84010        4.97110
H          2.81510       -4.54230        2.66490
H          2.54520       -2.39180        1.49710
H          3.40270        2.04270        3.71180
H          4.07450       -0.30920       -1.58850
H          5.38140       -2.27370       -1.45440
H          5.45870       -4.73420       -1.20270
H          1.19180       -4.82890       -0.63730
H          1.08080       -2.38170       -0.90220
H          3.42230       -7.00630       -2.64960
H          3.62880       -6.26340        1.29820
H          3.42300       -7.84250        0.72370
H          1.00240        1.39870       -3.43200
H          0.66430        5.04590       -5.55530
H          2.37900        5.32640       -5.06880
H          1.03870        5.64900       -3.89840
H          4.22070        4.07440       -0.73860
H          3.66440        1.78270       -0.04930
H          3.99160        6.20730       -1.26830
H          4.09440        7.02410       -2.87300
H          6.43310        6.28310       -0.79760
H          8.66570        5.29610       -1.21680
H          9.05330        3.90420       -3.23510
H          7.20320        3.51050       -4.84520
H          4.96680        4.50790       -4.43660
