rmsd127.gzmat
 OpenBabel08211713423D

 70 73  0  0  1  0  0  0  0  0999 V2000
    0.0000    0.0000    0.0000 O   0  0  0  0  0  0  0  0  0  0  0  0
    1.2092    0.0000    0.0000 C   0  0  0  0  0  0  0  0  0  0  0  0
    1.9434    0.0000    1.1741 N   0  0  0  0  0  0  0  0  0  0  0  0
    1.2454   -0.3025    2.4251 C   0  0  1  0  0  0  0  0  0  0  0  0
    0.2231    0.1915    2.3928 H   0  0  0  0  0  0  0  0  0  0  0  0
    1.1134   -1.7937    2.6386 C   0  0  0  0  0  0  0  0  0  0  0  0
    2.2456   -2.6101    2.6145 C   0  0  0  0  0  0  0  0  0  0  0  0
    2.1084   -3.9857    2.7699 C   0  0  0  0  0  0  0  0  0  0  0  0
    0.8468   -4.5472    2.9599 C   0  0  0  0  0  0  0  0  0  0  0  0
   -0.2815   -3.7298    2.9899 C   0  0  0  0  0  0  0  0  0  0  0  0
   -0.1503   -2.3523    2.8229 C   0  0  0  0  0  0  0  0  0  0  0  0
    2.0168    0.2870    3.5991 C   0  0  0  0  0  0  0  0  0  0  0  0
    1.5681    0.8280    4.5693 O   0  0  0  0  0  0  0  0  0  0  0  0
    3.3540    0.1025    3.4437 O   0  0  0  0  0  0  0  0  0  0  0  0
    2.0537   -0.0056   -1.2950 C   0  0  2  0  0  0  0  0  0  0  0  0
    2.8748    0.7609   -1.2170 H   0  0  0  0  0  0  0  0  0  0  0  0
    1.2321    0.3032   -2.4639 N   0  0  0  0  0  0  0  0  0  0  0  0
    0.7332    1.5997   -2.6327 C   0  0  0  0  0  0  0  0  0  0  0  0
    1.3115    2.7214   -2.0112 C   0  0  0  0  0  0  0  0  0  0  0  0
    0.8400    3.9929   -2.3107 C   0  0  0  0  0  0  0  0  0  0  0  0
   -0.2030    4.1651   -3.2199 C   0  0  0  0  0  0  0  0  0  0  0  0
   -0.7843    3.0536   -3.8358 C   0  0  0  0  0  0  0  0  0  0  0  0
   -0.3296    1.7778   -3.5467 C   0  0  0  0  0  0  0  0  0  0  0  0
   -0.6892    5.5257   -3.5522 C   0  0  0  0  0  0  0  0  0  0  0  0
   -0.7107    6.0913   -4.7144 N   0  0  0  0  0  0  0  0  0  0  0  0
   -1.1171    6.2859   -2.4539 N   0  0  0  0  0  0  0  0  0  0  0  0
    2.6351   -1.3928   -1.4387 C   0  0  0  0  0  0  0  0  0  0  0  0
    1.8272   -2.5107   -1.2044 C   0  0  0  0  0  0  0  0  0  0  0  0
    2.3643   -3.7869   -1.3102 C   0  0  0  0  0  0  0  0  0  0  0  0
    1.6728   -4.9377   -1.0980 O   0  0  0  0  0  0  0  0  0  0  0  0
    0.3686   -4.8102   -0.5438 C   0  0  0  0  0  0  0  0  0  0  0  0
    3.7208   -3.9501   -1.6737 C   0  0  0  0  0  0  0  0  0  0  0  0
    4.5166   -2.8256   -1.9001 C   0  0  0  0  0  0  0  0  0  0  0  0
    3.9715   -1.5480   -1.7871 C   0  0  0  0  0  0  0  0  0  0  0  0
    4.3825   -5.1108   -1.9145 O   0  0  0  0  0  0  0  0  0  0  0  0
    3.8534   -6.3388   -1.4340 C   0  0  0  0  0  0  0  0  0  0  0  0
    3.9606   -6.4645    0.0533 C   0  0  0  0  0  0  0  0  0  0  0  0
    4.9488   -5.7651    0.7471 C   0  0  0  0  0  0  0  0  0  0  0  0
    5.0836   -5.9342    2.1229 C   0  0  0  0  0  0  0  0  0  0  0  0
    4.2333   -6.8022    2.8071 C   0  0  0  0  0  0  0  0  0  0  0  0
    3.2374   -7.4897    2.1152 C   0  0  0  0  0  0  0  0  0  0  0  0
    3.0978   -7.3208    0.7395 C   0  0  0  0  0  0  0  0  0  0  0  0
    2.9433   -0.1638    1.1713 H   0  0  0  0  0  0  0  0  0  0  0  0
    3.2366   -2.1766    2.4772 H   0  0  0  0  0  0  0  0  0  0  0  0
    2.9905   -4.6264    2.7369 H   0  0  0  0  0  0  0  0  0  0  0  0
    0.7481   -5.6238    3.0864 H   0  0  0  0  0  0  0  0  0  0  0  0
   -1.2664   -4.1657    3.1468 H   0  0  0  0  0  0  0  0  0  0  0  0
   -1.0369   -1.7178    2.8325 H   0  0  0  0  0  0  0  0  0  0  0  0
    3.8940    0.4626    4.1905 H   0  0  0  0  0  0  0  0  0  0  0  0
    0.6069   -0.4553   -2.7295 H   0  0  0  0  0  0  0  0  0  0  0  0
    2.1195    2.6104   -1.2959 H   0  0  0  0  0  0  0  0  0  0  0  0
    1.2868    4.8669   -1.8309 H   0  0  0  0  0  0  0  0  0  0  0  0
   -1.6046    3.1923   -4.5423 H   0  0  0  0  0  0  0  0  0  0  0  0
   -0.7890    0.9146   -4.0207 H   0  0  0  0  0  0  0  0  0  0  0  0
   -0.3087    5.6315   -5.5097 H   0  0  0  0  0  0  0  0  0  0  0  0
   -1.5098    5.7948   -1.6769 H   0  0  0  0  0  0  0  0  0  0  0  0
   -1.5467    7.1720   -2.6594 H   0  0  0  0  0  0  0  0  0  0  0  0
    0.7793   -2.3725   -0.9360 H   0  0  0  0  0  0  0  0  0  0  0  0
    0.0910   -5.8579   -0.3699 H   0  0  0  0  0  0  0  0  0  0  0  0
   -0.3123   -4.3425   -1.2614 H   0  0  0  0  0  0  0  0  0  0  0  0
    0.3916   -4.2609    0.4056 H   0  0  0  0  0  0  0  0  0  0  0  0
    5.5623   -2.9615   -2.1743 H   0  0  0  0  0  0  0  0  0  0  0  0
    4.5986   -0.6791   -1.9830 H   0  0  0  0  0  0  0  0  0  0  0  0
    4.5382   -7.0575   -1.9422 H   0  0  0  0  0  0  0  0  0  0  0  0
    2.8310   -6.5003   -1.8249 H   0  0  0  0  0  0  0  0  0  0  0  0
    5.6151   -5.0912    0.2081 H   0  0  0  0  0  0  0  0  0  0  0  0
    5.8582   -5.3926    2.6626 H   0  0  0  0  0  0  0  0  0  0  0  0
    4.3472   -6.9426    3.8799 H   0  0  0  0  0  0  0  0  0  0  0  0
    2.5704   -8.1639    2.6486 H   0  0  0  0  0  0  0  0  0  0  0  0
    2.3183   -7.8570    0.2027 H   0  0  0  0  0  0  0  0  0  0  0  0
  1  2  2  0  0  0  0
  2  3  1  0  0  0  0
  3  4  1  0  0  0  0
  4  5  1  6  0  0  0
  4  6  1  0  0  0  0
  4 12  1  0  0  0  0
  6 11  1  0  0  0  0
  7  6  2  0  0  0  0
  7  8  1  0  0  0  0
  8  9  2  0  0  0  0
  9 10  1  0  0  0  0
  9 46  1  0  0  0  0
 10 47  1  0  0  0  0
 11 48  1  0  0  0  0
 11 10  2  0  0  0  0
 12 13  2  0  0  0  0
 14 12  1  0  0  0  0
 14 49  1  0  0  0  0
 15 16  1  1  0  0  0
 15  2  1  0  0  0  0
 17 15  1  0  0  0  0
 18 17  1  0  0  0  0
 18 19  2  0  0  0  0
 19 51  1  0  0  0  0
 20 19  1  0  0  0  0
 20 52  1  0  0  0  0
 21 20  2  0  0  0  0
 22 23  2  0  0  0  0
 22 21  1  0  0  0  0
 23 18  1  0  0  0  0
 24 21  1  0  0  0  0
 24 26  2  0  0  0  0
 25 24  1  0  0  0  0
 26 56  1  0  0  0  0
 27 15  1  0  0  0  0
 27 28  2  0  0  0  0
 28 58  1  0  0  0  0
 29 28  1  0  0  0  0
 29 30  1  0  0  0  0
 30 31  1  0  0  0  0
 31 59  1  0  0  0  0
 31 61  1  0  0  0  0
 32 29  2  0  0  0  0
 33 34  2  0  0  0  0
 33 32  1  0  0  0  0
 34 27  1  0  0  0  0
 35 32  1  0  0  0  0
 35 36  1  0  0  0  0
 36 37  1  0  0  0  0
 37 42  2  0  0  0  0
 37 38  1  0  0  0  0
 38 39  2  0  0  0  0
 39 67  1  0  0  0  0
 39 40  1  0  0  0  0
 40 68  1  0  0  0  0
 41 69  1  0  0  0  0
 41 40  2  0  0  0  0
 42 41  1  0  0  0  0
 43  3  1  0  0  0  0
 44  7  1  0  0  0  0
 45  8  1  0  0  0  0
 50 17  1  0  0  0  0
 53 22  1  0  0  0  0
 54 23  1  0  0  0  0
 55 25  1  0  0  0  0
 57 26  1  0  0  0  0
 60 31  1  0  0  0  0
 62 33  1  0  0  0  0
 63 34  1  0  0  0  0
 64 36  1  0  0  0  0
 65 36  1  0  0  0  0
 66 38  1  0  0  0  0
 70 42  1  0  0  0  0
M  RAD  1  25   2
M  END
$$$$
