
     RDKit          3D

 70 73  0  0  0  0  0  0  0  0999 V2000
    0.5698   -0.4107   -2.2962 O   0  0  0  0  0  0  0  0  0  0  0  0
    1.6515   -0.1923   -1.7728 C   0  0  0  0  0  0  0  0  0  0  0  0
    1.8092    0.2296   -0.4989 N   0  0  0  0  0  0  0  0  0  0  0  0
    0.7006    0.2914    0.4230 C   0  0  1  0  0  0  0  0  0  0  0  0
   -0.1882    0.6227   -0.1302 H   0  0  0  0  0  0  0  0  0  0  0  0
    0.4074   -1.0744    1.0432 C   0  0  0  0  0  0  0  0  0  0  0  0
    1.1834   -1.5640    2.1018 C   0  0  0  0  0  0  0  0  0  0  0  0
    0.9428   -2.8375    2.6217 C   0  0  0  0  0  0  0  0  0  0  0  0
   -0.0657   -3.6376    2.0757 C   0  0  0  0  0  0  0  0  0  0  0  0
   -0.8222   -3.1640    0.9995 C   0  0  0  0  0  0  0  0  0  0  0  0
   -0.5885   -1.8863    0.4863 C   0  0  0  0  0  0  0  0  0  0  0  0
    1.0269    1.3131    1.4973 C   0  0  0  0  0  0  0  0  0  0  0  0
    2.1442    1.6565    1.7946 O   0  0  0  0  0  0  0  0  0  0  0  0
   -0.0760    1.7617    2.1164 O   0  0  0  0  0  0  0  0  0  0  0  0
    2.9795   -0.3292   -2.5609 C   0  0  2  0  0  0  0  0  0  0  0  0
    2.7594   -1.0587   -3.3614 H   0  0  0  0  0  0  0  0  0  0  0  0
    4.0588   -0.7503   -1.6997 N   0  0  0  0  0  0  0  0  0  0  0  0
    4.0376   -1.9704   -1.0301 C   0  0  0  0  0  0  0  0  0  0  0  0
    2.9132   -2.8177   -1.0442 C   0  0  0  0  0  0  0  0  0  0  0  0
    2.8970   -3.9788   -0.2745 C   0  0  0  0  0  0  0  0  0  0  0  0
    3.9958   -4.3553    0.5098 C   0  0  0  0  0  0  0  0  0  0  0  0
    5.1278   -3.5221    0.4943 C   0  0  0  0  0  0  0  0  0  0  0  0
    5.1520   -2.3532   -0.2545 C   0  0  0  0  0  0  0  0  0  0  0  0
    3.9762   -5.5945    1.3433 C   0  0  0  0  0  0  0  0  0  0  0  0
    4.9939   -6.3159    1.6470 N   0  0  0  0  0  0  0  0  0  0  0  0
    2.7196   -5.9723    1.7783 N   0  0  0  0  0  0  0  0  0  0  0  0
    3.2299    1.0359   -3.1695 C   0  0  0  0  0  0  0  0  0  0  0  0
    2.5541    1.3633   -4.3538 C   0  0  0  0  0  0  0  0  0  0  0  0
    2.5270    2.6803   -4.8165 C   0  0  0  0  0  0  0  0  0  0  0  0
    1.8493    3.0877   -5.9203 O   0  0  0  0  0  0  0  0  0  0  0  0
    1.1398    2.1283   -6.6731 C   0  0  0  0  0  0  0  0  0  0  0  0
    3.1788    3.6931   -4.0746 C   0  0  0  0  0  0  0  0  0  0  0  0
    3.9056    3.3442   -2.9406 C   0  0  0  0  0  0  0  0  0  0  0  0
    3.9343    2.0258   -2.4801 C   0  0  0  0  0  0  0  0  0  0  0  0
    3.0466    5.0113   -4.4008 O   0  0  0  0  0  0  0  0  0  0  0  0
    1.7069    5.5467   -4.2884 C   0  0  0  0  0  0  0  0  0  0  0  0
    1.0057    5.0339   -3.0550 C   0  0  0  0  0  0  0  0  0  0  0  0
    1.3482    5.5263   -1.7874 C   0  0  0  0  0  0  0  0  0  0  0  0
    0.8159    4.9502   -0.6328 C   0  0  0  0  0  0  0  0  0  0  0  0
   -0.0610    3.8642   -0.7305 C   0  0  0  0  0  0  0  0  0  0  0  0
   -0.4091    3.3648   -1.9880 C   0  0  0  0  0  0  0  0  0  0  0  0
    0.1185    3.9521   -3.1404 C   0  0  0  0  0  0  0  0  0  0  0  0
    2.7482    0.3286   -0.1245 H   0  0  0  0  0  0  0  0  0  0  0  0
    1.9842   -0.9506    2.5218 H   0  0  0  0  0  0  0  0  0  0  0  0
    1.5474   -3.2044    3.4547 H   0  0  0  0  0  0  0  0  0  0  0  0
   -0.2659   -4.6306    2.4866 H   0  0  0  0  0  0  0  0  0  0  0  0
   -1.6021   -3.7908    0.5609 H   0  0  0  0  0  0  0  0  0  0  0  0
   -1.1627   -1.5173   -0.3657 H   0  0  0  0  0  0  0  0  0  0  0  0
    0.2146    2.3613    2.8257 H   0  0  0  0  0  0  0  0  0  0  0  0
    4.9761   -0.4033   -1.9555 H   0  0  0  0  0  0  0  0  0  0  0  0
    2.0377   -2.5784   -1.6458 H   0  0  0  0  0  0  0  0  0  0  0  0
    2.0103   -4.6139   -0.2976 H   0  0  0  0  0  0  0  0  0  0  0  0
    5.9930   -3.7828    1.1085 H   0  0  0  0  0  0  0  0  0  0  0  0
    6.0304   -1.7028   -0.2240 H   0  0  0  0  0  0  0  0  0  0  0  0
    5.8261   -5.9768    1.1610 H   0  0  0  0  0  0  0  0  0  0  0  0
    2.0465   -5.2368    1.9569 H   0  0  0  0  0  0  0  0  0  0  0  0
    2.7226   -6.7410    2.4405 H   0  0  0  0  0  0  0  0  0  0  0  0
    1.9929    0.5848   -4.8685 H   0  0  0  0  0  0  0  0  0  0  0  0
    0.6815    2.6669   -7.5126 H   0  0  0  0  0  0  0  0  0  0  0  0
    0.3464    1.6451   -6.0754 H   0  0  0  0  0  0  0  0  0  0  0  0
    1.8109    1.3464   -7.0694 H   0  0  0  0  0  0  0  0  0  0  0  0
    4.3933    4.1466   -2.3851 H   0  0  0  0  0  0  0  0  0  0  0  0
    4.4447    1.7952   -1.5439 H   0  0  0  0  0  0  0  0  0  0  0  0
    1.1346    5.2966   -5.1941 H   0  0  0  0  0  0  0  0  0  0  0  0
    1.8494    6.6356   -4.2448 H   0  0  0  0  0  0  0  0  0  0  0  0
    2.0525    6.3590   -1.7082 H   0  0  0  0  0  0  0  0  0  0  0  0
    1.0929    5.3423    0.3489 H   0  0  0  0  0  0  0  0  0  0  0  0
   -0.4723    3.4092    0.1729 H   0  0  0  0  0  0  0  0  0  0  0  0
   -1.0762    2.5041   -2.0748 H   0  0  0  0  0  0  0  0  0  0  0  0
   -0.1409    3.5530   -4.1229 H   0  0  0  0  0  0  0  0  0  0  0  0
  1  2  2  0
  2  3  1  0
  2 15  1  0
  3  4  1  0
  3 43  1  0
  4  5  1  6
  4  6  1  0
  4 12  1  0
  6  7  2  0
  6 11  1  0
  7  8  1  0
  7 44  1  0
  8  9  2  0
  8 45  1  0
  9 10  1  0
  9 46  1  0
 10 11  2  0
 10 47  1  0
 11 48  1  0
 12 13  2  0
 12 14  1  0
 14 49  1  0
 15 16  1  6
 15 17  1  0
 15 27  1  0
 17 18  1  0
 17 50  1  0
 18 19  2  0
 18 23  1  0
 19 20  1  0
 19 51  1  0
 20 21  2  0
 20 52  1  0
 21 22  1  0
 21 24  1  0
 22 23  2  0
 22 53  1  0
 23 54  1  0
 24 25  2  0
 24 26  1  0
 25 55  1  0
 26 56  1  0
 26 57  1  0
 27 28  2  0
 27 34  1  0
 28 29  1  0
 28 58  1  0
 29 30  1  0
 29 32  2  0
 30 31  1  0
 31 59  1  0
 31 60  1  0
 31 61  1  0
 32 33  1  0
 32 35  1  0
 33 34  2  0
 33 62  1  0
 34 63  1  0
 35 36  1  0
 36 37  1  0
 36 64  1  0
 36 65  1  0
 37 38  2  0
 37 42  1  0
 38 39  1  0
 38 66  1  0
 39 40  2  0
 39 67  1  0
 40 41  1  0
 40 68  1  0
 41 42  2  0
 41 69  1  0
 42 70  1  0
M  END

