70
rmsd170.gzmat
O          0.00000        0.00000        0.00000
C          1.21020        0.00000        0.00000
N          1.94860        0.00000        1.16540
C          1.30630       -0.17330        2.46150
H          0.18100       -0.09130        2.34600
C          1.70280       -1.50040        3.06540
C          3.03180       -1.74060        3.41990
C          3.39740       -2.97900        3.93970
C          2.43710       -3.97560        4.10850
C          1.11400       -3.73850        3.74140
C          0.74450       -2.50070        3.21780
C          1.80800        0.95700        3.35920
O          2.88820        1.48410        3.35140
O          0.84040        1.31870        4.22930
C          2.02670        0.02950       -1.31800
H          1.37920       -0.43640       -2.11460
N          3.28020       -0.71940       -1.14760
C          3.25800       -2.09120       -0.89690
C          2.06220       -2.81060       -0.72350
C          2.11080       -4.12770       -0.28800
C          3.33630       -4.74360       -0.03440
C          4.52730       -4.04860       -0.25830
C          4.49940       -2.73450       -0.69650
C          3.38270       -6.13650        0.47160
N          4.03950       -7.13720       -0.01620
N          2.56990       -6.37690        1.58890
C          2.33700        1.46640       -1.64950
C          3.09950        2.23400       -0.76270
C          3.34730        3.57180       -1.03630
O          4.04000        4.41390       -0.22520
C          4.57940        3.85750        0.96970
C          2.85390        4.14500       -2.23060
C          2.10700        3.36650       -3.11600
C          1.84610        2.02910       -2.82240
O          3.04670        5.41240       -2.68020
C          3.48860        6.41070       -1.76790
C          4.97110        6.36960       -1.55890
C          5.79960        5.71330       -2.46900
C          7.17600        5.68200       -2.25590
C          7.72650        6.31500       -1.14250
C          6.89850        6.98330       -0.24200
C          5.52110        7.00950       -0.44560
H          2.95700       -0.12260        1.13640
H          3.78450       -0.96010        3.29610
H          4.43360       -3.16610        4.21770
H          2.72170       -4.93450        4.53840
H          0.36360       -4.51810        3.86590
H         -0.29070       -2.32160        2.92630
H          1.10870        2.04200        4.85100
H          4.08390       -0.32950       -1.62430
H          1.09460       -2.35400       -0.91850
H          1.18330       -4.68740       -0.14050
H          5.48450       -4.54180       -0.07800
H          5.42710       -2.19450       -0.86260
H          4.54030       -7.04340       -0.87960
H          2.38920       -5.60610        2.20190
H          2.66380       -7.27320        2.03370
H          3.48530        1.78220        0.15030
H          5.05000        4.73560        1.43230
H          5.33410        3.09990        0.73890
H          3.79210        3.45600        1.61850
H          1.72830        3.81870       -4.03220
H          1.24610        1.43870       -3.51390
H          2.91730        6.34870       -0.82240
H          3.18460        7.33180       -2.31530
H          5.36760        5.22100       -3.34020
H          7.82150        5.16330       -2.96170
H          8.80120        6.29110       -0.97870
H          7.32780        7.48480        0.62250
H          4.87700        7.52420        0.26360
