
     RDKit          3D

 70 73  0  0  0  0  0  0  0  0999 V2000
   -0.0730    0.0273   -0.0769 O   0  0  0  0  0  0  0  0  0  0  0  0
    1.1325    0.1291    0.0501 C   0  0  0  0  0  0  0  0  0  0  0  0
    1.7876    0.0673    1.2403 N   0  0  0  0  0  0  0  0  0  0  0  0
    1.1370   -0.2158    2.4859 C   0  0  1  0  0  0  0  0  0  0  0  0
    0.0542   -0.1193    2.3129 H   0  0  0  0  0  0  0  0  0  0  0  0
    1.4278   -1.6194    3.0165 C   0  0  0  0  0  0  0  0  0  0  0  0
    2.7008   -2.1854    2.8723 C   0  0  0  0  0  0  0  0  0  0  0  0
    2.9679   -3.4636    3.3672 C   0  0  0  0  0  0  0  0  0  0  0  0
    1.9620   -4.1902    4.0110 C   0  0  0  0  0  0  0  0  0  0  0  0
    0.6881   -3.6312    4.1556 C   0  0  0  0  0  0  0  0  0  0  0  0
    0.4248   -2.3512    3.6633 C   0  0  0  0  0  0  0  0  0  0  0  0
    1.5466    0.8394    3.5134 C   0  0  0  0  0  0  0  0  0  0  0  0
    2.4259    1.6512    3.3516 O   0  0  0  0  0  0  0  0  0  0  0  0
    0.8215    0.7495    4.6347 O   0  0  0  0  0  0  0  0  0  0  0  0
    2.0725    0.3692   -1.1543 C   0  0  2  0  0  0  0  0  0  0  0  0
    1.5585   -0.0955   -2.0136 H   0  0  0  0  0  0  0  0  0  0  0  0
    3.3814   -0.2120   -0.9122 N   0  0  0  0  0  0  0  0  0  0  0  0
    3.5783   -1.5661   -0.6869 C   0  0  0  0  0  0  0  0  0  0  0  0
    2.5075   -2.4816   -0.6670 C   0  0  0  0  0  0  0  0  0  0  0  0
    2.7199   -3.8057   -0.2926 C   0  0  0  0  0  0  0  0  0  0  0  0
    3.9948   -4.2772    0.0494 C   0  0  0  0  0  0  0  0  0  0  0  0
    5.0678   -3.3720   -0.0195 C   0  0  0  0  0  0  0  0  0  0  0  0
    4.8702   -2.0445   -0.3785 C   0  0  0  0  0  0  0  0  0  0  0  0
    4.2155   -5.6848    0.4965 C   0  0  0  0  0  0  0  0  0  0  0  0
    5.2804   -6.3774    0.3076 N   0  0  0  0  0  0  0  0  0  0  0  0
    3.1364   -6.2558    1.1451 N   0  0  0  0  0  0  0  0  0  0  0  0
    2.2160    1.8552   -1.4257 C   0  0  0  0  0  0  0  0  0  0  0  0
    2.6447    2.7173   -0.4029 C   0  0  0  0  0  0  0  0  0  0  0  0
    2.8168    4.0840   -0.6341 C   0  0  0  0  0  0  0  0  0  0  0  0
    3.1727    4.9672    0.3329 O   0  0  0  0  0  0  0  0  0  0  0  0
    3.5858    4.4696    1.5901 C   0  0  0  0  0  0  0  0  0  0  0  0
    2.6001    4.6016   -1.9353 C   0  0  0  0  0  0  0  0  0  0  0  0
    2.1605    3.7384   -2.9392 C   0  0  0  0  0  0  0  0  0  0  0  0
    1.9596    2.3782   -2.6934 C   0  0  0  0  0  0  0  0  0  0  0  0
    2.7635    5.9121   -2.2650 O   0  0  0  0  0  0  0  0  0  0  0  0
    3.9098    6.6313   -1.7945 C   0  0  0  0  0  0  0  0  0  0  0  0
    5.1946    5.8470   -1.9106 C   0  0  0  0  0  0  0  0  0  0  0  0
    5.5257    5.2043   -3.1126 C   0  0  0  0  0  0  0  0  0  0  0  0
    6.7027    4.4627   -3.2202 C   0  0  0  0  0  0  0  0  0  0  0  0
    7.5686    4.3574   -2.1264 C   0  0  0  0  0  0  0  0  0  0  0  0
    7.2478    4.9955   -0.9258 C   0  0  0  0  0  0  0  0  0  0  0  0
    6.0630    5.7296   -0.8191 C   0  0  0  0  0  0  0  0  0  0  0  0
    2.7984    0.1290    1.2153 H   0  0  0  0  0  0  0  0  0  0  0  0
    3.4936   -1.6473    2.3499 H   0  0  0  0  0  0  0  0  0  0  0  0
    3.9631   -3.8935    3.2378 H   0  0  0  0  0  0  0  0  0  0  0  0
    2.1706   -5.1903    4.3994 H   0  0  0  0  0  0  0  0  0  0  0  0
   -0.1051   -4.1953    4.6518 H   0  0  0  0  0  0  0  0  0  0  0  0
   -0.5707   -1.9159    3.7773 H   0  0  0  0  0  0  0  0  0  0  0  0
    1.1534    1.4229    5.2534 H   0  0  0  0  0  0  0  0  0  0  0  0
    4.1750    0.3324   -1.2280 H   0  0  0  0  0  0  0  0  0  0  0  0
    1.4974   -2.1615   -0.9204 H   0  0  0  0  0  0  0  0  0  0  0  0
    1.8730   -4.4937   -0.2713 H   0  0  0  0  0  0  0  0  0  0  0  0
    6.0712   -3.7102    0.2505 H   0  0  0  0  0  0  0  0  0  0  0  0
    5.7141   -1.3492   -0.3871 H   0  0  0  0  0  0  0  0  0  0  0  0
    5.9351   -5.8642   -0.2857 H   0  0  0  0  0  0  0  0  0  0  0  0
    2.5519   -5.6488    1.7090 H   0  0  0  0  0  0  0  0  0  0  0  0
    3.3273   -7.1708    1.5403 H   0  0  0  0  0  0  0  0  0  0  0  0
    2.8018    2.3266    0.6003 H   0  0  0  0  0  0  0  0  0  0  0  0
    3.8664    5.3446    2.1912 H   0  0  0  0  0  0  0  0  0  0  0  0
    4.4609    3.8042    1.4875 H   0  0  0  0  0  0  0  0  0  0  0  0
    2.7848    3.9160    2.1061 H   0  0  0  0  0  0  0  0  0  0  0  0
    1.9915    4.1650   -3.9295 H   0  0  0  0  0  0  0  0  0  0  0  0
    1.6187    1.7226   -3.4975 H   0  0  0  0  0  0  0  0  0  0  0  0
    3.7584    6.9613   -0.7578 H   0  0  0  0  0  0  0  0  0  0  0  0
    3.9442    7.5212   -2.4423 H   0  0  0  0  0  0  0  0  0  0  0  0
    4.8457    5.2803   -3.9642 H   0  0  0  0  0  0  0  0  0  0  0  0
    6.9476    3.9647   -4.1616 H   0  0  0  0  0  0  0  0  0  0  0  0
    8.4912    3.7780   -2.2109 H   0  0  0  0  0  0  0  0  0  0  0  0
    7.9185    4.9162   -0.0667 H   0  0  0  0  0  0  0  0  0  0  0  0
    5.8024    6.2124    0.1257 H   0  0  0  0  0  0  0  0  0  0  0  0
  1  2  2  0
  2  3  1  0
  2 15  1  0
  3  4  1  0
  3 43  1  0
  4  5  1  6
  4  6  1  0
  4 12  1  0
  6  7  2  0
  6 11  1  0
  7  8  1  0
  7 44  1  0
  8  9  2  0
  8 45  1  0
  9 10  1  0
  9 46  1  0
 10 11  2  0
 10 47  1  0
 11 48  1  0
 12 13  2  0
 12 14  1  0
 14 49  1  0
 15 16  1  6
 15 17  1  0
 15 27  1  0
 17 18  1  0
 17 50  1  0
 18 19  2  0
 18 23  1  0
 19 20  1  0
 19 51  1  0
 20 21  2  0
 20 52  1  0
 21 22  1  0
 21 24  1  0
 22 23  2  0
 22 53  1  0
 23 54  1  0
 24 25  2  0
 24 26  1  0
 25 55  1  0
 26 56  1  0
 26 57  1  0
 27 28  2  0
 27 34  1  0
 28 29  1  0
 28 58  1  0
 29 30  1  0
 29 32  2  0
 30 31  1  0
 31 59  1  0
 31 60  1  0
 31 61  1  0
 32 33  1  0
 32 35  1  0
 33 34  2  0
 33 62  1  0
 34 63  1  0
 35 36  1  0
 36 37  1  0
 36 64  1  0
 36 65  1  0
 37 38  2  0
 37 42  1  0
 38 39  1  0
 38 66  1  0
 39 40  2  0
 39 67  1  0
 40 41  1  0
 40 68  1  0
 41 42  2  0
 41 69  1  0
 42 70  1  0
M  END

