37
rmsd71.gzmat
O          0.00000        0.00000        0.00000
C          1.21750        0.00000        0.00000
N          1.97330        0.00000        1.16340
C          1.46340        0.03760        2.48030
C          0.09830        0.11410        2.78180
C         -0.30360        0.15700        4.11390
C          0.63350        0.12570        5.14440
C          1.99200        0.04570        4.84010
C          2.41510        0.00190        3.51790
C          1.96280       -0.00730       -1.26480
N          1.22880       -0.14300       -2.44600
H          0.23110       -0.22020       -2.46750
C          2.09740       -0.13640       -3.51640
C          3.40360        0.00470       -3.02220
C          3.31950        0.09300       -1.61100
C          4.45010        0.26680       -0.71620
C          5.34390       -0.78740       -0.51080
C          6.41590       -0.62650        0.36330
C          6.59920        0.58410        1.02970
C          5.71280        1.63900        0.81840
C          4.63940        1.48450       -0.05470
C          1.64030       -0.25320       -4.91330
H          2.99100       -0.03120        1.08260
H         -0.65220        0.14070        1.98920
H         -1.36590        0.21590        4.34890
H          0.30810        0.16410        6.17970
H          2.72710        0.01670        5.64270
H          3.47560       -0.06120        3.29050
H          4.30100        0.04480       -3.59920
H          5.19660       -1.73050       -1.03510
H          7.11080       -1.44780        0.52480
H          7.43720        0.70600        1.71260
H          5.85950        2.58550        1.33600
H          3.94700        2.30820       -0.22770
H          0.57980       -0.52550       -5.00730
H          2.21930       -1.01780       -5.45810
H          1.78040        0.69660       -5.45770
