rmsd77.gzmat
 OpenBabel08211713413D

 37 39  0  0  0  0  0  0  0  0999 V2000
    0.0000    0.0000    0.0000 O   0  0  0  0  0  0  0  0  0  0  0  0
    1.2174    0.0000    0.0000 C   0  0  0  0  0  0  0  0  0  0  0  0
    1.9737    0.0000    1.1633 N   0  0  0  0  0  0  0  0  0  0  0  0
    1.4615    0.0477    2.4791 C   0  0  0  0  0  0  0  0  0  0  0  0
    0.0939    0.0284    2.7786 C   0  0  0  0  0  0  0  0  0  0  0  0
   -0.3138    0.0832    4.1085 C   0  0  0  0  0  0  0  0  0  0  0  0
    0.6208    0.1546    5.1392 C   0  0  0  0  0  0  0  0  0  0  0  0
    1.9823    0.1671    4.8377 C   0  0  0  0  0  0  0  0  0  0  0  0
    2.4110    0.1155    3.5177 C   0  0  0  0  0  0  0  0  0  0  0  0
    1.9619   -0.0126   -1.2653 C   0  0  0  0  0  0  0  0  0  0  0  0
    1.2362   -0.2123   -2.4417 N   0  0  0  0  0  0  0  0  0  0  0  0
    0.2431   -0.3326   -2.4644 H   0  0  0  0  0  0  0  0  0  0  0  0
    2.1061   -0.1953   -3.5124 C   0  0  0  0  0  0  0  0  0  0  0  0
    3.4031    0.0192   -3.0224 C   0  0  0  0  0  0  0  0  0  0  0  0
    3.3132    0.1390   -1.6132 C   0  0  0  0  0  0  0  0  0  0  0  0
    4.4287    0.3831   -0.7161 C   0  0  0  0  0  0  0  0  0  0  0  0
    5.3558   -0.6317   -0.4635 C   0  0  0  0  0  0  0  0  0  0  0  0
    6.4064   -0.4057    0.4223 C   0  0  0  0  0  0  0  0  0  0  0  0
    6.5360    0.8307    1.0528 C   0  0  0  0  0  0  0  0  0  0  0  0
    5.6187    1.8476    0.7909 C   0  0  0  0  0  0  0  0  0  0  0  0
    4.5662    1.6275   -0.0936 C   0  0  0  0  0  0  0  0  0  0  0  0
    1.6427   -0.3838   -4.8995 C   0  0  0  0  0  0  0  0  0  0  0  0
    2.9917   -0.0157    1.0825 H   0  0  0  0  0  0  0  0  0  0  0  0
   -0.6547   -0.0274    1.9859 H   0  0  0  0  0  0  0  0  0  0  0  0
   -1.3782    0.0705    4.3418 H   0  0  0  0  0  0  0  0  0  0  0  0
    0.2911    0.1989    6.1730 H   0  0  0  0  0  0  0  0  0  0  0  0
    2.7152    0.2181    5.6416 H   0  0  0  0  0  0  0  0  0  0  0  0
    3.4737    0.1284    3.2931 H   0  0  0  0  0  0  0  0  0  0  0  0
    4.2983    0.0884   -3.5998 H   0  0  0  0  0  0  0  0  0  0  0  0
    5.2501   -1.5958   -0.9588 H   0  0  0  0  0  0  0  0  0  0  0  0
    7.1266   -1.1966    0.6222 H   0  0  0  0  0  0  0  0  0  0  0  0
    7.3557    1.0035    1.7468 H   0  0  0  0  0  0  0  0  0  0  0  0
    5.7247    2.8158    1.2775 H   0  0  0  0  0  0  0  0  0  0  0  0
    3.8495    2.4210   -0.3058 H   0  0  0  0  0  0  0  0  0  0  0  0
    1.1472   -1.3571   -5.0442 H   0  0  0  0  0  0  0  0  0  0  0  0
    2.4841   -0.3491   -5.6108 H   0  0  0  0  0  0  0  0  0  0  0  0
    0.9335    0.3995   -5.2114 H   0  0  0  0  0  0  0  0  0  0  0  0
  1  2  2  0  0  0  0
  2  3  1  0  0  0  0
  3  4  1  0  0  0  0
  4  5  2  0  0  0  0
  4  9  1  0  0  0  0
  5  6  1  0  0  0  0
  6 25  1  0  0  0  0
  6  7  2  0  0  0  0
  7 26  1  0  0  0  0
  8  7  1  0  0  0  0
  8 27  1  0  0  0  0
  9  8  2  0  0  0  0
 10  2  1  0  0  0  0
 11 10  1  0  0  0  0
 12 11  1  0  0  0  0
 13 14  2  0  0  0  0
 13 11  1  0  0  0  0
 14 15  1  0  0  0  0
 15 10  2  0  0  0  0
 15 16  1  0  0  0  0
 16 17  2  0  0  0  0
 16 21  1  0  0  0  0
 17 18  1  0  0  0  0
 18 31  1  0  0  0  0
 18 19  2  0  0  0  0
 19 32  1  0  0  0  0
 20 19  1  0  0  0  0
 20 33  1  0  0  0  0
 21 20  2  0  0  0  0
 22 13  1  0  0  0  0
 23  3  1  0  0  0  0
 24  5  1  0  0  0  0
 28  9  1  0  0  0  0
 29 14  1  0  0  0  0
 30 17  1  0  0  0  0
 34 21  1  0  0  0  0
 35 22  1  0  0  0  0
 36 22  1  0  0  0  0
 37 22  1  0  0  0  0
M  END
$$$$
