rmsd66.gzmat
 OpenBabel08211713413D

 37 39  0  0  0  0  0  0  0  0999 V2000
    0.0000    0.0000    0.0000 O   0  0  0  0  0  0  0  0  0  0  0  0
    1.2174    0.0000    0.0000 C   0  0  0  0  0  0  0  0  0  0  0  0
    1.9739    0.0000    1.1631 N   0  0  0  0  0  0  0  0  0  0  0  0
    1.4592    0.0325    2.4786 C   0  0  0  0  0  0  0  0  0  0  0  0
    0.0969    0.1681    2.7728 C   0  0  0  0  0  0  0  0  0  0  0  0
   -0.3145    0.1986    4.1023 C   0  0  0  0  0  0  0  0  0  0  0  0
    0.6114    0.0962    5.1383 C   0  0  0  0  0  0  0  0  0  0  0  0
    1.9671   -0.0396    4.8418 C   0  0  0  0  0  0  0  0  0  0  0  0
    2.3998   -0.0694    3.5220 C   0  0  0  0  0  0  0  0  0  0  0  0
    1.9619   -0.0205   -1.2652 C   0  0  0  0  0  0  0  0  0  0  0  0
    1.2378   -0.2607   -2.4352 N   0  0  0  0  0  0  0  0  0  0  0  0
    0.2464   -0.3957   -2.4533 H   0  0  0  0  0  0  0  0  0  0  0  0
    2.1058   -0.2577   -3.5074 C   0  0  0  0  0  0  0  0  0  0  0  0
    3.3998   -0.0113   -3.0253 C   0  0  0  0  0  0  0  0  0  0  0  0
    3.3100    0.1455   -1.6191 C   0  0  0  0  0  0  0  0  0  0  0  0
    4.4265    0.4409   -0.7393 C   0  0  0  0  0  0  0  0  0  0  0  0
    5.4527   -0.4940   -0.5747 C   0  0  0  0  0  0  0  0  0  0  0  0
    6.5155   -0.2135    0.2804 C   0  0  0  0  0  0  0  0  0  0  0  0
    6.5590    0.9978    0.9689 C   0  0  0  0  0  0  0  0  0  0  0  0
    5.5406    1.9348    0.7982 C   0  0  0  0  0  0  0  0  0  0  0  0
    4.4762    1.6609   -0.0565 C   0  0  0  0  0  0  0  0  0  0  0  0
    1.6434   -0.4775   -4.8901 C   0  0  0  0  0  0  0  0  0  0  0  0
    2.9915   -0.0357    1.0821 H   0  0  0  0  0  0  0  0  0  0  0  0
   -0.6453    0.2494    1.9759 H   0  0  0  0  0  0  0  0  0  0  0  0
   -1.3744    0.3041    4.3314 H   0  0  0  0  0  0  0  0  0  0  0  0
    0.2790    0.1202    6.1720 H   0  0  0  0  0  0  0  0  0  0  0  0
    2.6926   -0.1226    5.6493 H   0  0  0  0  0  0  0  0  0  0  0  0
    3.4588   -0.1720    3.3019 H   0  0  0  0  0  0  0  0  0  0  0  0
    4.2931    0.0564   -3.6061 H   0  0  0  0  0  0  0  0  0  0  0  0
    5.4149   -1.4384   -1.1158 H   0  0  0  0  0  0  0  0  0  0  0  0
    7.3134   -0.9422    0.4107 H   0  0  0  0  0  0  0  0  0  0  0  0
    7.3895    1.2134    1.6376 H   0  0  0  0  0  0  0  0  0  0  0  0
    5.5780    2.8830    1.3317 H   0  0  0  0  0  0  0  0  0  0  0  0
    3.6831    2.3946   -0.2007 H   0  0  0  0  0  0  0  0  0  0  0  0
    0.9466   -1.3253   -4.9750 H   0  0  0  0  0  0  0  0  0  0  0  0
    2.4880   -0.6924   -5.5647 H   0  0  0  0  0  0  0  0  0  0  0  0
    1.1334    0.4119   -5.2957 H   0  0  0  0  0  0  0  0  0  0  0  0
  1  2  2  0  0  0  0
  2  3  1  0  0  0  0
  3  4  1  0  0  0  0
  4  5  2  0  0  0  0
  4  9  1  0  0  0  0
  5  6  1  0  0  0  0
  6 25  1  0  0  0  0
  6  7  2  0  0  0  0
  7 26  1  0  0  0  0
  8  7  1  0  0  0  0
  8 27  1  0  0  0  0
  9  8  2  0  0  0  0
 10  2  1  0  0  0  0
 11 10  1  0  0  0  0
 12 11  1  0  0  0  0
 13 14  2  0  0  0  0
 13 11  1  0  0  0  0
 14 15  1  0  0  0  0
 15 10  2  0  0  0  0
 15 16  1  0  0  0  0
 16 17  2  0  0  0  0
 16 21  1  0  0  0  0
 17 18  1  0  0  0  0
 18 31  1  0  0  0  0
 18 19  2  0  0  0  0
 19 32  1  0  0  0  0
 20 19  1  0  0  0  0
 20 33  1  0  0  0  0
 21 20  2  0  0  0  0
 22 13  1  0  0  0  0
 23  3  1  0  0  0  0
 24  5  1  0  0  0  0
 28  9  1  0  0  0  0
 29 14  1  0  0  0  0
 30 17  1  0  0  0  0
 34 21  1  0  0  0  0
 35 22  1  0  0  0  0
 36 22  1  0  0  0  0
 37 22  1  0  0  0  0
M  END
$$$$
