37
rmsd85.gzmat
O          0.00000        0.00000        0.00000
C          1.21750        0.00000        0.00000
N          1.97220        0.00000        1.16430
C          1.45200       -0.05770        2.47710
C          2.38410       -0.25870        3.51340
C          1.94420       -0.31960        4.82980
C          0.58900       -0.18570        5.12860
C         -0.32810        0.01720        4.09950
C          0.09150        0.08480        2.77410
C          1.96210        0.01240       -1.26500
N          1.23610        0.21600       -2.44070
H          0.24290        0.33510       -2.46270
C          2.10510        0.20060       -3.51180
C          3.40230       -0.01640       -3.02280
C          3.31280       -0.14120       -1.61420
C          4.42770       -0.39920       -0.72010
C          4.54450       -1.64360       -0.09260
C          5.59770       -1.88090        0.78640
C          6.53700       -0.88160        1.03760
C          6.42800        0.35470        0.40280
C          5.37600        0.59840       -0.47680
C          1.64280        0.37790       -4.90070
H          2.99040        0.00250        1.08700
H          3.44110       -0.36870        3.29000
H          2.66330       -0.47440        5.63240
H          0.25090       -0.23810        6.15940
H         -1.38690        0.12610        4.33090
H         -0.64240        0.24700        1.98220
H          4.29690       -0.08520       -3.60120
H          3.81080       -2.42320       -0.29580
H          5.68720       -2.84810        1.27760
H          7.35750       -1.06770        1.72710
H          7.16580        1.13170        0.59360
H          5.28620        1.56270       -0.97510
H          0.82350        1.10660       -4.99030
H          1.28750       -0.57340       -5.33220
H          2.45770        0.73520       -5.55120
