rmsd85.gzmat
 OpenBabel08211713413D

 37 39  0  0  0  0  0  0  0  0999 V2000
    0.0000    0.0000    0.0000 O   0  0  0  0  0  0  0  0  0  0  0  0
    1.2175    0.0000    0.0000 C   0  0  0  0  0  0  0  0  0  0  0  0
    1.9722    0.0000    1.1643 N   0  0  0  0  0  0  0  0  0  0  0  0
    1.4520   -0.0577    2.4771 C   0  0  0  0  0  0  0  0  0  0  0  0
    2.3841   -0.2587    3.5134 C   0  0  0  0  0  0  0  0  0  0  0  0
    1.9442   -0.3196    4.8298 C   0  0  0  0  0  0  0  0  0  0  0  0
    0.5890   -0.1857    5.1286 C   0  0  0  0  0  0  0  0  0  0  0  0
   -0.3281    0.0172    4.0995 C   0  0  0  0  0  0  0  0  0  0  0  0
    0.0915    0.0848    2.7741 C   0  0  0  0  0  0  0  0  0  0  0  0
    1.9621    0.0124   -1.2650 C   0  0  0  0  0  0  0  0  0  0  0  0
    1.2361    0.2160   -2.4407 N   0  0  0  0  0  0  0  0  0  0  0  0
    0.2429    0.3351   -2.4627 H   0  0  0  0  0  0  0  0  0  0  0  0
    2.1051    0.2006   -3.5118 C   0  0  0  0  0  0  0  0  0  0  0  0
    3.4023   -0.0164   -3.0228 C   0  0  0  0  0  0  0  0  0  0  0  0
    3.3128   -0.1412   -1.6142 C   0  0  0  0  0  0  0  0  0  0  0  0
    4.4277   -0.3992   -0.7201 C   0  0  0  0  0  0  0  0  0  0  0  0
    4.5445   -1.6436   -0.0926 C   0  0  0  0  0  0  0  0  0  0  0  0
    5.5977   -1.8809    0.7864 C   0  0  0  0  0  0  0  0  0  0  0  0
    6.5370   -0.8816    1.0376 C   0  0  0  0  0  0  0  0  0  0  0  0
    6.4280    0.3547    0.4028 C   0  0  0  0  0  0  0  0  0  0  0  0
    5.3760    0.5984   -0.4768 C   0  0  0  0  0  0  0  0  0  0  0  0
    1.6428    0.3779   -4.9007 C   0  0  0  0  0  0  0  0  0  0  0  0
    2.9904    0.0025    1.0870 H   0  0  0  0  0  0  0  0  0  0  0  0
    3.4411   -0.3687    3.2900 H   0  0  0  0  0  0  0  0  0  0  0  0
    2.6633   -0.4744    5.6324 H   0  0  0  0  0  0  0  0  0  0  0  0
    0.2509   -0.2381    6.1594 H   0  0  0  0  0  0  0  0  0  0  0  0
   -1.3869    0.1261    4.3309 H   0  0  0  0  0  0  0  0  0  0  0  0
   -0.6424    0.2470    1.9822 H   0  0  0  0  0  0  0  0  0  0  0  0
    4.2969   -0.0852   -3.6012 H   0  0  0  0  0  0  0  0  0  0  0  0
    3.8108   -2.4232   -0.2958 H   0  0  0  0  0  0  0  0  0  0  0  0
    5.6872   -2.8481    1.2776 H   0  0  0  0  0  0  0  0  0  0  0  0
    7.3575   -1.0677    1.7271 H   0  0  0  0  0  0  0  0  0  0  0  0
    7.1658    1.1317    0.5936 H   0  0  0  0  0  0  0  0  0  0  0  0
    5.2862    1.5627   -0.9751 H   0  0  0  0  0  0  0  0  0  0  0  0
    0.8235    1.1066   -4.9903 H   0  0  0  0  0  0  0  0  0  0  0  0
    1.2875   -0.5734   -5.3322 H   0  0  0  0  0  0  0  0  0  0  0  0
    2.4577    0.7352   -5.5512 H   0  0  0  0  0  0  0  0  0  0  0  0
  1  2  2  0  0  0  0
  2  3  1  0  0  0  0
  3  4  1  0  0  0  0
  4  9  2  0  0  0  0
  4  5  1  0  0  0  0
  5  6  2  0  0  0  0
  6  7  1  0  0  0  0
  6 25  1  0  0  0  0
  7 26  1  0  0  0  0
  8 27  1  0  0  0  0
  8  7  2  0  0  0  0
  9  8  1  0  0  0  0
 10  2  1  0  0  0  0
 11 10  1  0  0  0  0
 12 11  1  0  0  0  0
 13 14  2  0  0  0  0
 13 11  1  0  0  0  0
 14 15  1  0  0  0  0
 15 10  2  0  0  0  0
 15 16  1  0  0  0  0
 16 21  2  0  0  0  0
 16 17  1  0  0  0  0
 17 18  2  0  0  0  0
 18 19  1  0  0  0  0
 18 31  1  0  0  0  0
 19 32  1  0  0  0  0
 20 33  1  0  0  0  0
 20 19  2  0  0  0  0
 21 20  1  0  0  0  0
 22 13  1  0  0  0  0
 23  3  1  0  0  0  0
 24  5  1  0  0  0  0
 28  9  1  0  0  0  0
 29 14  1  0  0  0  0
 30 17  1  0  0  0  0
 34 21  1  0  0  0  0
 35 22  1  0  0  0  0
 36 22  1  0  0  0  0
 37 22  1  0  0  0  0
M  END
$$$$
