37
rmsd66.gzmat
O          0.00000        0.00000        0.00000
C          1.21740        0.00000        0.00000
N          1.97390        0.00000        1.16310
C          1.45920        0.03250        2.47860
C          0.09690        0.16810        2.77280
C         -0.31450        0.19860        4.10230
C          0.61140        0.09620        5.13830
C          1.96710       -0.03960        4.84180
C          2.39980       -0.06940        3.52200
C          1.96190       -0.02050       -1.26520
N          1.23780       -0.26070       -2.43520
H          0.24640       -0.39570       -2.45330
C          2.10580       -0.25770       -3.50740
C          3.39980       -0.01130       -3.02530
C          3.31000        0.14550       -1.61910
C          4.42650        0.44090       -0.73930
C          5.45270       -0.49400       -0.57470
C          6.51550       -0.21350        0.28040
C          6.55900        0.99780        0.96890
C          5.54060        1.93480        0.79820
C          4.47620        1.66090       -0.05650
C          1.64340       -0.47750       -4.89010
H          2.99150       -0.03570        1.08210
H         -0.64530        0.24940        1.97590
H         -1.37440        0.30410        4.33140
H          0.27900        0.12020        6.17200
H          2.69260       -0.12260        5.64930
H          3.45880       -0.17200        3.30190
H          4.29310        0.05640       -3.60610
H          5.41490       -1.43840       -1.11580
H          7.31340       -0.94220        0.41070
H          7.38950        1.21340        1.63760
H          5.57800        2.88300        1.33170
H          3.68310        2.39460       -0.20070
H          0.94660       -1.32530       -4.97500
H          2.48800       -0.69240       -5.56470
H          1.13340        0.41190       -5.29570
