37
rmsd56.gzmat
O          0.00000        0.00000        0.00000
C          1.21740        0.00000        0.00000
N          1.97400        0.00000        1.16330
C          1.46110        0.02680        2.47940
C          0.09440        0.09860        2.77630
C         -0.31430        0.12520        4.10660
C          0.61870        0.08020        5.14030
C          1.97860        0.00710        4.84140
C          2.40870       -0.01920        3.52080
C          1.96230       -0.01570       -1.26490
N          1.23700       -0.20620       -2.44300
H          0.24320       -0.31710       -2.46770
C          2.10940       -0.19920       -3.51170
C          3.40740        0.00250       -3.01890
C          3.31570        0.12140       -1.61010
C          4.43180        0.34930       -0.70890
C          5.30840       -0.69630       -0.40680
C          6.35890       -0.48460        0.48280
C          6.53640        0.76720        1.07000
C          5.66890        1.81370        0.75980
C          4.61850        1.60920       -0.13110
C          1.64810       -0.38920       -4.89940
H          2.99180       -0.01880        1.08290
H         -0.65290        0.13230        1.98070
H         -1.37790        0.18310        4.33790
H          0.28860        0.09950        6.17480
H          2.70970       -0.03060        5.64720
H          3.47080       -0.07690        3.29860
H          4.30410        0.06400       -3.59460
H          5.16490       -1.67240       -0.86830
H          7.04210       -1.29860        0.71860
H          7.35480        0.92890        1.76790
H          5.81180        2.79280        1.21360
H          3.94200        2.42570       -0.38190
H          1.14190       -1.35750       -5.04010
H          2.49250       -0.36850       -5.60760
H          0.94850        0.40010       -5.21750
