rmsd56.gzmat
 OpenBabel08211713413D

 37 39  0  0  0  0  0  0  0  0999 V2000
    0.0000    0.0000    0.0000 O   0  0  0  0  0  0  0  0  0  0  0  0
    1.2174    0.0000    0.0000 C   0  0  0  0  0  0  0  0  0  0  0  0
    1.9740    0.0000    1.1633 N   0  0  0  0  0  0  0  0  0  0  0  0
    1.4611    0.0268    2.4794 C   0  0  0  0  0  0  0  0  0  0  0  0
    0.0944    0.0986    2.7763 C   0  0  0  0  0  0  0  0  0  0  0  0
   -0.3143    0.1252    4.1066 C   0  0  0  0  0  0  0  0  0  0  0  0
    0.6187    0.0802    5.1403 C   0  0  0  0  0  0  0  0  0  0  0  0
    1.9786    0.0071    4.8414 C   0  0  0  0  0  0  0  0  0  0  0  0
    2.4087   -0.0192    3.5208 C   0  0  0  0  0  0  0  0  0  0  0  0
    1.9623   -0.0157   -1.2649 C   0  0  0  0  0  0  0  0  0  0  0  0
    1.2370   -0.2062   -2.4430 N   0  0  0  0  0  0  0  0  0  0  0  0
    0.2432   -0.3171   -2.4677 H   0  0  0  0  0  0  0  0  0  0  0  0
    2.1094   -0.1992   -3.5117 C   0  0  0  0  0  0  0  0  0  0  0  0
    3.4074    0.0025   -3.0189 C   0  0  0  0  0  0  0  0  0  0  0  0
    3.3157    0.1214   -1.6101 C   0  0  0  0  0  0  0  0  0  0  0  0
    4.4318    0.3493   -0.7089 C   0  0  0  0  0  0  0  0  0  0  0  0
    5.3084   -0.6963   -0.4068 C   0  0  0  0  0  0  0  0  0  0  0  0
    6.3589   -0.4846    0.4828 C   0  0  0  0  0  0  0  0  0  0  0  0
    6.5364    0.7672    1.0700 C   0  0  0  0  0  0  0  0  0  0  0  0
    5.6689    1.8137    0.7598 C   0  0  0  0  0  0  0  0  0  0  0  0
    4.6185    1.6092   -0.1311 C   0  0  0  0  0  0  0  0  0  0  0  0
    1.6481   -0.3892   -4.8994 C   0  0  0  0  0  0  0  0  0  0  0  0
    2.9918   -0.0188    1.0829 H   0  0  0  0  0  0  0  0  0  0  0  0
   -0.6529    0.1323    1.9807 H   0  0  0  0  0  0  0  0  0  0  0  0
   -1.3779    0.1831    4.3379 H   0  0  0  0  0  0  0  0  0  0  0  0
    0.2886    0.0995    6.1748 H   0  0  0  0  0  0  0  0  0  0  0  0
    2.7097   -0.0306    5.6472 H   0  0  0  0  0  0  0  0  0  0  0  0
    3.4708   -0.0769    3.2986 H   0  0  0  0  0  0  0  0  0  0  0  0
    4.3041    0.0640   -3.5946 H   0  0  0  0  0  0  0  0  0  0  0  0
    5.1649   -1.6724   -0.8683 H   0  0  0  0  0  0  0  0  0  0  0  0
    7.0421   -1.2986    0.7186 H   0  0  0  0  0  0  0  0  0  0  0  0
    7.3548    0.9289    1.7679 H   0  0  0  0  0  0  0  0  0  0  0  0
    5.8118    2.7928    1.2136 H   0  0  0  0  0  0  0  0  0  0  0  0
    3.9420    2.4257   -0.3819 H   0  0  0  0  0  0  0  0  0  0  0  0
    1.1419   -1.3575   -5.0401 H   0  0  0  0  0  0  0  0  0  0  0  0
    2.4925   -0.3685   -5.6076 H   0  0  0  0  0  0  0  0  0  0  0  0
    0.9485    0.4001   -5.2175 H   0  0  0  0  0  0  0  0  0  0  0  0
  1  2  2  0  0  0  0
  2  3  1  0  0  0  0
  3  4  1  0  0  0  0
  4  5  2  0  0  0  0
  4  9  1  0  0  0  0
  5  6  1  0  0  0  0
  6 25  1  0  0  0  0
  6  7  2  0  0  0  0
  7 26  1  0  0  0  0
  8  7  1  0  0  0  0
  8 27  1  0  0  0  0
  9  8  2  0  0  0  0
 10  2  1  0  0  0  0
 11 10  1  0  0  0  0
 12 11  1  0  0  0  0
 13 14  2  0  0  0  0
 13 11  1  0  0  0  0
 14 15  1  0  0  0  0
 15 10  2  0  0  0  0
 15 16  1  0  0  0  0
 16 17  2  0  0  0  0
 16 21  1  0  0  0  0
 17 18  1  0  0  0  0
 18 31  1  0  0  0  0
 18 19  2  0  0  0  0
 19 32  1  0  0  0  0
 20 19  1  0  0  0  0
 20 33  1  0  0  0  0
 21 20  2  0  0  0  0
 22 13  1  0  0  0  0
 23  3  1  0  0  0  0
 24  5  1  0  0  0  0
 28  9  1  0  0  0  0
 29 14  1  0  0  0  0
 30 17  1  0  0  0  0
 34 21  1  0  0  0  0
 35 22  1  0  0  0  0
 36 22  1  0  0  0  0
 37 22  1  0  0  0  0
M  END
$$$$
