37
rmsd44.gzmat
N          0.00000        0.00000        0.00000
H          1.04430        0.00000        0.00000
H         -0.30880        0.00000       -0.99210
H         -0.33420        0.87160        0.45260
C         -0.53380       -1.22760        0.73350
H         -0.14440       -1.19390        1.79820
C         -0.00200       -2.50260        0.07610
O         -0.34500       -3.61870        0.33160
O          0.92600       -2.17630       -0.83320
C         -2.06780       -1.23170        0.73190
C         -2.63190       -2.31520        1.66550
C         -3.39130       -3.40290        0.87860
N         -3.95940       -4.41530        1.77370
C         -3.30920       -5.56680        2.13000
N         -1.97030       -5.73000        1.88090
H         -1.53810       -6.64510        1.92520
H         -1.44510       -5.03200        1.37940
N         -3.98190       -6.60110        2.70850
C         -5.41360       -6.55510        3.07380
C         -5.63770       -6.08950        4.51520
C         -5.48100       -4.58590        4.69780
H          1.36440       -2.95450       -1.30840
H         -2.45960       -0.24100        1.06440
H         -2.46790       -1.36020       -0.29810
H         -3.31900       -1.84990        2.40870
H         -1.83840       -2.77870        2.28510
H         -2.74010       -3.87390        0.10550
H         -4.24790       -2.94710        0.31340
H         -4.84730       -4.18110        2.22750
H         -3.44710       -7.35450        3.15330
H         -5.79650       -7.60660        2.94460
H         -5.99480       -5.94670        2.34760
H         -4.96690       -6.63180        5.21500
H         -6.66650       -6.39410        4.82970
H         -4.45370       -4.24660        4.54830
H         -5.74680       -4.29620        5.73230
H         -6.15630       -4.01450        4.05200
