37
rmsd15.gzmat
N          0.00000        0.00000        0.00000
H          1.04370        0.00000        0.00000
H         -0.30960        0.00000       -0.99270
H         -0.33350        0.87170        0.45340
C         -0.53410       -1.22800        0.73290
H         -0.14490       -1.19590        1.79770
C         -0.00890       -2.50360        0.07260
O         -0.30790       -3.62160        0.37270
O          0.85360       -2.17770       -0.89900
C         -2.06850       -1.22760        0.73410
C         -2.63580       -2.32520        1.64790
C         -3.32860       -3.44070        0.83910
N         -3.91630       -4.44290        1.73490
C         -3.26790       -5.58720        2.13500
N         -1.92590       -5.73360        1.94300
H         -1.46420       -6.61520        2.13040
H         -1.39240       -5.05630        1.42290
N         -4.01830       -6.58090        2.69750
C         -3.41890       -7.73650        3.40260
C         -2.77990       -7.35620        4.74240
C         -3.79080       -6.77100        5.72110
H          1.27740       -2.95590       -1.38760
H         -2.45470       -0.24190        1.08810
H         -2.47360       -1.33420       -0.29630
H         -3.36940       -1.87880        2.35920
H         -1.85550       -2.75810        2.30500
H         -2.62980       -3.91310        0.11050
H         -4.16170       -3.01130        0.22090
H         -4.88680       -4.28750        2.00660
H         -4.98970       -6.38380        2.95320
H         -2.69350       -8.25500        2.73510
H         -4.25240       -8.47340        3.56440
H         -1.93540       -6.65690        4.60240
H         -2.32180       -8.27090        5.19100
H         -4.16710       -5.79410        5.40890
H         -3.33700       -6.62870        6.71660
H         -4.65190       -7.43660        5.87590
