37
rmsd91.gzmat
N          0.00000        0.00000        0.00000
H          1.04360        0.00000        0.00000
H         -0.30830        0.00000       -0.99300
H         -0.33560        0.87150        0.45250
C         -0.53440       -1.22900        0.73120
H         -0.13590       -1.20610        1.79300
C         -0.01940       -2.50200        0.05840
O         -0.32830       -3.62160        0.34240
O          0.85200       -2.17320       -0.90490
C         -2.06840       -1.21720        0.74750
C         -2.63690       -2.33870        1.63130
C         -3.34860       -3.41890        0.79140
N         -3.94780       -4.43870        1.66060
C         -3.32230       -5.61680        1.99990
N         -1.97870       -5.76900        1.82800
H         -1.52160       -6.65200        2.02420
H         -1.42790       -5.07900        1.34360
N         -4.09080       -6.62180        2.50890
C         -3.52860       -7.88060        3.04650
C         -2.90880       -7.69580        4.43630
C         -2.42740       -9.04590        4.95890
H          1.26920       -2.94970       -1.40030
H         -2.44240       -0.24050        1.13770
H         -2.48380       -1.28580       -0.28170
H         -3.35920       -1.91040        2.36520
H         -1.85540       -2.80140        2.26590
H         -2.65800       -3.87750        0.04680
H         -4.17710       -2.95650        0.19180
H         -4.93210       -4.30550        1.89170
H         -5.06320       -6.43440        2.76120
H         -2.80350       -8.32150        2.32590
H         -4.37910       -8.61420        3.09440
H         -3.64980       -7.26630        5.14310
H         -2.07090       -6.97570        4.41390
H         -3.24990       -9.76850        5.06200
H         -1.97730       -8.94600        5.95960
H         -1.66500       -9.50090        4.31510
