37
rmsd138.gzmat
N          0.00000        0.00000        0.00000
H          1.04350        0.00000        0.00000
H         -0.30930        0.00000       -0.99290
H         -0.33510        0.87220        0.45250
C         -0.53470       -1.22820        0.73240
H         -0.12820       -1.20800        1.79130
C         -0.03350       -2.50330        0.05340
O         -0.33620       -3.62150        0.35030
O          0.81170       -2.17770       -0.93360
C         -2.06880       -1.21040        0.75570
C         -2.64000       -2.31150        1.66230
C         -3.35090       -3.41100        0.84890
N         -3.96840       -4.42130        1.71320
C         -3.29630       -5.52400        2.19510
N         -4.01800       -6.41510        2.93540
H         -3.60880       -7.27970        3.26690
H         -5.01210       -6.30650        3.08310
N         -1.96140       -5.69810        1.98990
C         -1.29710       -7.01060        2.17040
C         -1.66450       -7.99740        1.05490
C         -0.93710       -9.31870        1.28100
H          1.21430       -2.95600       -1.43810
H         -2.43750       -0.22480        1.12880
H         -2.48910       -1.29710       -0.27030
H         -3.36450       -1.86250        2.38100
H         -1.85860       -2.75700        2.30890
H         -2.66310       -3.88980        0.11390
H         -4.17860       -2.96450        0.23310
H         -4.86000       -4.15540        2.13650
H         -1.44770       -5.02710        1.42070
H         -1.52330       -7.42380        3.18020
H         -0.19370       -6.81740        2.17180
H         -1.39000       -7.58440        0.06300
H         -2.75700       -8.16860        1.01060
H          0.15470       -9.19850        1.28580
H         -1.16710      -10.03840        0.47780
H         -1.22310       -9.80050        2.22460
