37
rmsd146.gzmat
N          0.00000        0.00000        0.00000
H          1.04460        0.00000        0.00000
H         -0.30600        0.00000       -0.99350
H         -0.33520        0.86650        0.45450
C         -0.52850       -1.23780        0.72100
H         -0.17340       -1.19860        1.79590
C          0.05960       -2.49970        0.07450
O         -0.15910       -3.62560        0.39600
O          0.88440       -2.12320       -0.92190
C         -2.06180       -1.27110        0.66800
C         -2.61060       -2.36260        1.59660
C         -4.14760       -2.44830        1.50650
N         -4.56680       -3.73060        2.10500
C         -5.86200       -3.99720        2.49200
N         -6.83500       -3.04760        2.40910
H         -7.74880       -3.19260        2.82600
H         -6.70760       -2.19090        1.90080
N         -6.13110       -5.25130        2.95640
C         -7.44670       -5.63610        3.51390
C         -7.62890       -5.14280        4.95420
C         -8.99660       -5.57960        5.46880
H          1.35680       -2.88150       -1.39280
H         -2.48820       -0.28870        0.97090
H         -2.41920       -1.44870       -0.37150
H         -2.31010       -2.17360        2.65060
H         -2.15760       -3.34930        1.34040
H         -4.49020       -2.38870        0.44490
H         -4.60360       -1.59770        2.06660
H         -3.92290       -4.51050        1.95760
H         -5.35650       -5.87530        3.19170
H         -7.49230       -6.75850        3.47910
H         -8.26960       -5.29080        2.84790
H         -7.52680       -4.04500        5.02870
H         -6.83550       -5.55670        5.61270
H         -9.82300       -5.16850        4.87660
H         -9.15310       -5.24500        6.50730
H         -9.10580       -6.67360        5.47820
