37
rmsd50.gzmat
N          0.00000        0.00000        0.00000
H          1.04430        0.00000        0.00000
H         -0.30990        0.00000       -0.99250
H         -0.33510        0.87110        0.45370
C         -0.53410       -1.22870        0.73160
H         -0.13760       -1.20370        1.79410
C         -0.01610       -2.50150        0.05950
O         -0.35610       -3.61990        0.31070
O          0.89720       -2.17210       -0.86390
C         -2.06780       -1.22450        0.74190
C         -2.63050       -2.32560        1.65520
C         -3.38070       -3.40340        0.84770
N         -3.96600       -4.43150        1.71430
C         -3.29350       -5.56750        2.11510
N         -2.01760       -5.81400        1.70960
H         -1.61750       -6.74390        1.77400
H         -1.47800       -5.12640        1.21110
N         -3.94130       -6.40190        2.98090
C         -3.44220       -7.75080        3.33570
C         -3.99810       -8.83230        2.40400
C         -3.36690       -8.81910        1.01880
H          1.31990       -2.94770       -1.35630
H         -2.45190       -0.23950        1.09940
H         -2.47840       -1.32780       -0.28680
H         -3.32440       -1.87270        2.40030
H         -1.83750       -2.79430        2.27130
H         -2.72560       -3.86450        0.07300
H         -4.23400       -2.94060        0.27980
H         -4.80230       -4.14450        2.22770
H         -4.94890       -6.27780        3.12330
H         -3.78340       -7.93450        4.39230
H         -2.33280       -7.77450        3.38060
H         -5.10280       -8.75090        2.32220
H         -3.83060       -9.83040        2.87810
H         -3.54380       -7.88640        0.47850
H         -3.80200       -9.61970        0.39090
H         -2.28950       -9.01870        1.04730
