40

Br        -0.01210        0.09980        0.16920
C          1.88820        0.04350        0.08780
C          2.64100        0.45520        1.19040
C          4.03260        0.40560        1.12500
C          4.69770       -0.04460       -0.03100
C          3.91040       -0.46740       -1.11880
C          2.51830       -0.42130       -1.06960
C          6.18170       -0.05770       -0.10540
C          6.90830        0.90250        0.52870
C          8.36000        0.97780        0.72030
C          8.97270        2.24260        0.82130
C         10.35060        2.36060        0.99890
C         11.14490        1.21470        1.10220
C         10.54780       -0.04870        1.03770
C          9.17140       -0.16760        0.85340
C          6.80050       -1.12220       -0.91990
C          6.51470       -2.44100       -0.90680
C          7.33470       -3.15740       -1.90990
O          7.36040       -4.34430       -2.15200
N          8.10620       -2.15730       -2.54430
C          7.80500       -0.83780       -2.01010
C          9.05870       -2.28890       -3.56090
O          9.61350       -1.29210       -3.97750
C          9.33970       -3.67620       -4.07950
H          2.14190        0.79690        2.09820
H          4.61410        0.69660        2.00180
H          4.39350       -0.82960       -2.02770
H          1.92410       -0.74260       -1.92610
H          6.34600        1.73120        0.97000
H          8.35490        3.14100        0.74380
H         10.80750        3.35110        1.05960
H         12.22420        1.30510        1.24440
H         11.15910       -0.94830        1.14040
H          8.71250       -1.15730        0.82980
H          5.80450       -2.96100       -0.26600
H          7.36190       -0.18700       -2.78420
H          8.71580       -0.33180       -1.66320
H          9.67740       -4.33800       -3.26930
H         10.10700       -3.59230       -4.85860
H          8.42600       -4.13760       -4.48050
