rmsd160.gzmat
 OpenBabel08211713373D

 40 42  0  0  0  0  0  0  0  0999 V2000
    0.0000    0.0000    0.0000 Br  0  0  0  0  0  0  0  0  0  0  0  0
    1.8982    0.0000    0.0000 C   0  0  0  0  0  0  0  0  0  0  0  0
    2.5708    0.0000    1.2159 C   0  0  0  0  0  0  0  0  0  0  0  0
    3.9644    0.0006    1.2115 C   0  0  0  0  0  0  0  0  0  0  0  0
    4.6607    0.0063    0.0002 C   0  0  0  0  0  0  0  0  0  0  0  0
    3.9636    0.0068   -1.2116 C   0  0  0  0  0  0  0  0  0  0  0  0
    2.5707    0.0015   -1.2166 C   0  0  0  0  0  0  0  0  0  0  0  0
    6.1310    0.0237   -0.0014 C   0  0  0  0  0  0  0  0  0  0  0  0
    6.8513   -0.9422    0.5909 C   0  0  0  0  0  0  0  0  0  0  0  0
    8.3149   -0.9471    0.6209 C   0  0  0  0  0  0  0  0  0  0  0  0
    9.0082    0.0524    1.3086 C   0  0  0  0  0  0  0  0  0  0  0  0
   10.4007    0.0561    1.3066 C   0  0  0  0  0  0  0  0  0  0  0  0
   11.1011   -0.9329    0.6177 C   0  0  0  0  0  0  0  0  0  0  0  0
   10.4081   -1.9350   -0.0602 C   0  0  0  0  0  0  0  0  0  0  0  0
    9.0157   -1.9489   -0.0551 C   0  0  0  0  0  0  0  0  0  0  0  0
    6.7403    1.1589   -0.6771 C   0  0  0  0  0  0  0  0  0  0  0  0
    6.6012    2.4695   -0.4007 C   0  0  0  0  0  0  0  0  0  0  0  0
    7.4283    3.2739   -1.3365 C   0  0  0  0  0  0  0  0  0  0  0  0
    7.5865    4.4631   -1.4098 O   0  0  0  0  0  0  0  0  0  0  0  0
    8.0651    2.3477   -2.2071 N   0  0  0  0  0  0  0  0  0  0  0  0
    7.6775    0.9610   -1.8547 C   0  0  0  0  0  0  0  0  0  0  0  0
    8.9841    2.5841   -3.2440 C   0  0  0  0  0  0  0  0  0  0  0  0
    9.4223    1.6253   -3.8367 O   0  0  0  0  0  0  0  0  0  0  0  0
    9.3368    4.0039   -3.5305 C   0  0  0  0  0  0  0  0  0  0  0  0
    2.0315    0.0013    2.1632 H   0  0  0  0  0  0  0  0  0  0  0  0
    4.5105    0.0018    2.1548 H   0  0  0  0  0  0  0  0  0  0  0  0
    4.5103    0.0122   -2.1547 H   0  0  0  0  0  0  0  0  0  0  0  0
    2.0307    0.0018   -2.1641 H   0  0  0  0  0  0  0  0  0  0  0  0
    6.3715   -1.7915    1.0855 H   0  0  0  0  0  0  0  0  0  0  0  0
    8.4590    0.8283    1.8396 H   0  0  0  0  0  0  0  0  0  0  0  0
   10.9420    0.8359    1.8401 H   0  0  0  0  0  0  0  0  0  0  0  0
   12.1897   -0.9217    0.6075 H   0  0  0  0  0  0  0  0  0  0  0  0
   10.9557   -2.7068   -0.5989 H   0  0  0  0  0  0  0  0  0  0  0  0
    8.4749   -2.7306   -0.5854 H   0  0  0  0  0  0  0  0  0  0  0  0
    6.0091    2.9468    0.3582 H   0  0  0  0  0  0  0  0  0  0  0  0
    8.5751    0.3538   -1.5918 H   0  0  0  0  0  0  0  0  0  0  0  0
    7.1846    0.4578   -2.7148 H   0  0  0  0  0  0  0  0  0  0  0  0
    8.4456    4.6093   -3.7698 H   0  0  0  0  0  0  0  0  0  0  0  0
   10.0356    4.0736   -4.3774 H   0  0  0  0  0  0  0  0  0  0  0  0
    9.8030    4.4947   -2.6594 H   0  0  0  0  0  0  0  0  0  0  0  0
  2  1  1  0  0  0  0
  2  3  2  0  0  0  0
  3 25  1  0  0  0  0
  4  3  1  0  0  0  0
  4 26  1  0  0  0  0
  5  4  2  0  0  0  0
  6  5  1  0  0  0  0
  7  6  2  0  0  0  0
  7  2  1  0  0  0  0
  8  5  1  0  0  0  0
  8  9  2  0  0  0  0
  9 10  1  0  0  0  0
  9 29  1  0  0  0  0
 10 11  2  0  0  0  0
 11 30  1  0  0  0  0
 12 11  1  0  0  0  0
 12 31  1  0  0  0  0
 13 12  2  0  0  0  0
 14 15  2  0  0  0  0
 14 13  1  0  0  0  0
 15 10  1  0  0  0  0
 16 17  2  0  0  0  0
 16  8  1  0  0  0  0
 17 35  1  0  0  0  0
 18 17  1  0  0  0  0
 19 18  2  0  0  0  0
 20 21  1  0  0  0  0
 20 18  1  0  0  0  0
 21 36  1  0  0  0  0
 21 16  1  0  0  0  0
 22 20  1  0  0  0  0
 23 22  2  0  0  0  0
 24 22  1  0  0  0  0
 24 40  1  0  0  0  0
 27  6  1  0  0  0  0
 28  7  1  0  0  0  0
 32 13  1  0  0  0  0
 33 14  1  0  0  0  0
 34 15  1  0  0  0  0
 37 21  1  0  0  0  0
 38 24  1  0  0  0  0
 39 24  1  0  0  0  0
M  END
$$$$
