40
rmsd158.gzmat
Br         0.00000        0.00000        0.00000
C          1.89800        0.00000        0.00000
C          2.57040        0.00000        1.21610
C          3.96370       -0.00110        1.21070
C          4.66160       -0.00420       -0.00060
C          3.96360        0.00320       -1.21220
C          2.57110        0.00280       -1.21630
C          6.13090       -0.02290        0.00070
C          6.82350       -0.93730        0.69990
C          8.28520       -0.98890        0.73740
C          9.01730        0.09350        1.23280
C         10.40840        0.03790        1.25470
C         11.07000       -1.09370        0.78030
C         10.33890       -2.17420        0.28830
C          8.94730       -2.12780        0.27170
C          6.77900        1.00020       -0.80560
C          6.75630        2.33740       -0.65110
C          7.58460        2.98140       -1.70360
O          7.82090        4.14220       -1.90610
N          8.10270        1.92880       -2.50640
C          7.63350        0.61700       -2.00020
C          8.94260        1.99220       -3.63160
O          9.22410        0.95200       -4.18120
C          9.42000        3.34000       -4.05270
H          2.03070       -0.00160        2.16380
H          4.50970        0.00620        2.15410
H          4.50830        0.00810       -2.15660
H          2.03150        0.00490       -2.16420
H          6.31630       -1.71040        1.28490
H          8.49910        0.97870        1.59890
H         10.97910        0.88130        1.64070
H         12.15800       -1.13380        0.79400
H         10.85680       -3.05600       -0.08580
H          8.37720       -2.97260       -0.11020
H          6.25030        2.93090        0.08770
H          8.49660       -0.02870       -1.71480
H          7.06330        0.07050       -2.78260
H          8.58360        4.01770       -4.29510
H         10.06960        3.26740       -4.93830
H          9.98670        3.84320       -3.25100
