40
rmsd155.gzmat
Br         0.00000        0.00000        0.00000
C          1.89810        0.00000        0.00000
C          2.57280        0.00000        1.21480
C          3.96630        0.00380        1.20770
C          4.66100        0.00840       -0.00480
C          3.96110        0.00820       -1.21560
C          2.56850        0.00170       -1.21790
C          6.13030        0.02400       -0.00910
C          6.85420       -0.88930        0.65870
C          8.31700       -0.90310        0.67880
C          9.03290        0.21460        1.11700
C         10.42500        0.19630        1.10320
C         11.10400       -0.93550        0.65480
C         10.39000       -2.05570        0.23120
C          8.99770       -2.04430        0.24650
C          6.73650        1.09330       -0.78710
C          6.65630        2.42310       -0.59280
C          7.44880        3.13300       -1.63000
O          7.64070        4.30790       -1.79370
N          7.99760        2.12800       -2.47290
C          7.60010        0.78220       -1.99550
C          8.83570        2.26060       -3.59320
O          9.20390        1.24770       -4.14240
C          9.19450        3.64420       -4.01570
H          2.03570       -0.00100        2.16340
H          4.51440        0.01120        2.14980
H          4.50450        0.01290       -2.16060
H          2.02650        0.00080       -2.16420
H          6.37230       -1.69210        1.22430
H          8.50050        1.09880        1.46580
H         10.98310        1.06870        1.44030
H         12.19240       -0.94460        0.63510
H         10.92170       -2.94120       -0.11390
H          8.43990       -2.91780       -0.08670
H          6.12610        2.96990        0.16490
H          8.49640        0.17370       -1.73110
H          7.05290        0.22550       -2.78680
H          8.30040        4.24770       -4.24860
H          9.83940        3.62880       -4.90750
H          9.72410        4.19320       -3.21800
