40
rmsd164.gzmat
Br         0.00000        0.00000        0.00000
C          1.89840        0.00000        0.00000
C          2.57190        0.00000        1.21560
C          3.96530       -0.00150        1.20950
C          4.66090       -0.00100       -0.00260
C          3.96360        0.00150       -1.21420
C          2.57030        0.00020       -1.21710
C          6.13120       -0.00060       -0.00210
C          6.82900       -0.96950        0.61360
C          8.29010       -1.00520        0.66550
C          8.99620        0.04850        1.25290
C         10.38780        0.02380        1.27340
C         11.07560       -1.05020        0.71020
C         10.37040       -2.10650        0.13490
C          8.97790       -2.09040        0.11640
C          6.75520        1.11170       -0.70110
C          6.60210        2.43170       -0.48110
C          7.45060        3.20410       -1.42480
O          7.60240        4.39060       -1.54220
N          8.11880        2.24850       -2.23820
C          7.72600        0.87440       -1.84410
C          9.08490        2.44950       -3.23930
O          9.56470        1.47030       -3.76300
C          9.43370        3.85890       -3.57820
H          2.03480        0.00180        2.16420
H          4.51190        0.00180        2.15230
H          4.50980        0.00330       -2.15760
H          2.02870        0.00090       -2.16380
H          6.32400       -1.79980        1.11720
H          8.45550        0.88690        1.68990
H         10.93810        0.84700        1.72620
H         12.16450       -1.06350        0.71960
H         10.90900       -2.94440       -0.30490
H          8.42720       -2.91420       -0.33420
H          5.98750        2.93580        0.24190
H          8.61750        0.28080       -1.53400
H          7.25840        0.33740       -2.69800
H          8.55150        4.43200       -3.91090
H         10.18870        3.89630       -4.37830
H          9.83080        4.40640       -2.70640
