27
rmsd6.gzmat
N          0.00000        0.00000        0.00000
C          1.37780        0.00000        0.00000
N          1.99110        0.00000        1.13620
C          3.34350       -0.23860        1.36840
C          3.95590       -1.45170        1.00760
C          5.28390       -1.67860        1.34440
C          6.00610       -0.70430        2.03550
C          5.39260        0.49010        2.42210
C          4.06720        0.72990        2.08930
C          7.43710       -0.95500        2.39450
F          8.19440        0.13970        2.48380
F          7.59590       -1.56080        3.57290
F          8.10420       -1.72850        1.53600
S          2.09560       -0.06150       -1.67680
C          3.44800        1.17700       -1.57190
C          2.94070        2.58090       -1.30760
H         -0.51480        0.35540       -0.78110
H         -0.47730        0.01080        0.88750
H          3.38480       -2.21410        0.48090
H          5.74710       -2.62730        1.06240
H          5.94260        1.24430        2.99040
H          3.57310        1.65220        2.39040
H          3.97680        1.11900       -2.54630
H          4.18600        0.87170       -0.80250
H          2.21000        2.91590       -2.05640
H          3.76820        3.30660       -1.33050
H          2.47040        2.67900       -0.31930
