27
rmsd34.gzmat
N          0.00000        0.00000        0.00000
C          1.37850        0.00000        0.00000
N          1.98780        0.00000        1.13860
C          3.33940        0.22710        1.38100
C          3.97020        1.43200        1.02470
C          5.30280        1.63790        1.35970
C          6.00890        0.65050        2.04570
C          5.37870       -0.53940        2.42390
C          4.04850       -0.75550        2.09930
C          7.45450        0.82630        2.38940
F          7.72960        0.66350        3.68510
F          8.25560       -0.04590        1.77190
F          7.98430        2.01380        2.09580
S          2.07870        0.06050       -1.68260
C          3.59440       -0.96850       -1.55750
C          3.31040       -2.40510       -1.16720
H         -0.51370       -0.35530       -0.78170
H         -0.47800       -0.01530        0.88720
H          3.41070        2.20520        0.50150
H          5.77900        2.57860        1.07320
H          5.92800       -1.30790        2.97360
H          3.53790       -1.66910        2.39910
H          4.31510       -0.50130       -0.85570
H          4.06550       -0.91460       -2.56170
H          2.84880       -2.49130       -0.17350
H          4.24280       -2.98920       -1.12540
H          2.65050       -2.91540       -1.88170
