rmsd34.gzmat
 OpenBabel08211713423D

 27 27  0  0  0  0  0  0  0  0999 V2000
    0.0000    0.0000    0.0000 N   0  0  0  0  0  0  0  0  0  0  0  0
    1.3785    0.0000    0.0000 C   0  0  0  0  0  0  0  0  0  0  0  0
    1.9878    0.0000    1.1386 N   0  0  0  0  0  0  0  0  0  0  0  0
    3.3394    0.2271    1.3810 C   0  0  0  0  0  0  0  0  0  0  0  0
    3.9702    1.4320    1.0247 C   0  0  0  0  0  0  0  0  0  0  0  0
    5.3028    1.6379    1.3597 C   0  0  0  0  0  0  0  0  0  0  0  0
    6.0089    0.6505    2.0457 C   0  0  0  0  0  0  0  0  0  0  0  0
    5.3787   -0.5394    2.4239 C   0  0  0  0  0  0  0  0  0  0  0  0
    4.0485   -0.7555    2.0993 C   0  0  0  0  0  0  0  0  0  0  0  0
    7.4545    0.8263    2.3894 C   0  0  0  0  0  0  0  0  0  0  0  0
    7.7296    0.6635    3.6851 F   0  0  0  0  0  0  0  0  0  0  0  0
    8.2556   -0.0459    1.7719 F   0  0  0  0  0  0  0  0  0  0  0  0
    7.9843    2.0138    2.0958 F   0  0  0  0  0  0  0  0  0  0  0  0
    2.0787    0.0605   -1.6826 S   0  0  0  0  0  0  0  0  0  0  0  0
    3.5944   -0.9685   -1.5575 C   0  0  0  0  0  0  0  0  0  0  0  0
    3.3104   -2.4051   -1.1672 C   0  0  0  0  0  0  0  0  0  0  0  0
   -0.5137   -0.3553   -0.7817 H   0  0  0  0  0  0  0  0  0  0  0  0
   -0.4780   -0.0153    0.8872 H   0  0  0  0  0  0  0  0  0  0  0  0
    3.4107    2.2052    0.5015 H   0  0  0  0  0  0  0  0  0  0  0  0
    5.7790    2.5786    1.0732 H   0  0  0  0  0  0  0  0  0  0  0  0
    5.9280   -1.3079    2.9736 H   0  0  0  0  0  0  0  0  0  0  0  0
    3.5379   -1.6691    2.3991 H   0  0  0  0  0  0  0  0  0  0  0  0
    4.3151   -0.5013   -0.8557 H   0  0  0  0  0  0  0  0  0  0  0  0
    4.0655   -0.9146   -2.5617 H   0  0  0  0  0  0  0  0  0  0  0  0
    2.8488   -2.4913   -0.1735 H   0  0  0  0  0  0  0  0  0  0  0  0
    4.2428   -2.9892   -1.1254 H   0  0  0  0  0  0  0  0  0  0  0  0
    2.6505   -2.9154   -1.8817 H   0  0  0  0  0  0  0  0  0  0  0  0
  1 18  1  0  0  0  0
  2  1  1  0  0  0  0
  2  3  2  0  0  0  0
  3  4  1  0  0  0  0
  4  9  2  0  0  0  0
  5  6  2  0  0  0  0
  5  4  1  0  0  0  0
  6  7  1  0  0  0  0
  7 10  1  0  0  0  0
  7  8  2  0  0  0  0
  8 21  1  0  0  0  0
  9 22  1  0  0  0  0
  9  8  1  0  0  0  0
 10 11  1  0  0  0  0
 12 10  1  0  0  0  0
 13 10  1  0  0  0  0
 14 15  1  0  0  0  0
 14  2  1  0  0  0  0
 15 16  1  0  0  0  0
 15 23  1  0  0  0  0
 16 26  1  0  0  0  0
 16 25  1  0  0  0  0
 17  1  1  0  0  0  0
 19  5  1  0  0  0  0
 20  6  1  0  0  0  0
 24 15  1  0  0  0  0
 27 16  1  0  0  0  0
M  END
$$$$
