rmsd6.gzmat
 OpenBabel08211713423D

 27 27  0  0  0  0  0  0  0  0999 V2000
    0.0000    0.0000    0.0000 N   0  0  0  0  0  0  0  0  0  0  0  0
    1.3778    0.0000    0.0000 C   0  0  0  0  0  0  0  0  0  0  0  0
    1.9911    0.0000    1.1362 N   0  0  0  0  0  0  0  0  0  0  0  0
    3.3435   -0.2386    1.3684 C   0  0  0  0  0  0  0  0  0  0  0  0
    3.9559   -1.4517    1.0076 C   0  0  0  0  0  0  0  0  0  0  0  0
    5.2839   -1.6786    1.3444 C   0  0  0  0  0  0  0  0  0  0  0  0
    6.0061   -0.7043    2.0355 C   0  0  0  0  0  0  0  0  0  0  0  0
    5.3926    0.4901    2.4221 C   0  0  0  0  0  0  0  0  0  0  0  0
    4.0672    0.7299    2.0893 C   0  0  0  0  0  0  0  0  0  0  0  0
    7.4371   -0.9550    2.3945 C   0  0  0  0  0  0  0  0  0  0  0  0
    8.1944    0.1397    2.4838 F   0  0  0  0  0  0  0  0  0  0  0  0
    7.5959   -1.5608    3.5729 F   0  0  0  0  0  0  0  0  0  0  0  0
    8.1042   -1.7285    1.5360 F   0  0  0  0  0  0  0  0  0  0  0  0
    2.0956   -0.0615   -1.6768 S   0  0  0  0  0  0  0  0  0  0  0  0
    3.4480    1.1770   -1.5719 C   0  0  0  0  0  0  0  0  0  0  0  0
    2.9407    2.5809   -1.3076 C   0  0  0  0  0  0  0  0  0  0  0  0
   -0.5148    0.3554   -0.7811 H   0  0  0  0  0  0  0  0  0  0  0  0
   -0.4773    0.0108    0.8875 H   0  0  0  0  0  0  0  0  0  0  0  0
    3.3848   -2.2141    0.4809 H   0  0  0  0  0  0  0  0  0  0  0  0
    5.7471   -2.6273    1.0624 H   0  0  0  0  0  0  0  0  0  0  0  0
    5.9426    1.2443    2.9904 H   0  0  0  0  0  0  0  0  0  0  0  0
    3.5731    1.6522    2.3904 H   0  0  0  0  0  0  0  0  0  0  0  0
    3.9768    1.1190   -2.5463 H   0  0  0  0  0  0  0  0  0  0  0  0
    4.1860    0.8717   -0.8025 H   0  0  0  0  0  0  0  0  0  0  0  0
    2.2100    2.9159   -2.0564 H   0  0  0  0  0  0  0  0  0  0  0  0
    3.7682    3.3066   -1.3305 H   0  0  0  0  0  0  0  0  0  0  0  0
    2.4704    2.6790   -0.3193 H   0  0  0  0  0  0  0  0  0  0  0  0
  1  2  1  0  0  0  0
  1 18  1  0  0  0  0
  2  3  2  0  0  0  0
  3  4  1  0  0  0  0
  4  9  2  0  0  0  0
  5  6  2  0  0  0  0
  5  4  1  0  0  0  0
  6  7  1  0  0  0  0
  7 10  1  0  0  0  0
  7  8  2  0  0  0  0
  8 21  1  0  0  0  0
  9 22  1  0  0  0  0
  9  8  1  0  0  0  0
 10 11  1  0  0  0  0
 10 12  1  0  0  0  0
 13 10  1  0  0  0  0
 14 15  1  0  0  0  0
 14  2  1  0  0  0  0
 15 16  1  0  0  0  0
 15 24  1  0  0  0  0
 16 27  1  0  0  0  0
 17  1  1  0  0  0  0
 19  5  1  0  0  0  0
 20  6  1  0  0  0  0
 23 15  1  0  0  0  0
 25 16  1  0  0  0  0
 26 16  1  0  0  0  0
M  END
$$$$
