27
rmsd38.gzmat
N          0.00000        0.00000        0.00000
C          1.37900        0.00000        0.00000
N          1.98850        0.00000        1.13850
C          3.33800       -0.23800        1.38100
C          4.05620        0.73500        2.10290
C          5.38250        0.50170        2.43220
C          5.99880       -0.69580        2.05480
C          5.28490       -1.67160        1.35970
C          3.95660       -1.44760        1.01940
C          7.43810       -0.89320        2.41220
F          7.71070       -0.69110        3.70300
F          7.93950       -2.10300        2.16440
F          8.26350       -0.06300        1.76920
S          2.07760       -0.06350       -1.68290
C          3.59790        0.95900       -1.56210
C          3.32260        2.39430       -1.15950
H         -0.51310        0.37270       -0.77440
H         -0.47620        0.00790        0.88880
H          3.55770        1.65490        2.40380
H          5.93910        1.26260        2.98580
H          5.75060       -2.61660        1.07020
H          3.38990       -2.21000        0.48790
H          4.05990        0.91020       -2.57070
H          4.32250        0.48550       -0.86870
H          2.63350        2.90190       -1.84800
H          4.25310        2.98270       -1.15310
H          2.89900        2.47530       -0.14790
