27
rmsd46.gzmat
N          0.00000        0.00000        0.00000
C          1.37940        0.00000        0.00000
N          1.98460        0.00000        1.14070
C          3.32800       -0.24030        1.40640
C          4.01030        0.70110        2.20200
C          5.32700        0.46540        2.56520
C          5.97110       -0.70370        2.14740
C          5.29330       -1.64900        1.37900
C          3.97410       -1.42350        1.00590
C          7.39810       -0.90550        2.54870
F          7.61030       -0.81240        3.86320
F          7.93630       -2.07940        2.21910
F          8.23250       -0.00790        2.01820
S          2.06340       -0.05510       -1.68790
C          3.64160        0.87370       -1.57490
C          3.47470        2.29930       -1.09020
H         -0.51410        0.37170       -0.77430
H         -0.47680        0.00540        0.88820
H          3.49000        1.59810        2.53350
H          5.85560        1.20170        3.17650
H          5.77940       -2.57370        1.05890
H          3.43580       -2.16690        0.42150
H          4.05820        0.85260       -2.60420
H          4.36190        0.32140       -0.93810
H          2.78940        2.88310       -1.71920
H          4.44100        2.82750       -1.09820
H          3.10300        2.35350       -0.05730
