rmsd33.gzmat
 OpenBabel08211713423D

 27 27  0  0  0  0  0  0  0  0999 V2000
    0.0000    0.0000    0.0000 N   0  0  0  0  0  0  0  0  0  0  0  0
    1.3793    0.0000    0.0000 C   0  0  0  0  0  0  0  0  0  0  0  0
    1.9883    0.0000    1.1387 N   0  0  0  0  0  0  0  0  0  0  0  0
    3.3384    0.2312    1.3838 C   0  0  0  0  0  0  0  0  0  0  0  0
    3.9697    1.4329    1.0131 C   0  0  0  0  0  0  0  0  0  0  0  0
    5.3013    1.6382    1.3459 C   0  0  0  0  0  0  0  0  0  0  0  0
    6.0094    0.6548    2.0407 C   0  0  0  0  0  0  0  0  0  0  0  0
    5.3764   -0.5221    2.4446 C   0  0  0  0  0  0  0  0  0  0  0  0
    4.0449   -0.7390    2.1191 C   0  0  0  0  0  0  0  0  0  0  0  0
    7.4497    0.9038    2.3596 C   0  0  0  0  0  0  0  0  0  0  0  0
    7.6387    1.8347    3.2968 F   0  0  0  0  0  0  0  0  0  0  0  0
    8.1357   -0.1497    2.8031 F   0  0  0  0  0  0  0  0  0  0  0  0
    8.1677    1.3345    1.3193 F   0  0  0  0  0  0  0  0  0  0  0  0
    2.0702    0.0624   -1.6859 S   0  0  0  0  0  0  0  0  0  0  0  0
    3.6276   -0.9012   -1.5704 C   0  0  0  0  0  0  0  0  0  0  0  0
    3.4152   -2.3416   -1.1506 C   0  0  0  0  0  0  0  0  0  0  0  0
   -0.5127   -0.3733   -0.7740 H   0  0  0  0  0  0  0  0  0  0  0  0
   -0.4767   -0.0096    0.8882 H   0  0  0  0  0  0  0  0  0  0  0  0
    3.4099    2.2011    0.4829 H   0  0  0  0  0  0  0  0  0  0  0  0
    5.7861    2.5751    1.0586 H   0  0  0  0  0  0  0  0  0  0  0  0
    5.9112   -1.2827    3.0183 H   0  0  0  0  0  0  0  0  0  0  0  0
    3.5342   -1.6476    2.4338 H   0  0  0  0  0  0  0  0  0  0  0  0
    4.3413   -0.3931   -0.8906 H   0  0  0  0  0  0  0  0  0  0  0  0
    4.0766   -0.8457   -2.5847 H   0  0  0  0  0  0  0  0  0  0  0  0
    2.9860   -2.4287   -0.1425 H   0  0  0  0  0  0  0  0  0  0  0  0
    4.3726   -2.8848   -1.1264 H   0  0  0  0  0  0  0  0  0  0  0  0
    2.7581   -2.8906   -1.8379 H   0  0  0  0  0  0  0  0  0  0  0  0
  1 18  1  0  0  0  0
  2  1  1  0  0  0  0
  2  3  2  0  0  0  0
  3  4  1  0  0  0  0
  4  9  2  0  0  0  0
  5  6  2  0  0  0  0
  5  4  1  0  0  0  0
  6  7  1  0  0  0  0
  7 10  1  0  0  0  0
  7  8  2  0  0  0  0
  8 21  1  0  0  0  0
  9 22  1  0  0  0  0
  9  8  1  0  0  0  0
 10 12  1  0  0  0  0
 10 11  1  0  0  0  0
 13 10  1  0  0  0  0
 14 15  1  0  0  0  0
 14  2  1  0  0  0  0
 15 16  1  0  0  0  0
 15 23  1  0  0  0  0
 16 26  1  0  0  0  0
 16 25  1  0  0  0  0
 17  1  1  0  0  0  0
 19  5  1  0  0  0  0
 20  6  1  0  0  0  0
 24 15  1  0  0  0  0
 27 16  1  0  0  0  0
M  END
$$$$
