27
rmsd44.gzmat
N          0.00000        0.00000        0.00000
C          1.37960        0.00000        0.00000
N          1.98510        0.00000        1.14030
C          3.32970        0.23430        1.40560
C          3.97370        1.42570        1.02440
C          5.29170        1.64300        1.40090
C          5.97470        0.68180        2.14980
C          5.33370       -0.49250        2.54820
C          4.01500       -0.72010        2.18130
C          7.40000        0.95160        2.51590
F          7.56780        2.04590        3.26120
F          8.01680       -0.00680        3.20690
F          8.19490        1.14840        1.46090
S          2.06200        0.05600       -1.68810
C          3.64880       -0.85720       -1.57660
C          3.49850       -2.28280       -1.08700
H         -0.51310       -0.36920       -0.77580
H         -0.47680       -0.01100        0.88810
H          3.43230        2.17730        0.45370
H          5.78790        2.57130        1.10480
H          5.85150       -1.24360        3.14900
H          3.49580       -1.62370        2.49640
H          4.36560       -0.29590       -0.94300
H          4.06210       -0.83460       -2.60750
H          3.14250       -2.33710       -0.04830
H          4.46760       -2.80420       -1.10850
H          2.80860       -2.87370       -1.70380
