27
rmsd5.gzmat
N          0.00000        0.00000        0.00000
C          1.37790        0.00000        0.00000
N          1.98630        0.00000        1.13890
C          3.32940       -0.25280        1.39730
C          4.03580        0.68880        2.16950
C          5.34860        0.43230        2.53910
C          5.96350       -0.75790        2.14560
C          5.26240       -1.70110        1.39020
C          3.94940       -1.45560        1.01330
C          7.38610       -1.05040        2.50520
F          7.57970       -2.26270        3.02880
F          8.21530       -1.00970        1.45900
F          7.94430       -0.22710        3.39230
S          2.07820       -0.05290       -1.68320
C          3.54320        1.04440       -1.55200
C          3.17940        2.48760       -1.26560
H         -0.51470        0.35970       -0.77880
H         -0.47800        0.00260        0.88700
H          3.53760        1.60580        2.48040
H          5.88260        1.17380        3.13770
H          5.73970       -2.63710        1.08800
H          3.39500       -2.19540        0.43920
H          4.06950        0.95170       -2.52500
H          4.24460        0.65440       -0.78690
H          2.56180        2.93240       -2.05740
H          4.08540        3.10740       -1.18430
H          2.63640        2.60870       -0.31810
