rmsd38.gzmat
 OpenBabel08211713423D

 27 27  0  0  0  0  0  0  0  0999 V2000
    0.0000    0.0000    0.0000 N   0  0  0  0  0  0  0  0  0  0  0  0
    1.3790    0.0000    0.0000 C   0  0  0  0  0  0  0  0  0  0  0  0
    1.9885    0.0000    1.1385 N   0  0  0  0  0  0  0  0  0  0  0  0
    3.3380   -0.2380    1.3810 C   0  0  0  0  0  0  0  0  0  0  0  0
    4.0562    0.7350    2.1029 C   0  0  0  0  0  0  0  0  0  0  0  0
    5.3825    0.5017    2.4322 C   0  0  0  0  0  0  0  0  0  0  0  0
    5.9988   -0.6958    2.0548 C   0  0  0  0  0  0  0  0  0  0  0  0
    5.2849   -1.6716    1.3597 C   0  0  0  0  0  0  0  0  0  0  0  0
    3.9566   -1.4476    1.0194 C   0  0  0  0  0  0  0  0  0  0  0  0
    7.4381   -0.8932    2.4122 C   0  0  0  0  0  0  0  0  0  0  0  0
    7.7107   -0.6911    3.7030 F   0  0  0  0  0  0  0  0  0  0  0  0
    7.9395   -2.1030    2.1644 F   0  0  0  0  0  0  0  0  0  0  0  0
    8.2635   -0.0630    1.7692 F   0  0  0  0  0  0  0  0  0  0  0  0
    2.0776   -0.0635   -1.6829 S   0  0  0  0  0  0  0  0  0  0  0  0
    3.5979    0.9590   -1.5621 C   0  0  0  0  0  0  0  0  0  0  0  0
    3.3226    2.3943   -1.1595 C   0  0  0  0  0  0  0  0  0  0  0  0
   -0.5131    0.3727   -0.7744 H   0  0  0  0  0  0  0  0  0  0  0  0
   -0.4762    0.0079    0.8888 H   0  0  0  0  0  0  0  0  0  0  0  0
    3.5577    1.6549    2.4038 H   0  0  0  0  0  0  0  0  0  0  0  0
    5.9391    1.2626    2.9858 H   0  0  0  0  0  0  0  0  0  0  0  0
    5.7506   -2.6166    1.0702 H   0  0  0  0  0  0  0  0  0  0  0  0
    3.3899   -2.2100    0.4879 H   0  0  0  0  0  0  0  0  0  0  0  0
    4.0599    0.9102   -2.5707 H   0  0  0  0  0  0  0  0  0  0  0  0
    4.3225    0.4855   -0.8687 H   0  0  0  0  0  0  0  0  0  0  0  0
    2.6335    2.9019   -1.8480 H   0  0  0  0  0  0  0  0  0  0  0  0
    4.2531    2.9827   -1.1531 H   0  0  0  0  0  0  0  0  0  0  0  0
    2.8990    2.4753   -0.1479 H   0  0  0  0  0  0  0  0  0  0  0  0
  1  2  1  0  0  0  0
  1 18  1  0  0  0  0
  2  3  2  0  0  0  0
  3  4  1  0  0  0  0
  4  5  2  0  0  0  0
  5 19  1  0  0  0  0
  5  6  1  0  0  0  0
  6 20  1  0  0  0  0
  7 10  1  0  0  0  0
  7  6  2  0  0  0  0
  8  7  1  0  0  0  0
  9  8  2  0  0  0  0
  9  4  1  0  0  0  0
 10 11  1  0  0  0  0
 12 10  1  0  0  0  0
 13 10  1  0  0  0  0
 14 15  1  0  0  0  0
 14  2  1  0  0  0  0
 15 16  1  0  0  0  0
 15 24  1  0  0  0  0
 16 26  1  0  0  0  0
 16 27  1  0  0  0  0
 17  1  1  0  0  0  0
 21  8  1  0  0  0  0
 22  9  1  0  0  0  0
 23 15  1  0  0  0  0
 25 16  1  0  0  0  0
M  END
$$$$
