32
rmsd1.gzmat
O          0.00000        0.00000        0.00000
C          1.41080        0.00000        0.00000
C          1.93680        0.00000        1.43670
H          1.35420        0.69790        2.08070
O          1.67340       -1.32300        1.91870
C          2.71430       -1.79500        2.73590
H          2.79880       -2.88280        2.47830
C          3.99580       -0.99180        2.33840
H          4.65030       -1.62680        1.69790
C          3.45520        0.24510        1.55660
H          3.96920        0.37450        0.58080
O          3.72220        1.44500        2.20660
O          4.81300       -0.69280        3.41160
N          2.27880       -1.69060        4.12290
C          1.58850       -2.74990        4.78990
N          1.07310       -2.36130        5.94820
C          1.37920       -1.00880        6.07820
C          1.09410       -0.04180        7.07650
N          0.39190       -0.31910        8.20070
N          1.54840        1.24090        6.90020
C          2.25380        1.54450        5.79310
N          2.57860        0.70250        4.78370
C          2.12560       -0.57060        4.92990
H         -0.33260       -0.70400        0.59900
H          1.66980        0.93560       -0.53170
H          1.76620       -0.87550       -0.57290
H          3.30080        1.46450        3.10690
H          4.47790        0.08870        3.92180
H          1.53630       -3.74450        4.37220
H          0.20370        0.39730        8.87650
H          0.03270       -1.24360        8.35370
H          2.60150        2.59070        5.70180
