32
rmsd12.gzmat
O          0.00000        0.00000        0.00000
C          1.41160        0.00000        0.00000
C          1.94210        0.00000        1.43640
H          3.05320       -0.01710        1.46960
O          1.53060        1.26160        1.97580
C          1.05550        1.13650        3.29330
H          0.17520        1.82880        3.33800
C          0.64220       -0.35940        3.49090
H         -0.46770       -0.45200        3.44550
C          1.32680       -1.11170        2.31260
H          0.61030       -1.76100        1.76090
O          2.29980       -2.00720        2.74320
O          0.94030       -0.84680        4.74960
N          2.08080        1.65260        4.19120
C          2.10290        3.00820        4.64140
N          3.22360        3.30390        5.28660
C          4.00580        2.15210        5.25910
C          5.29220        1.84030        5.77020
N          6.05020        2.72390        6.46250
N          5.79710        0.58220        5.56200
C          5.05320       -0.32540        4.89840
N          3.81570       -0.13730        4.38430
C          3.30490        1.11040        4.55770
H         -0.32200        0.79200        0.48210
H          1.77500        0.87690       -0.56690
H          1.67660       -0.93160       -0.53460
H          3.01590       -1.54110        3.24890
H          1.89480       -1.10330        4.82680
H          1.27240        3.67770        4.47150
H          6.95590        2.46480        6.80470
H          5.71360        3.65550        6.62350
H          5.50170       -1.32760        4.76460
