
     RDKit          3D

 32 34  0  0  0  0  0  0  0  0999 V2000
   -0.1080   -0.1792    0.0617 O   0  0  0  0  0  0  0  0  0  0  0  0
    1.2982   -0.2327    0.0048 C   0  0  0  0  0  0  0  0  0  0  0  0
    1.9074   -0.0514    1.3854 C   0  0  1  0  0  0  0  0  0  0  0  0
    3.0086   -0.0701    1.3263 H   0  0  0  0  0  0  0  0  0  0  0  0
    1.4733    1.2421    1.8572 O   0  0  0  0  0  0  0  0  0  0  0  0
    1.1580    1.2181    3.2199 C   0  0  1  0  0  0  0  0  0  0  0  0
    0.3316    1.9252    3.3816 H   0  0  0  0  0  0  0  0  0  0  0  0
    0.7230   -0.2415    3.5264 C   0  0  1  0  0  0  0  0  0  0  0  0
   -0.3673   -0.2767    3.3539 H   0  0  0  0  0  0  0  0  0  0  0  0
    1.4331   -1.0914    2.4237 C   0  0  2  0  0  0  0  0  0  0  0  0
    0.7076   -1.7797    1.9696 H   0  0  0  0  0  0  0  0  0  0  0  0
    2.4605   -1.8697    2.9735 O   0  0  0  0  0  0  0  0  0  0  0  0
    1.0282   -0.6803    4.8079 O   0  0  0  0  0  0  0  0  0  0  0  0
    2.2351    1.7209    4.0663 N   0  0  0  0  0  0  0  0  0  0  0  0
    2.1582    2.9012    4.7916 C   0  0  0  0  0  0  0  0  0  0  0  0
    3.2400    3.1828    5.4683 N   0  0  0  0  0  0  0  0  0  0  0  0
    4.0950    2.1401    5.1836 C   0  0  0  0  0  0  0  0  0  0  0  0
    5.4225    1.8655    5.5891 C   0  0  0  0  0  0  0  0  0  0  0  0
    6.0984    2.6853    6.4158 N   0  0  0  0  0  0  0  0  0  0  0  0
    6.0207    0.7524    5.1283 N   0  0  0  0  0  0  0  0  0  0  0  0
    5.3414   -0.0526    4.3133 C   0  0  0  0  0  0  0  0  0  0  0  0
    4.0904    0.1005    3.8617 N   0  0  0  0  0  0  0  0  0  0  0  0
    3.4933    1.2127    4.3186 C   0  0  0  0  0  0  0  0  0  0  0  0
   -0.3234    0.6757    0.4621 H   0  0  0  0  0  0  0  0  0  0  0  0
    1.7137    0.5326   -0.6800 H   0  0  0  0  0  0  0  0  0  0  0  0
    1.5812   -1.2222   -0.3875 H   0  0  0  0  0  0  0  0  0  0  0  0
    3.1877   -1.2414    3.2304 H   0  0  0  0  0  0  0  0  0  0  0  0
    1.6742   -1.4020    4.6711 H   0  0  0  0  0  0  0  0  0  0  0  0
    1.2504    3.5052    4.7656 H   0  0  0  0  0  0  0  0  0  0  0  0
    7.0443    2.4479    6.6827 H   0  0  0  0  0  0  0  0  0  0  0  0
    5.6525    3.5201    6.7703 H   0  0  0  0  0  0  0  0  0  0  0  0
    5.8661   -0.9515    3.9708 H   0  0  0  0  0  0  0  0  0  0  0  0
  1  2  1  0
  1 24  1  0
  2  3  1  0
  2 25  1  0
  2 26  1  0
  3  4  1  6
  3  5  1  0
  3 10  1  0
  5  6  1  0
  6  7  1  6
  6  8  1  0
  6 14  1  0
  8  9  1  6
  8 10  1  0
  8 13  1  0
 10 11  1  6
 10 12  1  0
 12 27  1  0
 13 28  1  0
 14 15  1  0
 14 23  1  0
 15 16  2  0
 15 29  1  0
 16 17  1  0
 17 18  1  0
 17 23  2  0
 18 19  1  0
 18 20  2  0
 19 30  1  0
 19 31  1  0
 20 21  1  0
 21 22  2  0
 21 32  1  0
 22 23  1  0
M  END

