
     RDKit          3D

 32 34  0  0  0  0  0  0  0  0999 V2000
   -0.2861    0.3685   -0.0401 O   0  0  0  0  0  0  0  0  0  0  0  0
    1.1173    0.4351    0.0439 C   0  0  0  0  0  0  0  0  0  0  0  0
    1.6471   -0.0514    1.3953 C   0  0  1  0  0  0  0  0  0  0  0  0
    1.3585   -1.1058    1.5496 H   0  0  0  0  0  0  0  0  0  0  0  0
    3.0792    0.0181    1.3763 O   0  0  0  0  0  0  0  0  0  0  0  0
    3.5781    1.0169    2.2236 C   0  0  1  0  0  0  0  0  0  0  0  0
    4.2072    1.7111    1.6427 H   0  0  0  0  0  0  0  0  0  0  0  0
    2.3464    1.7663    2.8306 C   0  0  1  0  0  0  0  0  0  0  0  0
    2.2099    2.6887    2.2403 H   0  0  0  0  0  0  0  0  0  0  0  0
    1.1562    0.7955    2.5734 C   0  0  2  0  0  0  0  0  0  0  0  0
    0.2472    1.3437    2.2891 H   0  0  0  0  0  0  0  0  0  0  0  0
    0.8498    0.0781    3.7384 O   0  0  0  0  0  0  0  0  0  0  0  0
    2.4743    2.0875    4.1762 O   0  0  0  0  0  0  0  0  0  0  0  0
    4.4759    0.4484    3.2152 N   0  0  0  0  0  0  0  0  0  0  0  0
    5.7998    0.8145    3.3990 C   0  0  0  0  0  0  0  0  0  0  0  0
    6.4113    0.1385    4.3369 N   0  0  0  0  0  0  0  0  0  0  0  0
    5.4496   -0.7297    4.8085 C   0  0  0  0  0  0  0  0  0  0  0  0
    5.4768   -1.7328    5.8058 C   0  0  0  0  0  0  0  0  0  0  0  0
    6.5870   -1.9986    6.5206 N   0  0  0  0  0  0  0  0  0  0  0  0
    4.3563   -2.4394    6.0404 N   0  0  0  0  0  0  0  0  0  0  0  0
    3.2603   -2.1659    5.3337 C   0  0  0  0  0  0  0  0  0  0  0  0
    3.1132   -1.2503    4.3686 N   0  0  0  0  0  0  0  0  0  0  0  0
    4.2335   -0.5510    4.1315 C   0  0  0  0  0  0  0  0  0  0  0  0
   -0.5549   -0.5572    0.0317 H   0  0  0  0  0  0  0  0  0  0  0  0
    1.3913    1.4947   -0.0912 H   0  0  0  0  0  0  0  0  0  0  0  0
    1.6252   -0.1339   -0.7583 H   0  0  0  0  0  0  0  0  0  0  0  0
    1.6002   -0.5482    3.9336 H   0  0  0  0  0  0  0  0  0  0  0  0
    1.8763    1.4626    4.6328 H   0  0  0  0  0  0  0  0  0  0  0  0
    6.2461    1.6001    2.7881 H   0  0  0  0  0  0  0  0  0  0  0  0
    6.5580   -2.7203    7.2280 H   0  0  0  0  0  0  0  0  0  0  0  0
    7.4303   -1.4670    6.3548 H   0  0  0  0  0  0  0  0  0  0  0  0
    2.3695   -2.7581    5.5713 H   0  0  0  0  0  0  0  0  0  0  0  0
  1  2  1  0
  1 24  1  0
  2  3  1  0
  2 25  1  0
  2 26  1  0
  3  4  1  1
  3  5  1  0
  3 10  1  0
  5  6  1  0
  6  7  1  6
  6  8  1  0
  6 14  1  0
  8  9  1  6
  8 10  1  0
  8 13  1  0
 10 11  1  6
 10 12  1  0
 12 27  1  0
 13 28  1  0
 14 15  1  0
 14 23  1  0
 15 16  2  0
 15 29  1  0
 16 17  1  0
 17 18  1  0
 17 23  2  0
 18 19  1  0
 18 20  2  0
 19 30  1  0
 19 31  1  0
 20 21  1  0
 21 22  2  0
 21 32  1  0
 22 23  1  0
M  END

