rmsd1.gzmat
 OpenBabel08211713423D

 32 34  0  0  1  0  0  0  0  0999 V2000
    0.0000    0.0000    0.0000 O   0  0  0  0  0  0  0  0  0  0  0  0
    1.4108    0.0000    0.0000 C   0  0  0  0  0  0  0  0  0  0  0  0
    1.9368    0.0000    1.4367 C   0  0  1  0  0  0  0  0  0  0  0  0
    1.3542    0.6979    2.0807 H   0  0  0  0  0  0  0  0  0  0  0  0
    1.6734   -1.3230    1.9187 O   0  0  0  0  0  0  0  0  0  0  0  0
    2.7143   -1.7950    2.7359 C   0  0  1  0  0  0  0  0  0  0  0  0
    2.7988   -2.8828    2.4783 H   0  0  0  0  0  0  0  0  0  0  0  0
    3.9958   -0.9918    2.3384 C   0  0  1  0  0  0  0  0  0  0  0  0
    4.6503   -1.6268    1.6979 H   0  0  0  0  0  0  0  0  0  0  0  0
    3.4552    0.2451    1.5566 C   0  0  2  0  0  0  0  0  0  0  0  0
    3.9692    0.3745    0.5808 H   0  0  0  0  0  0  0  0  0  0  0  0
    3.7222    1.4450    2.2066 O   0  0  0  0  0  0  0  0  0  0  0  0
    4.8130   -0.6928    3.4116 O   0  0  0  0  0  0  0  0  0  0  0  0
    2.2788   -1.6906    4.1229 N   0  0  0  0  0  0  0  0  0  0  0  0
    1.5885   -2.7499    4.7899 C   0  0  0  0  0  0  0  0  0  0  0  0
    1.0731   -2.3613    5.9482 N   0  0  0  0  0  0  0  0  0  0  0  0
    1.3792   -1.0088    6.0782 C   0  0  0  0  0  0  0  0  0  0  0  0
    1.0941   -0.0418    7.0765 C   0  0  0  0  0  0  0  0  0  0  0  0
    0.3919   -0.3191    8.2007 N   0  0  0  0  0  0  0  0  0  0  0  0
    1.5484    1.2409    6.9002 N   0  0  0  0  0  0  0  0  0  0  0  0
    2.2538    1.5445    5.7931 C   0  0  0  0  0  0  0  0  0  0  0  0
    2.5786    0.7025    4.7837 N   0  0  0  0  0  0  0  0  0  0  0  0
    2.1256   -0.5706    4.9299 C   0  0  0  0  0  0  0  0  0  0  0  0
   -0.3326   -0.7040    0.5990 H   0  0  0  0  0  0  0  0  0  0  0  0
    1.6698    0.9356   -0.5317 H   0  0  0  0  0  0  0  0  0  0  0  0
    1.7662   -0.8755   -0.5729 H   0  0  0  0  0  0  0  0  0  0  0  0
    3.3008    1.4645    3.1069 H   0  0  0  0  0  0  0  0  0  0  0  0
    4.4779    0.0887    3.9218 H   0  0  0  0  0  0  0  0  0  0  0  0
    1.5363   -3.7445    4.3722 H   0  0  0  0  0  0  0  0  0  0  0  0
    0.2037    0.3973    8.8765 H   0  0  0  0  0  0  0  0  0  0  0  0
    0.0327   -1.2436    8.3537 H   0  0  0  0  0  0  0  0  0  0  0  0
    2.6015    2.5907    5.7018 H   0  0  0  0  0  0  0  0  0  0  0  0
  1 24  1  0  0  0  0
  2  1  1  0  0  0  0
  2  3  1  0  0  0  0
  3 10  1  0  0  0  0
  3  5  1  0  0  0  0
  3  4  1  1  0  0  0
  5  6  1  0  0  0  0
  6  8  1  0  0  0  0
  6 14  1  0  0  0  0
  6  7  1  6  0  0  0
  8 10  1  0  0  0  0
  8 13  1  0  0  0  0
  8  9  1  6  0  0  0
 10 11  1  6  0  0  0
 10 12  1  0  0  0  0
 12 27  1  0  0  0  0
 13 28  1  0  0  0  0
 14 15  1  0  0  0  0
 14 23  1  0  0  0  0
 15 16  2  0  0  0  0
 16 17  2  0  0  0  0
 17 18  1  0  0  0  0
 18 19  1  0  0  0  0
 19 31  1  0  0  0  0
 19 30  1  0  0  0  0
 20 18  2  0  0  0  0
 21 20  2  0  0  0  0
 22 23  2  0  0  0  0
 22 21  2  0  0  0  0
 23 17  1  0  0  0  0
 25  2  1  0  0  0  0
 26  2  1  0  0  0  0
 29 15  1  0  0  0  0
 32 21  1  0  0  0  0
M  END
$$$$
