32
rmsd14.gzmat
O          0.00000        0.00000        0.00000
C          1.41170        0.00000        0.00000
C          1.94230        0.00000        1.43740
H          3.05270        0.04140        1.47050
O          1.46860        1.22820        2.00200
C          0.92860        1.04590        3.28840
H          0.00270        1.67790        3.29470
C          0.60330       -0.47580        3.44220
H         -0.49520       -0.63810        3.34000
C          1.38980       -1.16220        2.28810
H          0.75140       -1.86760        1.71040
O          2.41970       -1.97440        2.75130
O          0.87230       -0.96700        4.70630
N          1.86530        1.61440        4.24910
C          1.77200        2.96520        4.70660
N          2.84220        3.33620        5.39670
C          3.70550        2.24320        5.39590
C          4.99230        2.02390        5.95190
N          5.66360        2.96190        6.66240
N          5.59070        0.80380        5.76590
C          4.93890       -0.15180        5.07340
N          3.71310       -0.04930        4.50900
C          3.10870        1.15790        4.66460
H         -0.32110        0.78160        0.50010
H          1.77350        0.87680       -0.56720
H          1.67750       -0.92990       -0.53730
H          3.06790       -1.45700        3.29790
H          1.83710       -1.15990        4.82590
H          0.90120        3.57250        4.50930
H          6.57330        2.76850        7.03610
H          5.26110        3.87050        6.79920
H          5.46290       -1.11900        4.95730
