32

O          0.37990       -0.26390       -0.46820
C          1.72610        0.00860       -0.18780
C          1.95190        0.21440        1.30500
H          1.40400        1.10580        1.64780
O          1.38120       -0.93170        1.97840
C          2.33550       -1.68420        2.67510
H          2.24020       -2.74320        2.38770
C          3.73510       -1.12590        2.26880
H          4.10880       -1.77210        1.45540
C          3.42880        0.29560        1.70430
H          4.05970        0.49520        0.82400
O          3.74080        1.27730        2.65230
O          4.66130       -1.08480        3.30170
N          2.07680       -1.66750        4.10620
C          1.83840       -2.79060        4.88370
N          1.59180       -2.52310        6.13950
C          1.66510       -1.14830        6.21260
C          1.47940       -0.23940        7.28110
N          1.17890       -0.65370        8.52630
N          1.60810        1.07740        7.03700
C          1.91370        1.47920        5.80440
N          2.10970        0.72030        4.71880
C          1.97340       -0.59220        4.96180
H          0.10310       -0.92910        0.18010
H          2.01140        0.92360       -0.73230
H          2.39850       -0.80540       -0.53970
H          3.06930        1.22190        3.38810
H          4.74550       -0.13380        3.51530
H          1.86350       -3.78610        4.43900
H          1.05360        0.03230        9.25850
H          1.08020       -1.64120        8.71740
H          2.02170        2.55970        5.65850
