39
rmsd213.gzmat
N          0.00000        0.00000        0.00000
C          1.37320        0.00000        0.00000
N          2.15930        0.00000        1.09600
C          1.60320        0.00230        2.35870
C          0.19610       -0.00260        2.45980
C         -0.52740        0.00020        1.22470
O         -1.86560        0.00460        1.50890
C         -1.92130        0.00360        2.93420
N         -0.74270       -0.00390        3.50390
C         -3.28050        0.01200        3.47450
N          2.49330       -0.01900        3.38350
C          2.07650        0.10470        4.78930
H          1.20580        0.82930        4.85350
C          1.59890       -1.26830        5.31830
C          0.94000       -1.09740        6.64660
O          0.58700       -0.09230        7.20360
O          0.76040       -2.31300        7.23250
C          3.24060        0.60120        5.61560
C          3.03260        1.66380        6.49570
C          4.08380        2.13180        7.28140
C          5.34200        1.53950        7.19070
C          5.54710        0.47230        6.31750
C          4.49700       -0.00150        5.53470
C          2.04350        0.01510       -1.33210
H         -3.28190        0.25090        4.55490
H         -3.77280       -0.97020        3.35440
H         -3.91890        0.75830        2.96800
H          3.48620        0.02370        3.16810
H          2.43350       -1.99760        5.37650
H          0.86400       -1.71820        4.60500
H          0.31070       -2.26330        8.10920
H          2.04210        2.11540        6.58580
H          3.91980        2.95990        7.96860
H          6.16210        1.90560        7.80520
H          6.52790        0.00590        6.25060
H          4.66310       -0.84860        4.87100
H          3.12190       -0.19660       -1.25230
H          1.92920        1.00300       -1.81110
H          1.59120       -0.72460       -2.01410
