
     RDKit          3D

 39 41  0  0  0  0  0  0  0  0999 V2000
    0.0059    0.3880    0.0367 N   0  0  0  0  0  0  0  0  0  0  0  0
    1.3483    0.4135    0.0510 C   0  0  0  0  0  0  0  0  0  0  0  0
    2.1375    0.2302    1.1264 N   0  0  0  0  0  0  0  0  0  0  0  0
    1.5938   -0.0026    2.3317 C   0  0  0  0  0  0  0  0  0  0  0  0
    0.1833   -0.0451    2.4226 C   0  0  0  0  0  0  0  0  0  0  0  0
   -0.5052    0.1580    1.2325 C   0  0  0  0  0  0  0  0  0  0  0  0
   -1.8349    0.0679    1.5272 O   0  0  0  0  0  0  0  0  0  0  0  0
   -1.8804   -0.1873    2.8818 C   0  0  0  0  0  0  0  0  0  0  0  0
   -0.7189   -0.2639    3.4543 N   0  0  0  0  0  0  0  0  0  0  0  0
   -3.2247   -0.3370    3.4903 C   0  0  0  0  0  0  0  0  0  0  0  0
    2.3870   -0.1849    3.4127 N   0  0  0  0  0  0  0  0  0  0  0  0
    3.8406   -0.3017    3.3400 C   0  0  1  0  0  0  0  0  0  0  0  0
    4.1002   -0.9710    2.5063 H   0  0  0  0  0  0  0  0  0  0  0  0
    4.4863    1.0599    3.0268 C   0  0  0  0  0  0  0  0  0  0  0  0
    5.9540    0.9311    2.7086 C   0  0  0  0  0  0  0  0  0  0  0  0
    6.5006   -0.0716    2.3162 O   0  0  0  0  0  0  0  0  0  0  0  0
    6.6117    2.0940    2.8797 O   0  0  0  0  0  0  0  0  0  0  0  0
    4.3674   -0.8918    4.6335 C   0  0  0  0  0  0  0  0  0  0  0  0
    5.2492   -1.9794    4.6129 C   0  0  0  0  0  0  0  0  0  0  0  0
    5.7524   -2.5072    5.8045 C   0  0  0  0  0  0  0  0  0  0  0  0
    5.3786   -1.9546    7.0322 C   0  0  0  0  0  0  0  0  0  0  0  0
    4.5033   -0.8654    7.0628 C   0  0  0  0  0  0  0  0  0  0  0  0
    4.0060   -0.3350    5.8704 C   0  0  0  0  0  0  0  0  0  0  0  0
    2.0497    0.6830   -1.2504 C   0  0  0  0  0  0  0  0  0  0  0  0
   -3.1130   -0.5369    4.5627 H   0  0  0  0  0  0  0  0  0  0  0  0
   -3.7761   -1.1662    3.0187 H   0  0  0  0  0  0  0  0  0  0  0  0
   -3.8213    0.5784    3.3485 H   0  0  0  0  0  0  0  0  0  0  0  0
    1.9235   -0.4650    4.2686 H   0  0  0  0  0  0  0  0  0  0  0  0
    4.3409    1.7792    3.8457 H   0  0  0  0  0  0  0  0  0  0  0  0
    3.9984    1.4717    2.1280 H   0  0  0  0  0  0  0  0  0  0  0  0
    7.5347    1.9318    2.6178 H   0  0  0  0  0  0  0  0  0  0  0  0
    5.5536   -2.3994    3.6526 H   0  0  0  0  0  0  0  0  0  0  0  0
    6.4403   -3.3555    5.7727 H   0  0  0  0  0  0  0  0  0  0  0  0
    5.7705   -2.3699    7.9638 H   0  0  0  0  0  0  0  0  0  0  0  0
    4.2099   -0.4236    8.0182 H   0  0  0  0  0  0  0  0  0  0  0  0
    3.3318    0.5255    5.9051 H   0  0  0  0  0  0  0  0  0  0  0  0
    2.8407   -0.0632   -1.4188 H   0  0  0  0  0  0  0  0  0  0  0  0
    2.5412    1.6696   -1.2156 H   0  0  0  0  0  0  0  0  0  0  0  0
    1.3326    0.6701   -2.0802 H   0  0  0  0  0  0  0  0  0  0  0  0
  1  2  2  0
  1  6  1  0
  2  3  1  0
  2 24  1  0
  3  4  2  0
  4  5  1  0
  4 11  1  0
  5  6  2  0
  5  9  1  0
  6  7  1  0
  7  8  1  0
  8  9  2  0
  8 10  1  0
 10 25  1  0
 10 26  1  0
 10 27  1  0
 11 12  1  0
 11 28  1  0
 12 13  1  6
 12 14  1  0
 12 18  1  0
 14 15  1  0
 14 29  1  0
 14 30  1  0
 15 16  2  0
 15 17  1  0
 17 31  1  0
 18 19  2  0
 18 23  1  0
 19 20  1  0
 19 32  1  0
 20 21  2  0
 20 33  1  0
 21 22  1  0
 21 34  1  0
 22 23  2  0
 22 35  1  0
 23 36  1  0
 24 37  1  0
 24 38  1  0
 24 39  1  0
M  END

