rmsd134.gzmat
 OpenBabel08211713393D

 39 41  0  0  1  0  0  0  0  0999 V2000
    0.0000    0.0000    0.0000 N   0  0  0  0  0  0  0  0  0  0  0  0
    1.3732    0.0000    0.0000 C   0  0  0  0  0  0  0  0  0  0  0  0
    2.1596    0.0000    1.0960 N   0  0  0  0  0  0  0  0  0  0  0  0
    1.6033    0.0066    2.3584 C   0  0  0  0  0  0  0  0  0  0  0  0
    0.1958    0.0066    2.4593 C   0  0  0  0  0  0  0  0  0  0  0  0
   -0.5271    0.0056    1.2246 C   0  0  0  0  0  0  0  0  0  0  0  0
   -1.8656    0.0146    1.5083 O   0  0  0  0  0  0  0  0  0  0  0  0
   -1.9215    0.0221    2.9332 C   0  0  0  0  0  0  0  0  0  0  0  0
   -0.7432    0.0140    3.5036 N   0  0  0  0  0  0  0  0  0  0  0  0
   -3.2807    0.0447    3.4729 C   0  0  0  0  0  0  0  0  0  0  0  0
    2.4901   -0.0107    3.3856 N   0  0  0  0  0  0  0  0  0  0  0  0
    2.0691    0.1182    4.7898 C   0  0  1  0  0  0  0  0  0  0  0  0
    1.1647    0.7993    4.8503 H   0  0  0  0  0  0  0  0  0  0  0  0
    1.6589   -1.2711    5.3329 C   0  0  0  0  0  0  0  0  0  0  0  0
    1.2556   -1.1585    6.7647 C   0  0  0  0  0  0  0  0  0  0  0  0
    0.8407   -0.2080    7.3715 O   0  0  0  0  0  0  0  0  0  0  0  0
    1.4148   -2.3599    7.3860 O   0  0  0  0  0  0  0  0  0  0  0  0
    3.2156    0.6917    5.5899 C   0  0  0  0  0  0  0  0  0  0  0  0
    4.4436    0.0315    5.6604 C   0  0  0  0  0  0  0  0  0  0  0  0
    5.4769    0.5669    6.4249 C   0  0  0  0  0  0  0  0  0  0  0  0
    5.2864    1.7614    7.1181 C   0  0  0  0  0  0  0  0  0  0  0  0
    4.0610    2.4208    7.0463 C   0  0  0  0  0  0  0  0  0  0  0  0
    3.0245    1.8878    6.2825 C   0  0  0  0  0  0  0  0  0  0  0  0
    2.0409    0.0144   -1.3333 C   0  0  0  0  0  0  0  0  0  0  0  0
   -3.2733    0.0685    4.5791 H   0  0  0  0  0  0  0  0  0  0  0  0
   -3.8598   -0.8433    3.1625 H   0  0  0  0  0  0  0  0  0  0  0  0
   -3.8415    0.9322    3.1264 H   0  0  0  0  0  0  0  0  0  0  0  0
    3.4848    0.0119    3.1784 H   0  0  0  0  0  0  0  0  0  0  0  0
    2.4688   -2.0178    5.1982 H   0  0  0  0  0  0  0  0  0  0  0  0
    0.7944   -1.6641    4.7415 H   0  0  0  0  0  0  0  0  0  0  0  0
    1.1560   -2.3479    8.3384 H   0  0  0  0  0  0  0  0  0  0  0  0
    4.5959   -0.9074    5.1306 H   0  0  0  0  0  0  0  0  0  0  0  0
    6.4318    0.0489    6.4861 H   0  0  0  0  0  0  0  0  0  0  0  0
    6.0938    2.1767    7.7179 H   0  0  0  0  0  0  0  0  0  0  0  0
    3.9101    3.3506    7.5915 H   0  0  0  0  0  0  0  0  0  0  0  0
    2.0612    2.3988    6.2413 H   0  0  0  0  0  0  0  0  0  0  0  0
    3.1170   -0.2090   -1.2566 H   0  0  0  0  0  0  0  0  0  0  0  0
    1.9348    1.0051   -1.8080 H   0  0  0  0  0  0  0  0  0  0  0  0
    1.5796   -0.7184   -2.0168 H   0  0  0  0  0  0  0  0  0  0  0  0
  1  2  2  0  0  0  0
  1  6  2  0  0  0  0
  2  3  2  0  0  0  0
  3  4  2  0  0  0  0
  4  5  1  0  0  0  0
  4 11  1  0  0  0  0
  5  9  2  0  0  0  0
  6  7  1  0  0  0  0
  6  5  1  0  0  0  0
  7  8  1  0  0  0  0
  8 10  1  0  0  0  0
  8  9  2  0  0  0  0
 10 25  1  0  0  0  0
 11 12  1  0  0  0  0
 12 13  1  1  0  0  0
 12 14  1  0  0  0  0
 12 18  1  0  0  0  0
 14 15  1  0  0  0  0
 15 16  2  0  0  0  0
 15 17  1  0  0  0  0
 17 31  1  0  0  0  0
 18 19  2  0  0  0  0
 18 23  1  0  0  0  0
 19 20  1  0  0  0  0
 20 33  1  0  0  0  0
 20 21  2  0  0  0  0
 21 34  1  0  0  0  0
 22 21  1  0  0  0  0
 22 35  1  0  0  0  0
 23 22  2  0  0  0  0
 24 37  1  0  0  0  0
 24  2  1  0  0  0  0
 26 10  1  0  0  0  0
 27 10  1  0  0  0  0
 28 11  1  0  0  0  0
 29 14  1  0  0  0  0
 30 14  1  0  0  0  0
 32 19  1  0  0  0  0
 36 23  1  0  0  0  0
 38 24  1  0  0  0  0
 39 24  1  0  0  0  0
M  END
$$$$
