39
rmsd237.gzmat
N          0.00000        0.00000        0.00000
C          1.36940        0.00000        0.00000
N          2.16460        0.00000        1.09600
C          1.60770       -0.01080        2.35090
C          0.19750       -0.01060        2.45400
C         -0.53040       -0.00410        1.22690
O         -1.86540       -0.00600        1.52140
C         -1.90880       -0.01390        2.94910
N         -0.72490       -0.01740        3.51010
C         -3.26600       -0.01540        3.49500
N          2.41050        0.00020        3.44520
C          3.87550       -0.07170        3.33820
H          4.15100       -0.60380        2.37500
C          4.44720        1.36520        3.27320
C          5.92500        1.31790        3.07350
O          6.59840        0.45730        2.57290
O          6.49540        2.45800        3.54900
C          4.41670       -0.82240        4.53200
C          5.18730       -1.96500        4.31580
C          5.68910       -2.68030        5.40100
C          5.41920       -2.25710        6.70110
C          4.65530       -1.11090        6.91630
C          4.15730       -0.39000        5.83390
C          2.04320        0.00770       -1.33040
H         -3.25720        0.09610        4.59510
H         -3.79700       -0.95670        3.26290
H         -3.87420        0.80970        3.08150
H          1.98420       -0.06410        4.36460
H          4.18200        1.95010        4.17910
H          3.97760        1.91460        2.42170
H          7.47640        2.48860        3.43680
H          5.40920       -2.29400        3.29920
H          6.29310       -3.57020        5.23170
H          5.80640       -2.82020        7.54840
H          4.44980       -0.77770        7.93170
H          3.57410        0.51210        6.01070
H          3.04210       -0.45620       -1.28460
H          2.17400        1.04130       -1.69240
H          1.44440       -0.52650       -2.08790
