39
rmsd194.gzmat
N          0.00000        0.00000        0.00000
C          1.36890        0.00000        0.00000
N          2.16400        0.00000        1.09640
C          1.60810       -0.00680        2.35230
C          0.19760       -0.00160        2.45490
C         -0.53050       -0.00090        1.22760
O         -1.86560       -0.00730        1.52160
C         -1.90940       -0.01140        2.94930
N         -0.72550       -0.00860        3.51030
C         -3.26610       -0.01970        3.49700
N          2.41520       -0.00080        3.44310
C          3.87950       -0.10010        3.32460
H          4.12710       -0.84060        2.50310
C          4.46450        1.27510        2.92320
C          5.92370        1.14660        2.64470
O          6.56390        0.16580        2.37370
O          6.52280        2.36580        2.72250
C          4.44840       -0.55380        4.64780
C          5.23500       -1.70510        4.68680
C          5.78180       -2.13240        5.89520
C          5.54720       -1.40850        7.06260
C          4.76370       -0.25600        7.02230
C          4.21320        0.17200        5.81700
C          2.04690        0.00630       -1.32840
H         -3.25590       -0.17590        4.59180
H         -3.88260       -0.82170        3.05200
H         -3.78920        0.93480        3.30550
H          1.99430       -0.03890        4.36630
H          4.26730        2.04400        3.69900
H          3.94710        1.64670        2.00290
H          7.49190        2.34260        2.53330
H          5.43490       -2.26540        3.77160
H          6.39350       -3.03290        5.92610
H          5.97690       -1.74150        8.00540
H          4.58530        0.31240        7.93300
H          3.60680        1.07590        5.79200
H          3.01890       -0.51300       -1.29060
H          2.23760        1.04000       -1.66220
H          1.42420       -0.47560       -2.10070
