
     RDKit          3D

 39 41  0  0  0  0  0  0  0  0999 V2000
    0.3375    0.7688    0.2957 N   0  0  0  0  0  0  0  0  0  0  0  0
    1.4394    0.0028    0.1718 C   0  0  0  0  0  0  0  0  0  0  0  0
    2.0183   -0.7122    1.1442 N   0  0  0  0  0  0  0  0  0  0  0  0
    1.5051   -0.7202    2.3887 C   0  0  0  0  0  0  0  0  0  0  0  0
    0.3398    0.0474    2.6241 C   0  0  0  0  0  0  0  0  0  0  0  0
   -0.1480    0.7473    1.5183 C   0  0  0  0  0  0  0  0  0  0  0  0
   -1.2613    1.4206    1.9323 O   0  0  0  0  0  0  0  0  0  0  0  0
   -1.3986    1.0958    3.2636 C   0  0  0  0  0  0  0  0  0  0  0  0
   -0.4893    0.2930    3.7172 N   0  0  0  0  0  0  0  0  0  0  0  0
   -2.5431    1.7004    3.9877 C   0  0  0  0  0  0  0  0  0  0  0  0
    2.1342   -1.4762    3.3215 N   0  0  0  0  0  0  0  0  0  0  0  0
    1.8996   -1.3345    4.7475 C   0  0  1  0  0  0  0  0  0  0  0  0
    0.8135   -1.3377    4.9126 H   0  0  0  0  0  0  0  0  0  0  0  0
    2.4700   -2.5573    5.4919 C   0  0  0  0  0  0  0  0  0  0  0  0
    3.9676   -2.6974    5.3408 C   0  0  0  0  0  0  0  0  0  0  0  0
    4.5673   -2.5981    4.2925 O   0  0  0  0  0  0  0  0  0  0  0  0
    4.5862   -2.9647    6.4985 O   0  0  0  0  0  0  0  0  0  0  0  0
    2.4351   -0.0298    5.3294 C   0  0  0  0  0  0  0  0  0  0  0  0
    1.7668    0.5695    6.4049 C   0  0  0  0  0  0  0  0  0  0  0  0
    2.2566    1.7407    6.9849 C   0  0  0  0  0  0  0  0  0  0  0  0
    3.4219    2.3329    6.4885 C   0  0  0  0  0  0  0  0  0  0  0  0
    4.0882    1.7474    5.4092 C   0  0  0  0  0  0  0  0  0  0  0  0
    3.5976    0.5728    4.8319 C   0  0  0  0  0  0  0  0  0  0  0  0
    2.1003   -0.0253   -1.1782 C   0  0  0  0  0  0  0  0  0  0  0  0
   -2.5338    1.3535    5.0279 H   0  0  0  0  0  0  0  0  0  0  0  0
   -3.4978    1.4188    3.5153 H   0  0  0  0  0  0  0  0  0  0  0  0
   -2.4776    2.8002    3.9691 H   0  0  0  0  0  0  0  0  0  0  0  0
    3.0293   -1.8694    3.0369 H   0  0  0  0  0  0  0  0  0  0  0  0
    2.0140   -3.4725    5.0775 H   0  0  0  0  0  0  0  0  0  0  0  0
    2.2140   -2.4989    6.5569 H   0  0  0  0  0  0  0  0  0  0  0  0
    5.5359   -3.0506    6.3001 H   0  0  0  0  0  0  0  0  0  0  0  0
    0.8420    0.1210    6.7772 H   0  0  0  0  0  0  0  0  0  0  0  0
    1.7216    2.1998    7.8200 H   0  0  0  0  0  0  0  0  0  0  0  0
    3.8040    3.2532    6.9366 H   0  0  0  0  0  0  0  0  0  0  0  0
    4.9944    2.2089    5.0093 H   0  0  0  0  0  0  0  0  0  0  0  0
    4.1183    0.1251    3.9840 H   0  0  0  0  0  0  0  0  0  0  0  0
    2.6069   -0.9863   -1.3379 H   0  0  0  0  0  0  0  0  0  0  0  0
    2.8647    0.7689   -1.2339 H   0  0  0  0  0  0  0  0  0  0  0  0
    1.3628    0.1636   -1.9695 H   0  0  0  0  0  0  0  0  0  0  0  0
  1  2  2  0
  1  6  1  0
  2  3  1  0
  2 24  1  0
  3  4  2  0
  4  5  1  0
  4 11  1  0
  5  6  2  0
  5  9  1  0
  6  7  1  0
  7  8  1  0
  8  9  2  0
  8 10  1  0
 10 25  1  0
 10 26  1  0
 10 27  1  0
 11 12  1  0
 11 28  1  0
 12 13  1  6
 12 14  1  0
 12 18  1  0
 14 15  1  0
 14 29  1  0
 14 30  1  0
 15 16  2  0
 15 17  1  0
 17 31  1  0
 18 19  2  0
 18 23  1  0
 19 20  1  0
 19 32  1  0
 20 21  2  0
 20 33  1  0
 21 22  1  0
 21 34  1  0
 22 23  2  0
 22 35  1  0
 23 36  1  0
 24 37  1  0
 24 38  1  0
 24 39  1  0
M  END

