39

N          0.00280       -0.08340        0.00560
C          1.35200       -0.06680        0.00650
N          2.14070       -0.02510        1.08530
C          1.60860        0.00440        2.32520
C          0.19910       -0.01760        2.43430
C         -0.49500       -0.05900        1.22160
O         -1.82570       -0.07250        1.52710
C         -1.87670       -0.04480        2.90380
N         -0.71860       -0.01380        3.48270
C         -3.22110       -0.05390        3.52950
N          2.47120        0.05970        3.36550
C          2.10350        0.19190        4.77220
H          1.26300        0.89450        4.85250
C          1.61410       -1.14630        5.35230
C          0.94560       -0.97380        6.69370
O          0.58100        0.07280        7.17060
O          0.76520       -2.15560        7.31570
C          3.27960        0.74770        5.55330
C          3.12870        1.88670        6.35290
C          4.20920        2.39080        7.08100
C          5.45530        1.76200        7.01730
C          5.61440        0.62060        6.22660
C          4.53140        0.11490        5.50430
C          2.02310       -0.09150       -1.33850
H         -3.10810       -0.02670        4.62000
H         -3.78110       -0.95740        3.23950
H         -3.80910        0.81810        3.20100
H          3.44710        0.13290        3.10120
H          2.43070       -1.87880        5.43920
H          0.85570       -1.58280        4.68410
H          0.30660       -1.96210        8.15160
H          2.15060        2.36680        6.41590
H          4.07580        3.27990        7.70190
H          6.30050        2.15810        7.58520
H          6.58380        0.11900        6.17520
H          4.66580       -0.78700        4.89980
H          3.11310       -0.11890       -1.22320
H          1.73590        0.80040       -1.91820
H          1.68440       -0.96740       -1.91360
