39
rmsd145.gzmat
N          0.00000        0.00000        0.00000
C          1.36870        0.00000        0.00000
N          2.16470        0.00000        1.09600
C          1.60890       -0.01160        2.35160
C          0.19810       -0.00790        2.45430
C         -0.53020       -0.00170        1.22750
O         -1.86510       -0.00460        1.52120
C         -1.90920       -0.01340        2.94890
N         -0.72540       -0.01630        3.51010
C         -3.26700       -0.01810        3.49370
N          2.41320       -0.00520        3.44480
C          3.87820       -0.08980        3.33260
H          4.13430       -0.83440        2.51690
C          4.45130        1.28800        2.92140
C          5.90770        1.16380        2.62620
O          6.55430        0.17910        2.38220
O          6.49630        2.38950        2.65560
C          4.46280       -0.52430        4.65610
C          4.10070        0.10040        5.85080
C          4.66840       -0.31690        7.05230
C          5.60730       -1.34740        7.06210
C          5.97910       -1.96160        5.86760
C          5.40700       -1.55220        4.66500
C          2.04390        0.00840       -1.32980
H         -3.26020       -0.16820        4.58930
H         -3.88240       -0.82220        3.05070
H         -3.78930        0.93540        3.29430
H          1.98690       -0.06320        4.36470
H          4.26200        2.05740        3.69910
H          3.92030        1.65630        2.00740
H          7.46520        2.36780        2.46370
H          3.38470        0.92120        5.85260
H          4.38260        0.16580        7.98500
H          6.05240       -1.66940        8.00170
H          6.72000       -2.75980        5.87230
H          5.71370       -2.02320        3.72860
H          2.96360       -0.59950       -1.32060
H          2.33140        1.03480       -1.61250
H          1.37950       -0.37710       -2.12190
