34

N          0.02710       -0.00510       -0.00940
C          1.44150        0.00550       -0.05380
C          2.38400       -0.01890        0.97690
C          3.73120       -0.00450        0.60640
C          4.12470        0.02680       -0.74270
C          3.17610        0.04940       -1.76370
C          1.81740        0.04470       -1.41860
C          0.59700        0.06150       -2.21210
C         -0.44880        0.03060       -1.34020
C          0.52230        0.15780       -3.70520
C          0.61860        1.60580       -4.22790
N          1.77440        2.34490       -3.73950
C          3.02020        2.46970       -4.26410
O          3.94470        3.02000       -3.70760
C          3.24700        1.83880       -5.66520
F          4.48230        2.05860       -6.07960
F          3.05300        0.50050       -5.61600
F          2.39810        2.33450       -6.58510
C         -0.71600       -0.04630        1.15290
O         -0.24820       -0.07450        2.26440
C         -2.25960       -0.05150        0.97000
F         -2.85310       -0.09100        2.15010
F         -2.67070        1.05350        0.32170
F         -2.65820       -1.11790        0.25470
H          2.07540       -0.04770        2.01870
H          4.49450       -0.01900        1.38760
H          5.18710        0.03820       -0.99450
H          3.48600        0.07010       -2.80920
H         -1.51260        0.02120       -1.55000
H         -0.42970       -0.26400       -4.06500
H          1.32920       -0.43770       -4.15700
H         -0.27670        2.16310       -3.91130
H          0.61990        1.60760       -5.32440
H          1.72550        2.69990       -2.78770
