34
rmsd41.gzmat
N          0.00000        0.00000        0.00000
C          1.42330        0.00000        0.00000
C          2.32690        0.00000        1.05990
C          3.67920       -0.00390        0.74000
C          4.11910        0.00530       -0.59300
C          3.21600        0.00770       -1.64820
C          1.85490       -0.01140       -1.35740
C          0.66250       -0.04560       -2.18650
C         -0.42960       -0.02720       -1.35750
C          0.66190       -0.15250       -3.65970
C          0.63150       -1.63590       -4.09340
N          1.82470       -2.34130       -3.60610
C          2.69300       -2.91090       -4.48640
O          2.54180       -2.96470       -5.68170
C          3.96560       -3.55130       -3.85170
F          4.62740       -4.30510       -4.71680
F          4.83570       -2.64220       -3.42070
F          3.72260       -4.33270       -2.80390
C         -0.76830       -0.01630        1.15100
O         -0.29550       -0.01590        2.25560
C         -2.31800       -0.03090        1.00490
F         -2.78510       -1.08060        0.33800
F         -2.90230       -0.07270        2.19400
F         -2.80660        1.04390        0.39690
H          1.99100        0.00210        2.09740
H          4.41900       -0.01230        1.54250
H          5.19020        0.01040       -0.79880
H          3.56050        0.03170       -2.68060
H         -1.47100       -0.02850       -1.62110
H          1.55330        0.35160       -4.09400
H         -0.21000        0.37460       -4.10290
H          0.56440       -1.70990       -5.20550
H         -0.27150       -2.14160       -3.67710
H          2.00700       -2.26470       -2.61200
