rmsd92.gzmat
 OpenBabel08211713393D

 34 34  0  0  0  0  0  0  0  0999 V2000
    0.0000    0.0000    0.0000 N   0  0  0  0  0  0  0  0  0  0  0  0
    1.4235    0.0000    0.0000 C   0  0  0  0  0  0  0  0  0  0  0  0
    2.3266    0.0000    1.0600 C   0  0  0  0  0  0  0  0  0  0  0  0
    3.6789    0.0028    0.7401 C   0  0  0  0  0  0  0  0  0  0  0  0
    4.1184    0.0155   -0.5926 C   0  0  0  0  0  0  0  0  0  0  0  0
    3.2154    0.0120   -1.6485 C   0  0  0  0  0  0  0  0  0  0  0  0
    1.8550   -0.0080   -1.3577 C   0  0  0  0  0  0  0  0  0  0  0  0
    0.6627   -0.0494   -2.1854 C   0  0  0  0  0  0  0  0  0  0  0  0
   -0.4293   -0.0396   -1.3560 C   0  0  0  0  0  0  0  0  0  0  0  0
    0.6573   -0.1562   -3.6587 C   0  0  0  0  0  0  0  0  0  0  0  0
    0.5023   -1.6325   -4.0932 C   0  0  0  0  0  0  0  0  0  0  0  0
    1.6162   -2.4612   -3.6145 N   0  0  0  0  0  0  0  0  0  0  0  0
    1.4411   -3.2189   -2.4879 C   0  0  0  0  0  0  0  0  0  0  0  0
    0.3900   -3.4024   -1.9291 O   0  0  0  0  0  0  0  0  0  0  0  0
    2.7155   -3.9444   -1.9602 C   0  0  0  0  0  0  0  0  0  0  0  0
    2.4722   -4.6205   -0.8477 F   0  0  0  0  0  0  0  0  0  0  0  0
    3.2212   -4.8236   -2.8202 F   0  0  0  0  0  0  0  0  0  0  0  0
    3.7183   -3.1201   -1.6702 F   0  0  0  0  0  0  0  0  0  0  0  0
   -0.7684   -0.0096    1.1500 C   0  0  0  0  0  0  0  0  0  0  0  0
   -0.2979   -0.0170    2.2558 O   0  0  0  0  0  0  0  0  0  0  0  0
   -2.3184    0.0152    1.0046 C   0  0  0  0  0  0  0  0  0  0  0  0
   -2.9006    0.0481    2.1958 F   0  0  0  0  0  0  0  0  0  0  0  0
   -2.7762    1.0792    0.3522 F   0  0  0  0  0  0  0  0  0  0  0  0
   -2.8214   -1.0454    0.3843 F   0  0  0  0  0  0  0  0  0  0  0  0
    1.9904   -0.0071    2.0974 H   0  0  0  0  0  0  0  0  0  0  0  0
    4.4189   -0.0070    1.5417 H   0  0  0  0  0  0  0  0  0  0  0  0
    5.1883    0.0239   -0.7978 H   0  0  0  0  0  0  0  0  0  0  0  0
    3.5604    0.0266   -2.6783 H   0  0  0  0  0  0  0  0  0  0  0  0
   -1.4705   -0.0711   -1.6187 H   0  0  0  0  0  0  0  0  0  0  0  0
    1.5837    0.2773   -4.0897 H   0  0  0  0  0  0  0  0  0  0  0  0
   -0.1716    0.4398   -4.0987 H   0  0  0  0  0  0  0  0  0  0  0  0
    0.4668   -1.7038   -5.2042 H   0  0  0  0  0  0  0  0  0  0  0  0
   -0.4636   -2.0440   -3.7081 H   0  0  0  0  0  0  0  0  0  0  0  0
    2.5310   -2.2454   -3.9804 H   0  0  0  0  0  0  0  0  0  0  0  0
  1 19  1  0  0  0  0
  2  1  1  0  0  0  0
  2  3  2  0  0  0  0
  3 25  1  0  0  0  0
  4  3  1  0  0  0  0
  4 26  1  0  0  0  0
  5  4  2  0  0  0  0
  6  7  2  0  0  0  0
  6  5  1  0  0  0  0
  7  2  1  0  0  0  0
  8  7  1  0  0  0  0
  8  9  2  0  0  0  0
  9  1  1  0  0  0  0
 10  8  1  0  0  0  0
 11 33  1  0  0  0  0
 11 10  1  0  0  0  0
 11 12  1  0  0  0  0
 12 13  1  0  0  0  0
 13 15  1  0  0  0  0
 13 14  2  0  0  0  0
 15 18  1  0  0  0  0
 15 16  1  0  0  0  0
 17 15  1  0  0  0  0
 19 20  2  0  0  0  0
 21 19  1  0  0  0  0
 21 22  1  0  0  0  0
 23 21  1  0  0  0  0
 24 21  1  0  0  0  0
 27  5  1  0  0  0  0
 28  6  1  0  0  0  0
 29  9  1  0  0  0  0
 30 10  1  0  0  0  0
 31 10  1  0  0  0  0
 34 12  1  0  0  0  0
M  RAD  2  11   2  32   2
M  END
$$$$
