rmsd197.gzmat
 OpenBabel08211713393D

 34 35  0  0  0  0  0  0  0  0999 V2000
    0.0000    0.0000    0.0000 N   0  0  0  0  0  0  0  0  0  0  0  0
    1.4237    0.0000    0.0000 C   0  0  0  0  0  0  0  0  0  0  0  0
    2.3260    0.0000    1.0606 C   0  0  0  0  0  0  0  0  0  0  0  0
    3.6787    0.0114    0.7416 C   0  0  0  0  0  0  0  0  0  0  0  0
    4.1189    0.0138   -0.5909 C   0  0  0  0  0  0  0  0  0  0  0  0
    3.2165    0.0105   -1.6469 C   0  0  0  0  0  0  0  0  0  0  0  0
    1.8551    0.0157   -1.3573 C   0  0  0  0  0  0  0  0  0  0  0  0
    0.6625    0.0368   -2.1865 C   0  0  0  0  0  0  0  0  0  0  0  0
   -0.4296    0.0177   -1.3578 C   0  0  0  0  0  0  0  0  0  0  0  0
    0.6603    0.1046   -3.6619 C   0  0  0  0  0  0  0  0  0  0  0  0
    0.7393    1.5734   -4.1417 C   0  0  0  0  0  0  0  0  0  0  0  0
    1.9719    2.2228   -3.6940 N   0  0  0  0  0  0  0  0  0  0  0  0
    3.1537    2.2846   -4.3755 C   0  0  0  0  0  0  0  0  0  0  0  0
    4.1728    2.6720   -3.8524 O   0  0  0  0  0  0  0  0  0  0  0  0
    3.2160    1.9316   -5.8888 C   0  0  0  0  0  0  0  0  0  0  0  0
    2.4673    2.7105   -6.6629 F   0  0  0  0  0  0  0  0  0  0  0  0
    4.4519    2.0530   -6.3547 F   0  0  0  0  0  0  0  0  0  0  0  0
    2.8585    0.6827   -6.1773 F   0  0  0  0  0  0  0  0  0  0  0  0
   -0.7686   -0.0201    1.1501 C   0  0  0  0  0  0  0  0  0  0  0  0
   -0.2983   -0.0587    2.2550 O   0  0  0  0  0  0  0  0  0  0  0  0
   -2.3177    0.0210    1.0030 C   0  0  0  0  0  0  0  0  0  0  0  0
   -2.9022    0.0706    2.1917 F   0  0  0  0  0  0  0  0  0  0  0  0
   -2.7654    1.0804    0.3376 F   0  0  0  0  0  0  0  0  0  0  0  0
   -2.8251   -1.0433    0.3917 F   0  0  0  0  0  0  0  0  0  0  0  0
    1.9886   -0.0084    2.0973 H   0  0  0  0  0  0  0  0  0  0  0  0
    4.4181    0.0176    1.5444 H   0  0  0  0  0  0  0  0  0  0  0  0
    5.1898    0.0224   -0.7989 H   0  0  0  0  0  0  0  0  0  0  0  0
    3.5652    0.0061   -2.6782 H   0  0  0  0  0  0  0  0  0  0  0  0
   -1.4709    0.0107   -1.6214 H   0  0  0  0  0  0  0  0  0  0  0  0
   -0.2527   -0.3672   -4.0854 H   0  0  0  0  0  0  0  0  0  0  0  0
    1.5048   -0.4861   -4.0788 H   0  0  0  0  0  0  0  0  0  0  0  0
   -0.1181    2.1533   -3.7173 H   0  0  0  0  0  0  0  0  0  0  0  0
    0.6188    1.6248   -5.2431 H   0  0  0  0  0  0  0  0  0  0  0  0
    2.0166    2.4021   -2.6865 H   0  0  0  0  0  0  0  0  0  0  0  0
  1  2  1  0  0  0  0
  1 19  1  0  0  0  0
  2  3  2  0  0  0  0
  3 25  1  0  0  0  0
  4  3  1  0  0  0  0
  4 26  1  0  0  0  0
  5  4  2  0  0  0  0
  6  7  2  0  0  0  0
  6  5  1  0  0  0  0
  7  2  1  0  0  0  0
  8  9  2  0  0  0  0
  8  7  1  0  0  0  0
  9  1  1  0  0  0  0
 10  8  1  0  0  0  0
 11 32  1  0  0  0  0
 11 12  1  0  0  0  0
 11 10  1  0  0  0  0
 12 34  1  0  0  0  0
 13 14  2  0  0  0  0
 13 12  1  0  0  0  0
 15 13  1  0  0  0  0
 16 15  1  0  0  0  0
 17 15  1  0  0  0  0
 18 15  1  0  0  0  0
 19 20  2  0  0  0  0
 21 19  1  0  0  0  0
 21 22  1  0  0  0  0
 23 21  1  0  0  0  0
 24 21  1  0  0  0  0
 27  5  1  0  0  0  0
 28  6  1  0  0  0  0
 29  9  1  0  0  0  0
 30 10  1  0  0  0  0
 31 10  1  0  0  0  0
 33 11  1  0  0  0  0
M  END
$$$$
