rmsd132.gzmat
 OpenBabel08211713393D

 34 35  0  0  0  0  0  0  0  0999 V2000
    0.0000    0.0000    0.0000 N   0  0  0  0  0  0  0  0  0  0  0  0
    1.4237    0.0000    0.0000 C   0  0  0  0  0  0  0  0  0  0  0  0
    2.3262    0.0000    1.0604 C   0  0  0  0  0  0  0  0  0  0  0  0
    3.6786    0.0173    0.7406 C   0  0  0  0  0  0  0  0  0  0  0  0
    4.1188    0.0261   -0.5921 C   0  0  0  0  0  0  0  0  0  0  0  0
    3.2163    0.0214   -1.6481 C   0  0  0  0  0  0  0  0  0  0  0  0
    1.8552    0.0170   -1.3576 C   0  0  0  0  0  0  0  0  0  0  0  0
    0.6626    0.0316   -2.1867 C   0  0  0  0  0  0  0  0  0  0  0  0
   -0.4295    0.0157   -1.3575 C   0  0  0  0  0  0  0  0  0  0  0  0
    0.6587    0.0818   -3.6628 C   0  0  0  0  0  0  0  0  0  0  0  0
    0.6866    1.5452   -4.1632 C   0  0  0  0  0  0  0  0  0  0  0  0
    1.9005    2.2363   -3.7266 N   0  0  0  0  0  0  0  0  0  0  0  0
    3.0638    2.3649   -4.4297 C   0  0  0  0  0  0  0  0  0  0  0  0
    4.0744    2.7896   -3.9195 O   0  0  0  0  0  0  0  0  0  0  0  0
    3.1104    2.0378   -5.9499 C   0  0  0  0  0  0  0  0  0  0  0  0
    4.3195    2.2563   -6.4490 F   0  0  0  0  0  0  0  0  0  0  0  0
    2.8371    0.7689   -6.2433 F   0  0  0  0  0  0  0  0  0  0  0  0
    2.2862    2.7680   -6.6946 F   0  0  0  0  0  0  0  0  0  0  0  0
   -0.7706   -0.0479    1.1480 C   0  0  0  0  0  0  0  0  0  0  0  0
   -0.3025   -0.0991    2.2534 O   0  0  0  0  0  0  0  0  0  0  0  0
   -2.3197   -0.0236    0.9957 C   0  0  0  0  0  0  0  0  0  0  0  0
   -2.9106   -0.0442    2.1821 F   0  0  0  0  0  0  0  0  0  0  0  0
   -2.7787    1.0624    0.3830 F   0  0  0  0  0  0  0  0  0  0  0  0
   -2.8092   -1.0631    0.3289 F   0  0  0  0  0  0  0  0  0  0  0  0
    1.9906   -0.0126    2.0979 H   0  0  0  0  0  0  0  0  0  0  0  0
    4.4176    0.0245    1.5435 H   0  0  0  0  0  0  0  0  0  0  0  0
    5.1897    0.0411   -0.7992 H   0  0  0  0  0  0  0  0  0  0  0  0
    3.5642    0.0244   -2.6797 H   0  0  0  0  0  0  0  0  0  0  0  0
   -1.4709    0.0147   -1.6208 H   0  0  0  0  0  0  0  0  0  0  0  0
   -0.2374   -0.4281   -4.0787 H   0  0  0  0  0  0  0  0  0  0  0  0
    1.5241   -0.4830   -4.0736 H   0  0  0  0  0  0  0  0  0  0  0  0
   -0.1878    2.1039   -3.7450 H   0  0  0  0  0  0  0  0  0  0  0  0
    0.5612    1.5741   -5.2646 H   0  0  0  0  0  0  0  0  0  0  0  0
    1.9545    2.4035   -2.7175 H   0  0  0  0  0  0  0  0  0  0  0  0
  1  2  1  0  0  0  0
  1 19  1  0  0  0  0
  2  3  2  0  0  0  0
  3 25  1  0  0  0  0
  4  3  1  0  0  0  0
  4 26  1  0  0  0  0
  5  4  2  0  0  0  0
  6  7  2  0  0  0  0
  6  5  1  0  0  0  0
  7  2  1  0  0  0  0
  8  7  1  0  0  0  0
  8  9  2  0  0  0  0
  9  1  1  0  0  0  0
 10  8  1  0  0  0  0
 11 32  1  0  0  0  0
 11 12  1  0  0  0  0
 11 10  1  0  0  0  0
 12 34  1  0  0  0  0
 13 14  2  0  0  0  0
 13 12  1  0  0  0  0
 15 13  1  0  0  0  0
 16 15  1  0  0  0  0
 17 15  1  0  0  0  0
 18 15  1  0  0  0  0
 19 20  2  0  0  0  0
 21 19  1  0  0  0  0
 21 22  1  0  0  0  0
 23 21  1  0  0  0  0
 24 21  1  0  0  0  0
 27  5  1  0  0  0  0
 28  6  1  0  0  0  0
 29  9  1  0  0  0  0
 30 10  1  0  0  0  0
 31 10  1  0  0  0  0
 33 11  1  0  0  0  0
M  END
$$$$
