
     RDKit          3D

 34 35  0  0  0  0  0  0  0  0999 V2000
    0.0255    0.1095   -0.0950 N   0  0  0  0  0  0  0  0  0  0  0  0
    1.4236   -0.0888   -0.0185 C   0  0  0  0  0  0  0  0  0  0  0  0
    2.2561   -0.2864    1.0854 C   0  0  0  0  0  0  0  0  0  0  0  0
    3.6220   -0.4399    0.8331 C   0  0  0  0  0  0  0  0  0  0  0  0
    4.1392   -0.3995   -0.4734 C   0  0  0  0  0  0  0  0  0  0  0  0
    3.2988   -0.2039   -1.5690 C   0  0  0  0  0  0  0  0  0  0  0  0
    1.9248   -0.0471   -1.3429 C   0  0  0  0  0  0  0  0  0  0  0  0
    0.7970    0.1656   -2.2359 C   0  0  0  0  0  0  0  0  0  0  0  0
   -0.3184    0.2576   -1.4586 C   0  0  0  0  0  0  0  0  0  0  0  0
    0.8624    0.3680   -3.7168 C   0  0  0  0  0  0  0  0  0  0  0  0
    1.0792    1.8514   -4.0880 C   0  0  0  0  0  0  0  0  0  0  0  0
    0.0415    2.7036   -3.5316 N   0  0  0  0  0  0  0  0  0  0  0  0
   -1.2165    2.6659   -4.0267 C   0  0  0  0  0  0  0  0  0  0  0  0
   -1.5615    2.1040   -5.0451 O   0  0  0  0  0  0  0  0  0  0  0  0
   -2.2767    3.3676   -3.1444 C   0  0  0  0  0  0  0  0  0  0  0  0
   -3.0175    4.2052   -3.8623 F   0  0  0  0  0  0  0  0  0  0  0  0
   -3.0804    2.4383   -2.6087 F   0  0  0  0  0  0  0  0  0  0  0  0
   -1.7213    4.0602   -2.1277 F   0  0  0  0  0  0  0  0  0  0  0  0
   -0.8117    0.1897    1.0004 C   0  0  0  0  0  0  0  0  0  0  0  0
   -0.4605    0.0236    2.1423 O   0  0  0  0  0  0  0  0  0  0  0  0
   -2.2898    0.5611    0.6947 C   0  0  0  0  0  0  0  0  0  0  0  0
   -2.9815    0.6156    1.8199 F   0  0  0  0  0  0  0  0  0  0  0  0
   -2.3564    1.7600    0.0912 F   0  0  0  0  0  0  0  0  0  0  0  0
   -2.8649   -0.3435   -0.1162 F   0  0  0  0  0  0  0  0  0  0  0  0
    1.8513   -0.3199    2.0937 H   0  0  0  0  0  0  0  0  0  0  0  0
    4.3007   -0.5971    1.6743 H   0  0  0  0  0  0  0  0  0  0  0  0
    5.2128   -0.5255   -0.6302 H   0  0  0  0  0  0  0  0  0  0  0  0
    3.7023   -0.1768   -2.5837 H   0  0  0  0  0  0  0  0  0  0  0  0
   -1.3495    0.4088   -1.7590 H   0  0  0  0  0  0  0  0  0  0  0  0
   -0.0711    0.0342   -4.1931 H   0  0  0  0  0  0  0  0  0  0  0  0
    1.6798   -0.2275   -4.1534 H   0  0  0  0  0  0  0  0  0  0  0  0
    1.0687    1.9602   -5.1822 H   0  0  0  0  0  0  0  0  0  0  0  0
    2.0483    2.2106   -3.7135 H   0  0  0  0  0  0  0  0  0  0  0  0
    0.1849    3.1221   -2.6203 H   0  0  0  0  0  0  0  0  0  0  0  0
  1  2  1  0
  1  9  1  0
  1 19  1  0
  2  3  2  0
  2  7  1  0
  3  4  1  0
  3 25  1  0
  4  5  2  0
  4 26  1  0
  5  6  1  0
  5 27  1  0
  6  7  2  0
  6 28  1  0
  7  8  1  0
  8  9  2  0
  8 10  1  0
  9 29  1  0
 10 11  1  0
 10 30  1  0
 10 31  1  0
 11 12  1  0
 11 32  1  0
 11 33  1  0
 12 13  1  0
 12 34  1  0
 13 14  2  0
 13 15  1  0
 15 16  1  0
 15 17  1  0
 15 18  1  0
 19 20  2  0
 19 21  1  0
 21 22  1  0
 21 23  1  0
 21 24  1  0
M  END

