34

N          0.02550        0.10950       -0.09500
C          1.42360       -0.08880       -0.01850
C          2.25610       -0.28640        1.08540
C          3.62200       -0.43990        0.83310
C          4.13920       -0.39950       -0.47340
C          3.29880       -0.20390       -1.56900
C          1.92480       -0.04710       -1.34290
C          0.79700        0.16560       -2.23590
C         -0.31840        0.25760       -1.45860
C          0.86240        0.36800       -3.71680
C          1.07920        1.85140       -4.08800
N          0.04150        2.70360       -3.53160
C         -1.21650        2.66590       -4.02670
O         -1.56150        2.10400       -5.04510
C         -2.27670        3.36760       -3.14440
F         -3.01750        4.20520       -3.86230
F         -3.08040        2.43830       -2.60870
F         -1.72130        4.06020       -2.12770
C         -0.81170        0.18970        1.00040
O         -0.46050        0.02360        2.14230
C         -2.28980        0.56110        0.69470
F         -2.98150        0.61560        1.81990
F         -2.35640        1.76000        0.09120
F         -2.86490       -0.34350       -0.11620
H          1.85130       -0.31990        2.09370
H          4.30070       -0.59710        1.67430
H          5.21280       -0.52550       -0.63020
H          3.70230       -0.17680       -2.58370
H         -1.34950        0.40880       -1.75900
H         -0.07110        0.03420       -4.19310
H          1.67980       -0.22750       -4.15340
H          1.06870        1.96020       -5.18220
H          2.04830        2.21060       -3.71350
H          0.18490        3.12210       -2.62030
