rmsd106.gzmat
 OpenBabel08211713393D

 34 35  0  0  0  0  0  0  0  0999 V2000
    0.0000    0.0000    0.0000 N   0  0  0  0  0  0  0  0  0  0  0  0
    1.4239    0.0000    0.0000 C   0  0  0  0  0  0  0  0  0  0  0  0
    2.3276    0.0000    1.0596 C   0  0  0  0  0  0  0  0  0  0  0  0
    3.6800   -0.0019    0.7389 C   0  0  0  0  0  0  0  0  0  0  0  0
    4.1198    0.0039   -0.5942 C   0  0  0  0  0  0  0  0  0  0  0  0
    3.2163    0.0150   -1.6492 C   0  0  0  0  0  0  0  0  0  0  0  0
    1.8555    0.0034   -1.3576 C   0  0  0  0  0  0  0  0  0  0  0  0
    0.6636    0.0044   -2.1874 C   0  0  0  0  0  0  0  0  0  0  0  0
   -0.4291    0.0067   -1.3588 C   0  0  0  0  0  0  0  0  0  0  0  0
    0.6631   -0.0077   -3.6637 C   0  0  0  0  0  0  0  0  0  0  0  0
    0.5998   -1.4511   -4.2082 C   0  0  0  0  0  0  0  0  0  0  0  0
    1.8077   -2.2104   -3.8575 N   0  0  0  0  0  0  0  0  0  0  0  0
    2.8001   -2.3426   -4.7842 C   0  0  0  0  0  0  0  0  0  0  0  0
    2.7326   -1.9694   -5.9294 O   0  0  0  0  0  0  0  0  0  0  0  0
    4.0794   -3.0994   -4.3167 C   0  0  0  0  0  0  0  0  0  0  0  0
    3.8811   -4.3988   -4.1247 F   0  0  0  0  0  0  0  0  0  0  0  0
    5.0546   -3.0037   -5.2092 F   0  0  0  0  0  0  0  0  0  0  0  0
    4.5948   -2.6458   -3.1767 F   0  0  0  0  0  0  0  0  0  0  0  0
   -0.7685   -0.0084    1.1501 C   0  0  0  0  0  0  0  0  0  0  0  0
   -0.2968   -0.0018    2.2553 O   0  0  0  0  0  0  0  0  0  0  0  0
   -2.3185   -0.0322    1.0052 C   0  0  0  0  0  0  0  0  0  0  0  0
   -2.9013   -0.0540    2.1958 F   0  0  0  0  0  0  0  0  0  0  0  0
   -2.8166    1.0273    0.3778 F   0  0  0  0  0  0  0  0  0  0  0  0
   -2.7782   -1.0976    0.3581 F   0  0  0  0  0  0  0  0  0  0  0  0
    1.9922    0.0045    2.0972 H   0  0  0  0  0  0  0  0  0  0  0  0
    4.4196   -0.0042    1.5415 H   0  0  0  0  0  0  0  0  0  0  0  0
    5.1909    0.0018   -0.8005 H   0  0  0  0  0  0  0  0  0  0  0  0
    3.5586    0.0431   -2.6818 H   0  0  0  0  0  0  0  0  0  0  0  0
   -1.4706    0.0172   -1.6220 H   0  0  0  0  0  0  0  0  0  0  0  0
    1.5666    0.5062   -4.0621 H   0  0  0  0  0  0  0  0  0  0  0  0
   -0.1941    0.5722   -4.0687 H   0  0  0  0  0  0  0  0  0  0  0  0
    0.4746   -1.4315   -5.3185 H   0  0  0  0  0  0  0  0  0  0  0  0
   -0.2832   -1.9865   -3.7886 H   0  0  0  0  0  0  0  0  0  0  0  0
    1.9343   -2.4167   -2.8753 H   0  0  0  0  0  0  0  0  0  0  0  0
  1  2  1  0  0  0  0
  1 19  1  0  0  0  0
  2  3  2  0  0  0  0
  3 25  1  0  0  0  0
  4  3  1  0  0  0  0
  4 26  1  0  0  0  0
  5  4  2  0  0  0  0
  6  7  2  0  0  0  0
  6  5  1  0  0  0  0
  7  2  1  0  0  0  0
  8  9  2  0  0  0  0
  8  7  1  0  0  0  0
  9  1  1  0  0  0  0
 10  8  1  0  0  0  0
 11 12  1  0  0  0  0
 11 33  1  0  0  0  0
 11 10  1  0  0  0  0
 12 34  1  0  0  0  0
 13 15  1  0  0  0  0
 13 12  1  0  0  0  0
 14 13  2  0  0  0  0
 15 16  1  0  0  0  0
 15 18  1  0  0  0  0
 17 15  1  0  0  0  0
 19 20  2  0  0  0  0
 21 19  1  0  0  0  0
 21 22  1  0  0  0  0
 23 21  1  0  0  0  0
 24 21  1  0  0  0  0
 27  5  1  0  0  0  0
 28  6  1  0  0  0  0
 29  9  1  0  0  0  0
 30 10  1  0  0  0  0
 31 10  1  0  0  0  0
 32 11  1  0  0  0  0
M  END
$$$$
