34
rmsd132.gzmat
N          0.00000        0.00000        0.00000
C          1.42370        0.00000        0.00000
C          2.32620        0.00000        1.06040
C          3.67860        0.01730        0.74060
C          4.11880        0.02610       -0.59210
C          3.21630        0.02140       -1.64810
C          1.85520        0.01700       -1.35760
C          0.66260        0.03160       -2.18670
C         -0.42950        0.01570       -1.35750
C          0.65870        0.08180       -3.66280
C          0.68660        1.54520       -4.16320
N          1.90050        2.23630       -3.72660
C          3.06380        2.36490       -4.42970
O          4.07440        2.78960       -3.91950
C          3.11040        2.03780       -5.94990
F          4.31950        2.25630       -6.44900
F          2.83710        0.76890       -6.24330
F          2.28620        2.76800       -6.69460
C         -0.77060       -0.04790        1.14800
O         -0.30250       -0.09910        2.25340
C         -2.31970       -0.02360        0.99570
F         -2.91060       -0.04420        2.18210
F         -2.77870        1.06240        0.38300
F         -2.80920       -1.06310        0.32890
H          1.99060       -0.01260        2.09790
H          4.41760        0.02450        1.54350
H          5.18970        0.04110       -0.79920
H          3.56420        0.02440       -2.67970
H         -1.47090        0.01470       -1.62080
H         -0.23740       -0.42810       -4.07870
H          1.52410       -0.48300       -4.07360
H         -0.18780        2.10390       -3.74500
H          0.56120        1.57410       -5.26460
H          1.95450        2.40350       -2.71750
