
     RDKit          3D

 34 35  0  0  0  0  0  0  0  0999 V2000
    0.0762   -0.0156   -0.0410 N   0  0  0  0  0  0  0  0  0  0  0  0
    1.4885   -0.0525   -0.1205 C   0  0  0  0  0  0  0  0  0  0  0  0
    2.4559   -0.0993    0.8863 C   0  0  0  0  0  0  0  0  0  0  0  0
    3.7932   -0.1324    0.4824 C   0  0  0  0  0  0  0  0  0  0  0  0
    4.1534   -0.1071   -0.8761 C   0  0  0  0  0  0  0  0  0  0  0  0
    3.1802   -0.0522   -1.8725 C   0  0  0  0  0  0  0  0  0  0  0  0
    1.8306   -0.0378   -1.4943 C   0  0  0  0  0  0  0  0  0  0  0  0
    0.5923   -0.0060   -2.2588 C   0  0  0  0  0  0  0  0  0  0  0  0
   -0.4317    0.0097   -1.3608 C   0  0  0  0  0  0  0  0  0  0  0  0
    0.4815   -0.0713   -3.7518 C   0  0  0  0  0  0  0  0  0  0  0  0
    0.4940   -1.5166   -4.2902 C   0  0  0  0  0  0  0  0  0  0  0  0
    1.6512   -2.2845   -3.8601 N   0  0  0  0  0  0  0  0  0  0  0  0
    2.8590   -2.0992   -4.4360 C   0  0  0  0  0  0  0  0  0  0  0  0
    3.0886   -1.3815   -5.3878 O   0  0  0  0  0  0  0  0  0  0  0  0
    4.0102   -2.9160   -3.7980 C   0  0  0  0  0  0  0  0  0  0  0  0
    4.3992   -3.8881   -4.6261 F   0  0  0  0  0  0  0  0  0  0  0  0
    5.0564   -2.1248   -3.5551 F   0  0  0  0  0  0  0  0  0  0  0  0
    3.6427   -3.4873   -2.6321 F   0  0  0  0  0  0  0  0  0  0  0  0
   -0.6377   -0.0077    1.1399 C   0  0  0  0  0  0  0  0  0  0  0  0
   -0.1429   -0.0376    2.2398 O   0  0  0  0  0  0  0  0  0  0  0  0
   -2.1846    0.0395    0.9960 C   0  0  0  0  0  0  0  0  0  0  0  0
   -2.7484    0.0450    2.1912 F   0  0  0  0  0  0  0  0  0  0  0  0
   -2.5759    1.1416    0.3333 F   0  0  0  0  0  0  0  0  0  0  0  0
   -2.6366   -1.0300    0.3156 F   0  0  0  0  0  0  0  0  0  0  0  0
    2.1728   -0.1114    1.9357 H   0  0  0  0  0  0  0  0  0  0  0  0
    4.5746   -0.1755    1.2444 H   0  0  0  0  0  0  0  0  0  0  0  0
    5.2081   -0.1338   -1.1569 H   0  0  0  0  0  0  0  0  0  0  0  0
    3.4689   -0.0123   -2.9236 H   0  0  0  0  0  0  0  0  0  0  0  0
   -1.4999    0.0415   -1.5436 H   0  0  0  0  0  0  0  0  0  0  0  0
    1.3141    0.4789   -4.2162 H   0  0  0  0  0  0  0  0  0  0  0  0
   -0.4506    0.4085   -4.0897 H   0  0  0  0  0  0  0  0  0  0  0  0
    0.4917   -1.4946   -5.3898 H   0  0  0  0  0  0  0  0  0  0  0  0
   -0.4052   -2.0524   -3.9527 H   0  0  0  0  0  0  0  0  0  0  0  0
    1.6099   -2.7955   -2.9860 H   0  0  0  0  0  0  0  0  0  0  0  0
  1  2  1  0
  1  9  1  0
  1 19  1  0
  2  3  2  0
  2  7  1  0
  3  4  1  0
  3 25  1  0
  4  5  2  0
  4 26  1  0
  5  6  1  0
  5 27  1  0
  6  7  2  0
  6 28  1  0
  7  8  1  0
  8  9  2  0
  8 10  1  0
  9 29  1  0
 10 11  1  0
 10 30  1  0
 10 31  1  0
 11 12  1  0
 11 32  1  0
 11 33  1  0
 12 13  1  0
 12 34  1  0
 13 14  2  0
 13 15  1  0
 15 16  1  0
 15 17  1  0
 15 18  1  0
 19 20  2  0
 19 21  1  0
 21 22  1  0
 21 23  1  0
 21 24  1  0
M  END

