34
rmsd243.gzmat
N          0.00000        0.00000        0.00000
C          1.42380        0.00000        0.00000
C          2.32690        0.00000        1.06000
C          3.67940        0.00780        0.74010
C          4.11890        0.02300       -0.59270
C          3.21590        0.02150       -1.64820
C          1.85500       -0.00230       -1.35750
C          0.66210       -0.02560       -2.18580
C         -0.42990       -0.01210       -1.35670
C          0.65660       -0.09310       -3.66090
C          0.75460       -1.56200       -4.13590
N          2.04290       -2.15820       -3.78000
C          3.17490       -2.15720       -4.54400
O          4.24540       -2.50220       -4.09990
C          3.11030       -1.78700       -6.05310
F          2.65780       -0.56100       -6.30310
F          4.31550       -1.82700       -6.60470
F          2.35760       -2.60520       -6.78140
C         -0.77010        0.02890        1.14870
O         -0.30220       -0.00650        2.25460
C         -2.31750        0.11240        0.99840
F         -2.90310        0.17330        2.18620
F         -2.73650        1.18420        0.33480
F         -2.85210       -0.93790        0.38470
H          1.99110       -0.00520        2.09730
H          4.41930        0.00440        1.54250
H          5.18970        0.03440       -0.80020
H          3.56320        0.04070       -2.68000
H         -1.47130       -0.01390       -1.62010
H          1.49180        0.50950       -4.07950
H         -0.26360        0.36620       -4.08230
H          0.55250       -1.63100       -5.22450
H         -0.04470       -2.17050       -3.64320
H          2.16420       -2.35200       -2.78190
