34
rmsd106.gzmat
N          0.00000        0.00000        0.00000
C          1.42390        0.00000        0.00000
C          2.32760        0.00000        1.05960
C          3.68000       -0.00190        0.73890
C          4.11980        0.00390       -0.59420
C          3.21630        0.01500       -1.64920
C          1.85550        0.00340       -1.35760
C          0.66360        0.00440       -2.18740
C         -0.42910        0.00670       -1.35880
C          0.66310       -0.00770       -3.66370
C          0.59980       -1.45110       -4.20820
N          1.80770       -2.21040       -3.85750
C          2.80010       -2.34260       -4.78420
O          2.73260       -1.96940       -5.92940
C          4.07940       -3.09940       -4.31670
F          3.88110       -4.39880       -4.12470
F          5.05460       -3.00370       -5.20920
F          4.59480       -2.64580       -3.17670
C         -0.76850       -0.00840        1.15010
O         -0.29680       -0.00180        2.25530
C         -2.31850       -0.03220        1.00520
F         -2.90130       -0.05400        2.19580
F         -2.81660        1.02730        0.37780
F         -2.77820       -1.09760        0.35810
H          1.99220        0.00450        2.09720
H          4.41960       -0.00420        1.54150
H          5.19090        0.00180       -0.80050
H          3.55860        0.04310       -2.68180
H         -1.47060        0.01720       -1.62200
H          1.56660        0.50620       -4.06210
H         -0.19410        0.57220       -4.06870
H          0.47460       -1.43150       -5.31850
H         -0.28320       -1.98650       -3.78860
H          1.93430       -2.41670       -2.87530
