34

N          0.07620       -0.01560       -0.04100
C          1.48850       -0.05250       -0.12050
C          2.45590       -0.09930        0.88630
C          3.79320       -0.13240        0.48240
C          4.15340       -0.10710       -0.87610
C          3.18020       -0.05220       -1.87250
C          1.83060       -0.03780       -1.49430
C          0.59230       -0.00600       -2.25880
C         -0.43170        0.00970       -1.36080
C          0.48150       -0.07130       -3.75180
C          0.49400       -1.51660       -4.29020
N          1.65120       -2.28450       -3.86010
C          2.85900       -2.09920       -4.43600
O          3.08860       -1.38150       -5.38780
C          4.01020       -2.91600       -3.79800
F          4.39920       -3.88810       -4.62610
F          5.05640       -2.12480       -3.55510
F          3.64270       -3.48730       -2.63210
C         -0.63770       -0.00770        1.13990
O         -0.14290       -0.03760        2.23980
C         -2.18460        0.03950        0.99600
F         -2.74840        0.04500        2.19120
F         -2.57590        1.14160        0.33330
F         -2.63660       -1.03000        0.31560
H          2.17280       -0.11140        1.93570
H          4.57460       -0.17550        1.24440
H          5.20810       -0.13380       -1.15690
H          3.46890       -0.01230       -2.92360
H         -1.49990        0.04150       -1.54360
H          1.31410        0.47890       -4.21620
H         -0.45060        0.40850       -4.08970
H          0.49170       -1.49460       -5.38980
H         -0.40520       -2.05240       -3.95270
H          1.60990       -2.79550       -2.98600
