
     RDKit          3D

 45 47  0  0  0  0  0  0  0  0999 V2000
   -0.1275    0.0543   -0.1007 S   0  0  0  0  0  0  0  0  0  0  0  0
    1.6144   -0.0163   -0.1099 C   0  0  0  0  0  0  0  0  0  0  0  0
    2.1130   -0.0634    1.1676 C   0  0  0  0  0  0  0  0  0  0  0  0
    1.0931   -0.0183    2.1683 C   0  0  0  0  0  0  0  0  0  0  0  0
   -0.1749    0.0437    1.6493 C   0  0  0  0  0  0  0  0  0  0  0  0
   -1.4801    0.2230    2.3797 C   0  0  1  0  0  0  0  0  0  0  0  0
   -1.2804   -0.0095    3.4398 H   0  0  0  0  0  0  0  0  0  0  0  0
   -1.8858    1.5857    2.3873 O   0  0  0  0  0  0  0  0  0  0  0  0
   -2.5847   -0.7039    1.8798 C   0  0  0  0  0  0  0  0  0  0  0  0
   -2.3172   -2.0295    1.5226 C   0  0  0  0  0  0  0  0  0  0  0  0
   -3.3343   -2.8913    1.1028 C   0  0  0  0  0  0  0  0  0  0  0  0
   -4.6556   -2.4251    1.0308 C   0  0  0  0  0  0  0  0  0  0  0  0
   -5.7132   -3.1751    0.6295 O   0  0  0  0  0  0  0  0  0  0  0  0
   -5.4965   -4.5158    0.2586 C   0  0  0  0  0  0  0  0  0  0  0  0
   -4.9350   -1.0972    1.3910 C   0  0  0  0  0  0  0  0  0  0  0  0
   -3.9124   -0.2545    1.8138 C   0  0  0  0  0  0  0  0  0  0  0  0
    2.3999   -0.1004   -1.4006 C   0  0  2  0  0  0  0  0  0  0  0  0
    2.2512   -1.1058   -1.8300 H   0  0  0  0  0  0  0  0  0  0  0  0
    3.7945   -0.0242   -1.1398 O   0  0  0  0  0  0  0  0  0  0  0  0
    1.9728    0.9205   -2.4407 C   0  0  0  0  0  0  0  0  0  0  0  0
    1.9807    0.5894   -3.8053 C   0  0  0  0  0  0  0  0  0  0  0  0
    1.6720    1.5336   -4.7763 C   0  0  0  0  0  0  0  0  0  0  0  0
    1.3523    2.8511   -4.4040 C   0  0  0  0  0  0  0  0  0  0  0  0
    1.0632    3.7047   -5.4156 O   0  0  0  0  0  0  0  0  0  0  0  0
    0.7306    5.0396   -5.1107 C   0  0  0  0  0  0  0  0  0  0  0  0
    1.3459    3.1999   -3.0451 C   0  0  0  0  0  0  0  0  0  0  0  0
    1.6522    2.2340   -2.0820 C   0  0  0  0  0  0  0  0  0  0  0  0
    3.1812   -0.1436    1.3669 H   0  0  0  0  0  0  0  0  0  0  0  0
    1.2885   -0.0226    3.2421 H   0  0  0  0  0  0  0  0  0  0  0  0
   -1.9446    1.8732    1.4647 H   0  0  0  0  0  0  0  0  0  0  0  0
   -1.2918   -2.4036    1.5650 H   0  0  0  0  0  0  0  0  0  0  0  0
   -3.0838   -3.9160    0.8297 H   0  0  0  0  0  0  0  0  0  0  0  0
   -6.4749   -4.9259   -0.0249 H   0  0  0  0  0  0  0  0  0  0  0  0
   -5.0865   -5.1126    1.0936 H   0  0  0  0  0  0  0  0  0  0  0  0
   -4.8102   -4.5984   -0.6037 H   0  0  0  0  0  0  0  0  0  0  0  0
   -5.9687   -0.7514    1.3323 H   0  0  0  0  0  0  0  0  0  0  0  0
   -4.1343    0.7736    2.1030 H   0  0  0  0  0  0  0  0  0  0  0  0
    4.0016    0.9059   -0.9713 H   0  0  0  0  0  0  0  0  0  0  0  0
    2.2346   -0.4300   -4.1080 H   0  0  0  0  0  0  0  0  0  0  0  0
    1.6686    1.2810   -5.8381 H   0  0  0  0  0  0  0  0  0  0  0  0
    0.5379    5.5415   -6.0680 H   0  0  0  0  0  0  0  0  0  0  0  0
    1.5564    5.5599   -4.5927 H   0  0  0  0  0  0  0  0  0  0  0  0
   -0.1766    5.1032   -4.4833 H   0  0  0  0  0  0  0  0  0  0  0  0
    1.0968    4.2113   -2.7256 H   0  0  0  0  0  0  0  0  0  0  0  0
    1.6262    2.5132   -1.0257 H   0  0  0  0  0  0  0  0  0  0  0  0
  1  2  1  0
  1  5  1  0
  2  3  2  0
  2 17  1  0
  3  4  1  0
  3 28  1  0
  4  5  2  0
  4 29  1  0
  5  6  1  0
  6  7  1  1
  6  8  1  0
  6  9  1  0
  8 30  1  0
  9 10  2  0
  9 16  1  0
 10 11  1  0
 10 31  1  0
 11 12  2  0
 11 32  1  0
 12 13  1  0
 12 15  1  0
 13 14  1  0
 14 33  1  0
 14 34  1  0
 14 35  1  0
 15 16  2  0
 15 36  1  0
 16 37  1  0
 17 18  1  6
 17 19  1  0
 17 20  1  0
 19 38  1  0
 20 21  2  0
 20 27  1  0
 21 22  1  0
 21 39  1  0
 22 23  2  0
 22 40  1  0
 23 24  1  0
 23 26  1  0
 24 25  1  0
 25 41  1  0
 25 42  1  0
 25 43  1  0
 26 27  2  0
 26 44  1  0
 27 45  1  0
M  END

