45
rmsd62.gzmat
S          0.00000        0.00000        0.00000
C          1.74450        0.00000        0.00000
C          2.22890        0.00000        1.27530
C          1.19740        0.01170        2.27210
C         -0.06240        0.01010        1.74670
C         -1.33730        0.06170        2.51380
H         -1.19240       -0.27560        3.57670
O         -1.72420        1.40870        2.70750
C         -2.44150       -0.73490        1.86700
C         -2.23070       -2.07600        1.55040
C         -3.24020       -2.83210        0.95800
C         -4.46580       -2.21960        0.69740
O         -5.54260       -2.81480        0.11880
C         -5.42030       -4.18660       -0.22910
C         -4.70310       -0.87590        1.02850
C         -3.68390       -0.14370        1.61870
C          2.54960       -0.02390       -1.25390
H          2.66540       -1.07610       -1.63150
O          3.89360        0.30990       -0.96790
C          1.98940        0.90190       -2.30110
C          1.63970        0.39940       -3.55870
C          1.13360        1.24430       -4.53450
C          0.98520        2.60920       -4.23610
O          0.47630        3.32160       -5.27460
C          0.29390        4.71730       -5.08080
C          1.33510        3.12870       -2.98960
C          1.83740        2.25910       -2.02410
H          3.27930       -0.01350        1.53180
H          1.42630        0.02440        3.32770
H         -1.75040        1.89830        1.85960
H         -1.26850       -2.54420        1.76300
H         -3.06080       -3.87130        0.70900
H         -6.40830       -4.40520       -0.65770
H         -5.24470       -4.80100        0.65920
H         -4.63750       -4.33130       -0.97960
H         -5.67360       -0.43310        0.82260
H         -3.85950        0.89730        1.89980
H          3.98360        1.26070       -0.75130
H          1.76280       -0.66240       -3.77670
H          0.85290        0.87430       -5.51700
H         -0.12050        5.03240       -6.04880
H          1.25110        5.21450       -4.89530
H         -0.42210        4.91110       -4.27600
H          1.22050        4.18210       -2.76200
H          2.10200        2.65020       -1.04080
