rmsd70.gzmat
 OpenBabel08211713383D

 45 47  0  0  1  0  0  0  0  0999 V2000
    0.0000    0.0000    0.0000 S   0  0  0  0  0  0  0  0  0  0  0  0
    1.7448    0.0000    0.0000 C   0  0  0  0  0  0  0  0  0  0  0  0
    2.2267    0.0000    1.2760 C   0  0  0  0  0  0  0  0  0  0  0  0
    1.1932    0.0311    2.2701 C   0  0  0  0  0  0  0  0  0  0  0  0
   -0.0665    0.0420    1.7414 C   0  0  0  0  0  0  0  0  0  0  0  0
   -1.3492    0.0689    2.4980 C   0  0  1  0  0  0  0  0  0  0  0  0
   -2.2594    0.0338    1.8414 H   0  0  0  0  0  0  0  0  0  0  0  0
   -1.4907   -1.1359    3.2272 O   0  0  0  0  0  0  0  0  0  0  0  0
   -1.4338    1.2578    3.4253 C   0  0  0  0  0  0  0  0  0  0  0  0
   -0.8698    2.4867    3.0665 C   0  0  0  0  0  0  0  0  0  0  0  0
   -0.9594    3.5753    3.9192 C   0  0  0  0  0  0  0  0  0  0  0  0
   -1.6312    3.4210    5.1432 C   0  0  0  0  0  0  0  0  0  0  0  0
   -1.6348    4.5606    5.8841 O   0  0  0  0  0  0  0  0  0  0  0  0
   -2.3099    4.5240    7.1333 C   0  0  0  0  0  0  0  0  0  0  0  0
   -2.2129    2.2086    5.5107 C   0  0  0  0  0  0  0  0  0  0  0  0
   -2.1104    1.1277    4.6357 C   0  0  0  0  0  0  0  0  0  0  0  0
    2.5396    0.0075   -1.2606 C   0  0  2  0  0  0  0  0  0  0  0  0
    2.5026   -0.9933   -1.7690 H   0  0  0  0  0  0  0  0  0  0  0  0
    3.9183    0.1117   -0.9672 O   0  0  0  0  0  0  0  0  0  0  0  0
    2.1077    1.1317   -2.1664 C   0  0  0  0  0  0  0  0  0  0  0  0
    1.7354    0.8589   -3.4864 C   0  0  0  0  0  0  0  0  0  0  0  0
    1.3323    1.8858   -4.3261 C   0  0  0  0  0  0  0  0  0  0  0  0
    1.3123    3.1994   -3.8275 C   0  0  0  0  0  0  0  0  0  0  0  0
    0.8943    4.1041   -4.7497 O   0  0  0  0  0  0  0  0  0  0  0  0
    0.7752    5.4568   -4.3312 C   0  0  0  0  0  0  0  0  0  0  0  0
    1.6930    3.4912   -2.5175 C   0  0  0  0  0  0  0  0  0  0  0  0
    2.0900    2.4421   -1.6916 C   0  0  0  0  0  0  0  0  0  0  0  0
    3.2759   -0.0267    1.5361 H   0  0  0  0  0  0  0  0  0  0  0  0
    1.4198    0.0608    3.3255 H   0  0  0  0  0  0  0  0  0  0  0  0
   -0.7168   -1.2849    3.8090 H   0  0  0  0  0  0  0  0  0  0  0  0
   -0.3518    2.5940    2.1120 H   0  0  0  0  0  0  0  0  0  0  0  0
   -0.5224    4.5359    3.6610 H   0  0  0  0  0  0  0  0  0  0  0  0
   -2.1423    5.5401    7.5163 H   0  0  0  0  0  0  0  0  0  0  0  0
   -1.8597    3.7849    7.8026 H   0  0  0  0  0  0  0  0  0  0  0  0
   -3.3792    4.3401    6.9912 H   0  0  0  0  0  0  0  0  0  0  0  0
   -2.7388    2.0935    6.4510 H   0  0  0  0  0  0  0  0  0  0  0  0
   -2.5683    0.1712    4.9016 H   0  0  0  0  0  0  0  0  0  0  0  0
    4.1569    1.0227   -0.6996 H   0  0  0  0  0  0  0  0  0  0  0  0
    1.7583   -0.1661   -3.8596 H   0  0  0  0  0  0  0  0  0  0  0  0
    1.0320    1.6952   -5.3529 H   0  0  0  0  0  0  0  0  0  0  0  0
    0.4111    5.9492   -5.2439 H   0  0  0  0  0  0  0  0  0  0  0  0
    1.7482    5.8642   -4.0401 H   0  0  0  0  0  0  0  0  0  0  0  0
    0.0410    5.5540   -3.5256 H   0  0  0  0  0  0  0  0  0  0  0  0
    1.6811    4.5058   -2.1365 H   0  0  0  0  0  0  0  0  0  0  0  0
    2.3768    2.6538   -0.6602 H   0  0  0  0  0  0  0  0  0  0  0  0
  1  2  1  0  0  0  0
  1  5  1  0  0  0  0
  2  3  2  0  0  0  0
  3 28  1  0  0  0  0
  3  4  1  0  0  0  0
  4 29  1  0  0  0  0
  5  4  2  0  0  0  0
  5  6  1  0  0  0  0
  6  7  1  6  0  0  0
  6  8  1  0  0  0  0
  6  9  1  0  0  0  0
  8 30  1  0  0  0  0
  9 16  1  0  0  0  0
 10  9  2  0  0  0  0
 10 11  1  0  0  0  0
 11 12  2  0  0  0  0
 12 15  1  0  0  0  0
 12 13  1  0  0  0  0
 13 14  1  0  0  0  0
 14 33  1  0  0  0  0
 14 34  1  0  0  0  0
 15 36  1  0  0  0  0
 16 37  1  0  0  0  0
 16 15  2  0  0  0  0
 17 18  1  6  0  0  0
 17 19  1  0  0  0  0
 17  2  1  0  0  0  0
 19 38  1  0  0  0  0
 20 27  1  0  0  0  0
 20 17  1  0  0  0  0
 21 20  2  0  0  0  0
 22 23  2  0  0  0  0
 22 21  1  0  0  0  0
 23 26  1  0  0  0  0
 24 25  1  0  0  0  0
 24 23  1  0  0  0  0
 25 42  1  0  0  0  0
 25 43  1  0  0  0  0
 26 44  1  0  0  0  0
 26 27  2  0  0  0  0
 27 45  1  0  0  0  0
 31 10  1  0  0  0  0
 32 11  1  0  0  0  0
 35 14  1  0  0  0  0
 39 21  1  0  0  0  0
 40 22  1  0  0  0  0
 41 25  1  0  0  0  0
M  END
$$$$
