45
rmsd113.gzmat
S          0.00000        0.00000        0.00000
C          1.74130        0.00000        0.00000
C          2.22390        0.00000        1.27770
C          1.19150        0.00530        2.27080
C         -0.06920        0.00440        1.74270
C         -1.35980       -0.05340        2.48460
H         -2.23520        0.31460        1.88390
O         -1.71260       -1.41030        2.68790
C         -1.31120        0.68440        3.80050
C         -0.72280        1.95240        3.87230
C         -0.70600        2.65080        5.06870
C         -1.29310        2.06360        6.20240
O         -1.20670        2.85470        7.30440
C         -1.81630        2.38210        8.49700
C         -1.88710        0.80430        6.14860
C         -1.89480        0.12220        4.93230
C          2.55770       -0.04280       -1.24540
H          2.71850       -1.10680       -1.57350
O          3.88610        0.35260       -0.96630
C          1.97660        0.80540       -2.34570
C          1.56950        0.20170       -3.54040
C          1.06260        0.97010       -4.57650
C          0.97400        2.36210       -4.40590
O          0.46940        2.99200       -5.49840
C          0.41560        4.41140       -5.46910
C          1.36880        2.98010       -3.21950
C          1.86840        2.18560       -2.18920
H          3.27420       -0.01320        1.53560
H          1.41560        0.01430        3.32850
H         -0.97710       -1.90110        3.11050
H         -0.27200        2.39320        2.98130
H         -0.25440        3.63590        5.14600
H         -1.61620        3.20390        9.19840
H         -1.33850        1.46020        8.84250
H         -2.89380        2.24870        8.36010
H         -2.34260        0.35350        7.02250
H         -2.37260       -0.85860        4.86870
H          3.93540        1.30690       -0.75330
H          1.65080       -0.87950       -3.66140
H          0.74000        0.52110       -5.51220
H         -0.01360        4.64620       -6.45340
H          1.42000        4.83720       -5.37900
H         -0.24530        4.76330       -4.67160
H          1.29080        4.05310       -3.08710
H          2.16890        2.65540       -1.25230
