rmsd113.gzmat
 OpenBabel08211713383D

 45 47  0  0  1  0  0  0  0  0999 V2000
    0.0000    0.0000    0.0000 S   0  0  0  0  0  0  0  0  0  0  0  0
    1.7413    0.0000    0.0000 C   0  0  0  0  0  0  0  0  0  0  0  0
    2.2239    0.0000    1.2777 C   0  0  0  0  0  0  0  0  0  0  0  0
    1.1915    0.0053    2.2708 C   0  0  0  0  0  0  0  0  0  0  0  0
   -0.0692    0.0044    1.7427 C   0  0  0  0  0  0  0  0  0  0  0  0
   -1.3598   -0.0534    2.4846 C   0  0  1  0  0  0  0  0  0  0  0  0
   -2.2352    0.3146    1.8839 H   0  0  0  0  0  0  0  0  0  0  0  0
   -1.7126   -1.4103    2.6879 O   0  0  0  0  0  0  0  0  0  0  0  0
   -1.3112    0.6844    3.8005 C   0  0  0  0  0  0  0  0  0  0  0  0
   -0.7228    1.9524    3.8723 C   0  0  0  0  0  0  0  0  0  0  0  0
   -0.7060    2.6508    5.0687 C   0  0  0  0  0  0  0  0  0  0  0  0
   -1.2931    2.0636    6.2024 C   0  0  0  0  0  0  0  0  0  0  0  0
   -1.2067    2.8547    7.3044 O   0  0  0  0  0  0  0  0  0  0  0  0
   -1.8163    2.3821    8.4970 C   0  0  0  0  0  0  0  0  0  0  0  0
   -1.8871    0.8043    6.1486 C   0  0  0  0  0  0  0  0  0  0  0  0
   -1.8948    0.1222    4.9323 C   0  0  0  0  0  0  0  0  0  0  0  0
    2.5577   -0.0428   -1.2454 C   0  0  2  0  0  0  0  0  0  0  0  0
    2.7185   -1.1068   -1.5735 H   0  0  0  0  0  0  0  0  0  0  0  0
    3.8861    0.3526   -0.9663 O   0  0  0  0  0  0  0  0  0  0  0  0
    1.9766    0.8054   -2.3457 C   0  0  0  0  0  0  0  0  0  0  0  0
    1.5695    0.2017   -3.5404 C   0  0  0  0  0  0  0  0  0  0  0  0
    1.0626    0.9701   -4.5765 C   0  0  0  0  0  0  0  0  0  0  0  0
    0.9740    2.3621   -4.4059 C   0  0  0  0  0  0  0  0  0  0  0  0
    0.4694    2.9920   -5.4984 O   0  0  0  0  0  0  0  0  0  0  0  0
    0.4156    4.4114   -5.4691 C   0  0  0  0  0  0  0  0  0  0  0  0
    1.3688    2.9801   -3.2195 C   0  0  0  0  0  0  0  0  0  0  0  0
    1.8684    2.1856   -2.1892 C   0  0  0  0  0  0  0  0  0  0  0  0
    3.2742   -0.0132    1.5356 H   0  0  0  0  0  0  0  0  0  0  0  0
    1.4156    0.0143    3.3285 H   0  0  0  0  0  0  0  0  0  0  0  0
   -0.9771   -1.9011    3.1105 H   0  0  0  0  0  0  0  0  0  0  0  0
   -0.2720    2.3932    2.9813 H   0  0  0  0  0  0  0  0  0  0  0  0
   -0.2544    3.6359    5.1460 H   0  0  0  0  0  0  0  0  0  0  0  0
   -1.6162    3.2039    9.1984 H   0  0  0  0  0  0  0  0  0  0  0  0
   -1.3385    1.4602    8.8425 H   0  0  0  0  0  0  0  0  0  0  0  0
   -2.8938    2.2487    8.3601 H   0  0  0  0  0  0  0  0  0  0  0  0
   -2.3426    0.3535    7.0225 H   0  0  0  0  0  0  0  0  0  0  0  0
   -2.3726   -0.8586    4.8687 H   0  0  0  0  0  0  0  0  0  0  0  0
    3.9354    1.3069   -0.7533 H   0  0  0  0  0  0  0  0  0  0  0  0
    1.6508   -0.8795   -3.6614 H   0  0  0  0  0  0  0  0  0  0  0  0
    0.7400    0.5211   -5.5122 H   0  0  0  0  0  0  0  0  0  0  0  0
   -0.0136    4.6462   -6.4534 H   0  0  0  0  0  0  0  0  0  0  0  0
    1.4200    4.8372   -5.3790 H   0  0  0  0  0  0  0  0  0  0  0  0
   -0.2453    4.7633   -4.6716 H   0  0  0  0  0  0  0  0  0  0  0  0
    1.2908    4.0531   -3.0871 H   0  0  0  0  0  0  0  0  0  0  0  0
    2.1689    2.6554   -1.2523 H   0  0  0  0  0  0  0  0  0  0  0  0
  1  2  1  0  0  0  0
  1  5  1  0  0  0  0
  2  3  2  0  0  0  0
  3 28  1  0  0  0  0
  3  4  1  0  0  0  0
  4 29  1  0  0  0  0
  5  4  2  0  0  0  0
  5  6  1  0  0  0  0
  6  7  1  6  0  0  0
  6  8  1  0  0  0  0
  6  9  1  0  0  0  0
  8 30  1  0  0  0  0
  9 10  2  0  0  0  0
  9 16  1  0  0  0  0
 10 11  1  0  0  0  0
 11 32  1  0  0  0  0
 11 12  2  0  0  0  0
 12 13  1  0  0  0  0
 13 14  1  0  0  0  0
 14 34  1  0  0  0  0
 14 33  1  0  0  0  0
 15 12  1  0  0  0  0
 15 36  1  0  0  0  0
 16 15  2  0  0  0  0
 17 18  1  6  0  0  0
 17 19  1  0  0  0  0
 17  2  1  0  0  0  0
 19 38  1  0  0  0  0
 20 27  1  0  0  0  0
 20 17  1  0  0  0  0
 21 20  2  0  0  0  0
 22 23  2  0  0  0  0
 22 21  1  0  0  0  0
 23 26  1  0  0  0  0
 24 25  1  0  0  0  0
 24 23  1  0  0  0  0
 25 42  1  0  0  0  0
 25 43  1  0  0  0  0
 26 44  1  0  0  0  0
 26 27  2  0  0  0  0
 27 45  1  0  0  0  0
 31 10  1  0  0  0  0
 35 14  1  0  0  0  0
 37 16  1  0  0  0  0
 39 21  1  0  0  0  0
 40 22  1  0  0  0  0
 41 25  1  0  0  0  0
M  END
$$$$
