45
rmsd51.gzmat
S          0.00000        0.00000        0.00000
C          1.74390        0.00000        0.00000
C          2.22630        0.00000        1.27670
C          1.19320        0.02580        2.27030
C         -0.06670        0.03220        1.74150
C         -1.34760        0.03190        2.50270
H         -2.25910        0.12010        1.85350
O         -1.54470       -1.24230        3.08560
C         -1.36370        1.11290        3.55700
C         -0.93880        2.40240        3.24310
C         -0.95980        3.40950        4.20600
C         -1.41490        3.09790        5.48700
O         -1.48520        3.96050        6.53540
C         -1.09820        5.30680        6.29930
C         -1.85790        1.80680        5.81770
C         -1.83470        0.82290        4.84090
C          2.54580       -0.00640       -1.25580
H          2.50340       -1.01120       -1.75550
O          3.92360        0.08880       -0.95200
C          2.14430        1.11500       -2.17860
C          1.88920        0.85470       -3.52190
C          1.53890        1.88830       -4.39010
C          1.45840        3.18510       -3.88520
O          1.13330        4.29400       -4.59850
C          0.86890        4.12610       -5.98440
C          1.71620        3.46770       -2.53210
C          2.05810        2.42400       -1.68840
H          3.27560       -0.02520        1.53660
H          1.41870        0.05330        3.32660
H         -0.74870       -1.52670        3.58270
H         -0.58140        2.63230        2.23800
H         -0.62430        4.40750        3.94920
H         -1.24550        5.76630        7.28680
H         -1.75230        5.77620        5.55810
H         -0.04630        5.36660        6.00330
H         -2.21340        1.59950        6.82380
H         -2.19420       -0.18310        5.07300
H          4.15430        0.99000       -0.64460
H          1.96380       -0.16310       -3.90750
H          1.33820        1.67280       -5.43310
H          0.63930        5.15360       -6.30040
H          0.00370        3.47540       -6.14320
H          1.75420        3.75250       -6.50860
H          1.64060        4.49050       -2.17240
H          2.25200        2.62360       -0.63270
