rmsd118.gzmat
 OpenBabel08211713383D

 45 47  0  0  1  0  0  0  0  0999 V2000
    0.0000    0.0000    0.0000 S   0  0  0  0  0  0  0  0  0  0  0  0
    1.7429    0.0000    0.0000 C   0  0  0  0  0  0  0  0  0  0  0  0
    2.2250    0.0000    1.2773 C   0  0  0  0  0  0  0  0  0  0  0  0
    1.1923    0.0172    2.2706 C   0  0  0  0  0  0  0  0  0  0  0  0
   -0.0681    0.0215    1.7421 C   0  0  0  0  0  0  0  0  0  0  0  0
   -1.3546   -0.0091    2.4929 C   0  0  1  0  0  0  0  0  0  0  0  0
   -2.2473    0.2603    1.8672 H   0  0  0  0  0  0  0  0  0  0  0  0
   -1.6543   -1.3481    2.8424 O   0  0  0  0  0  0  0  0  0  0  0  0
   -1.3141    0.8679    3.7207 C   0  0  0  0  0  0  0  0  0  0  0  0
   -0.8258    2.1768    3.6251 C   0  0  0  0  0  0  0  0  0  0  0  0
   -0.7952    2.9958    4.7419 C   0  0  0  0  0  0  0  0  0  0  0  0
   -1.2630    2.4873    5.9659 C   0  0  0  0  0  0  0  0  0  0  0  0
   -1.1697    3.3899    6.9782 O   0  0  0  0  0  0  0  0  0  0  0  0
   -1.5801    2.9638    8.2696 C   0  0  0  0  0  0  0  0  0  0  0  0
   -1.7656    1.1922    6.0757 C   0  0  0  0  0  0  0  0  0  0  0  0
   -1.7936    0.3888    4.9359 C   0  0  0  0  0  0  0  0  0  0  0  0
    2.5539   -0.0207   -1.2501 C   0  0  2  0  0  0  0  0  0  0  0  0
    2.6364   -1.0662   -1.6542 H   0  0  0  0  0  0  0  0  0  0  0  0
    3.9072    0.2607   -0.9515 O   0  0  0  0  0  0  0  0  0  0  0  0
    2.0334    0.9497   -2.2777 C   0  0  0  0  0  0  0  0  0  0  0  0
    1.8837    2.3027   -1.9483 C   0  0  0  0  0  0  0  0  0  0  0  0
    1.4143    3.2056   -2.8881 C   0  0  0  0  0  0  0  0  0  0  0  0
    1.0908    2.7356   -4.1734 C   0  0  0  0  0  0  0  0  0  0  0  0
    0.6284    3.7180   -4.9894 O   0  0  0  0  0  0  0  0  0  0  0  0
    0.2875    3.3558   -6.3206 C   0  0  0  0  0  0  0  0  0  0  0  0
    1.2436    1.3944   -4.5220 C   0  0  0  0  0  0  0  0  0  0  0  0
    1.7211    0.5051   -3.5596 C   0  0  0  0  0  0  0  0  0  0  0  0
    3.2748   -0.0180    1.5367 H   0  0  0  0  0  0  0  0  0  0  0  0
    1.4171    0.0367    3.3276 H   0  0  0  0  0  0  0  0  0  0  0  0
   -0.8907   -1.7714    3.2877 H   0  0  0  0  0  0  0  0  0  0  0  0
   -0.4633    2.5530    2.6669 H   0  0  0  0  0  0  0  0  0  0  0  0
   -0.4193    4.0140    4.6912 H   0  0  0  0  0  0  0  0  0  0  0  0
   -1.3925    3.8590    8.8787 H   0  0  0  0  0  0  0  0  0  0  0  0
   -0.9662    2.1279    8.6188 H   0  0  0  0  0  0  0  0  0  0  0  0
   -2.6450    2.7116    8.2784 H   0  0  0  0  0  0  0  0  0  0  0  0
   -2.1367    0.8046    7.0173 H   0  0  0  0  0  0  0  0  0  0  0  0
   -2.2033   -0.6221    5.0009 H   0  0  0  0  0  0  0  0  0  0  0  0
    4.0276    1.2024   -0.7117 H   0  0  0  0  0  0  0  0  0  0  0  0
    2.1280    2.6483   -0.9424 H   0  0  0  0  0  0  0  0  0  0  0  0
    1.2888    4.2595   -2.6534 H   0  0  0  0  0  0  0  0  0  0  0  0
   -0.0580    4.3123   -6.7381 H   0  0  0  0  0  0  0  0  0  0  0  0
   -0.5221    2.6196   -6.3339 H   0  0  0  0  0  0  0  0  0  0  0  0
    1.1670    2.9961   -6.8642 H   0  0  0  0  0  0  0  0  0  0  0  0
    1.0034    1.0362   -5.5162 H   0  0  0  0  0  0  0  0  0  0  0  0
    1.8485   -0.5458   -3.8226 H   0  0  0  0  0  0  0  0  0  0  0  0
  1  2  1  0  0  0  0
  1  5  1  0  0  0  0
  2  3  2  0  0  0  0
  3 28  1  0  0  0  0
  3  4  1  0  0  0  0
  4 29  1  0  0  0  0
  5  4  2  0  0  0  0
  5  6  1  0  0  0  0
  6  7  1  6  0  0  0
  6  8  1  0  0  0  0
  6  9  1  0  0  0  0
  8 30  1  0  0  0  0
  9 16  1  0  0  0  0
 10  9  2  0  0  0  0
 10 11  1  0  0  0  0
 11 12  2  0  0  0  0
 12 15  1  0  0  0  0
 12 13  1  0  0  0  0
 13 14  1  0  0  0  0
 14 35  1  0  0  0  0
 14 34  1  0  0  0  0
 14 33  1  0  0  0  0
 15 36  1  0  0  0  0
 16 37  1  0  0  0  0
 16 15  2  0  0  0  0
 17 18  1  6  0  0  0
 17 19  1  0  0  0  0
 17  2  1  0  0  0  0
 19 38  1  0  0  0  0
 20 21  1  0  0  0  0
 20 17  1  0  0  0  0
 21 39  1  0  0  0  0
 22 40  1  0  0  0  0
 22 21  2  0  0  0  0
 23 22  1  0  0  0  0
 24 23  1  0  0  0  0
 25 24  1  0  0  0  0
 26 23  2  0  0  0  0
 26 27  1  0  0  0  0
 27 20  2  0  0  0  0
 31 10  1  0  0  0  0
 32 11  1  0  0  0  0
 41 25  1  0  0  0  0
 42 25  1  0  0  0  0
 43 25  1  0  0  0  0
 44 26  1  0  0  0  0
 45 27  1  0  0  0  0
M  END
$$$$
