45
rmsd112.gzmat
S          0.00000        0.00000        0.00000
C          1.74260        0.00000        0.00000
C          2.22470        0.00000        1.27710
C          1.19120        0.00690        2.27030
C         -0.06910        0.00290        1.74180
C         -1.35380       -0.06350        2.49340
H         -2.25650        0.15480        1.86220
O         -1.59900       -1.40660        2.86970
C         -1.35460        0.83630        3.70540
C         -0.90390        2.15680        3.59260
C         -0.91950        2.99940        4.69200
C         -1.39660        2.50240        5.91700
O         -1.34780        3.42890        6.91080
C         -1.80950        3.03290        8.19420
C         -1.86030        1.19470        6.04470
C         -1.84070        0.36700        4.92230
C          2.54710       -0.03110       -1.25370
H          2.57200       -1.06820       -1.68750
O          3.91540        0.16660       -0.96010
C          2.06950        0.99200       -2.25060
C          1.61190        0.57660       -3.50540
C          1.19140        1.50890       -4.44120
C          1.24620        2.87310       -4.10870
O          0.81290        3.67630       -5.11480
C          0.92660        5.07990       -4.92480
C          1.69750        3.30490       -2.86130
C          2.10430        2.34840       -1.93330
H          3.27430       -0.01850        1.53620
H          1.41510        0.01860        3.32770
H         -0.81690       -1.79240        3.31690
H         -0.53530        2.52570        2.63430
H         -0.57270        4.02720        4.62600
H         -1.66150        3.94720        8.78530
H         -1.20000        2.21700        8.59380
H         -2.87000        2.76450        8.16390
H         -2.23650        0.81620        6.98780
H         -2.21880       -0.65530        5.00110
H          4.09230        1.09160       -0.69260
H          1.58630       -0.48560       -3.75350
H          0.82820        1.20690       -5.42000
H          0.58030        5.47220       -5.89130
H          1.96640        5.37030       -4.74590
H          0.26990        5.41750       -4.11760
H          1.73190        4.35740       -2.60460
H          2.44280        2.67130       -0.94790
