45
rmsd21.gzmat
S          0.00000        0.00000        0.00000
C          1.74370        0.00000        0.00000
C          2.22590        0.00000        1.27670
C          1.19300        0.02640        2.27040
C         -0.06680        0.03120        1.74170
C         -1.34610        0.03050        2.50600
H         -2.26120        0.07860        1.85750
O         -1.51930       -1.22710        3.13060
C         -1.38120        1.14620        3.52270
C         -0.99080        2.43330        3.15890
C         -1.03420        3.47470        4.08360
C         -1.47690        3.20000        5.37710
O         -1.57090        4.10110        6.39040
C         -1.15410        5.43210        6.12110
C         -1.88700        1.91170        5.75790
C         -1.83960        0.89230        4.81900
C          2.54750       -0.00850       -1.25440
H          2.48160       -1.00440       -1.76960
O          3.92680        0.04600       -0.94550
C          2.18240        1.13680       -2.16270
C          1.92660        0.90480       -3.51120
C          1.64490        1.96520       -4.37230
C          1.63160        3.25930       -3.85400
O          1.39060        4.39400       -4.56000
C          1.18910        4.26420       -5.96040
C          1.87370        3.51140       -2.49220
C          2.14580        2.44160       -1.65590
H          3.27460       -0.02680        1.53760
H          1.41880        0.05530        3.32620
H         -0.72490       -1.47550        3.64770
H         -0.64420        2.63440        2.14400
H         -0.72890        4.47140        3.78810
H         -1.32190        5.92620        7.08840
H         -1.77700        5.88790        5.34540
H         -0.09320        5.46430        5.85470
H         -2.23700        1.73480        6.77170
H         -2.16980       -0.11370        5.09040
H          4.18270        0.93730       -0.62910
H          1.94800       -0.11180       -3.90670
H          1.44650        1.77240       -5.42030
H          1.05450        5.31060       -6.26950
H          0.28680        3.68240       -6.17170
H          2.06970        3.83260       -6.44670
H          1.84580        4.53260       -2.12140
H          2.32630        2.61790       -0.59390
