45
rmsd76.gzmat
S          0.00000        0.00000        0.00000
C          1.74350        0.00000        0.00000
C          2.22700        0.00000        1.27610
C          1.19360        0.01130        2.27020
C         -0.06670        0.01250        1.74170
C         -1.35460       -0.03540        2.48900
H         -2.25440        0.16850        1.84860
O         -1.60060       -1.36920        2.89580
C         -1.35960        0.89440        3.67760
C         -0.88670        2.19860        3.55050
C         -0.90950        3.06990        4.63770
C         -1.41440        2.60740        5.85250
O         -1.49870        3.32930        7.00140
C         -1.05880        4.67920        6.95590
C         -1.90180        1.29840        5.99710
C         -1.87870        0.45280        4.89870
C          2.53800       -0.01560       -1.26060
H          2.61960       -1.05890       -1.67120
O          3.89410        0.26980       -0.98940
C          1.97120        0.95290       -2.26580
C          1.44830        0.48300       -3.46730
C          0.90650        1.36840       -4.39830
C          0.90830        2.73100       -4.10300
O          0.42670        3.71630       -4.90460
C         -0.18490        3.32390       -6.12540
C          1.43590        3.22400       -2.89650
C          1.96240        2.32470       -1.98410
H          3.27720       -0.01490        1.53310
H          1.41730        0.02660        3.32770
H         -0.82680       -1.73590        3.37290
H         -0.49130        2.54570        2.59490
H         -0.53720        4.08150        4.52640
H         -1.24980        5.01880        7.98340
H         -1.65210        5.26140        6.24430
H          0.01010        4.73440        6.72750
H         -2.29130        0.97090        6.95710
H         -2.27670       -0.56190        4.98420
H          4.02240        1.21250       -0.75810
H          1.45480       -0.58540       -3.68780
H          0.49800        0.99070       -5.32820
H         -0.49330        4.29010       -6.54940
H         -1.05850        2.69140       -5.93920
H          0.53580        2.82930       -6.78420
H          1.41730        4.29240       -2.69760
H          2.35930        2.68900       -1.03540
