44
rmsd99.gzmat
S          0.00000        0.00000        0.00000
O          1.45420        0.00000        0.00000
O         -0.73120        0.00000       -1.25630
C         -0.54110        1.34110        0.92900
C         -0.07450        2.13870        1.91510
C         -1.35720        2.99580        1.99590
H         -1.92140        2.86140        2.93120
C         -1.88890        2.06200        0.81430
H         -2.75010        1.44620        1.12200
C         -2.16010        2.77320       -0.49760
C         -1.14790        3.89790       -0.77070
C         -1.05310        4.83870        0.38440
C         -1.15150        4.41930        1.65100
C          1.11920        2.30420        2.69950
C          2.37330        1.92730        2.20840
C          3.51580        2.14830        2.97500
C          3.41640        2.73960        4.23170
C          2.16730        3.11330        4.72920
C          1.02480        2.89860        3.96720
C         -0.53380       -1.40850        0.92060
C         -1.76550       -1.99540        0.63770
C         -2.18190       -3.11740        1.34840
C         -1.36230       -3.66320        2.34150
C         -0.12930       -3.06970        2.62340
C          0.28530       -1.94770        1.90920
C         -1.80100       -4.88560        3.07160
H         -3.18320        3.19490       -0.48820
H         -2.13310        2.03750       -1.33390
H         -1.42320        4.42970       -1.70130
H         -0.14510        3.45500       -0.96820
H         -0.88890        5.88370        0.13480
H         -1.07450        5.10190        2.49250
H          2.46720        1.46160        1.21750
H          4.49020        1.85770        2.58550
H          4.31170        2.91160        4.82620
H          2.08840        3.57660        5.71050
H          0.05140        3.19520        4.35410
H         -2.40970       -1.59470       -0.15350
H         -3.14140       -3.57620        1.12470
H          0.51290       -3.48600        3.39540
H          1.26570       -1.50940        2.12770
H         -1.18670       -5.09940        3.95660
H         -1.74310       -5.77230        2.41970
H         -2.84290       -4.80940        3.41420
