rmsd55.gzmat
 OpenBabel08211713393D

 44 47  0  0  1  0  0  0  0  0999 V2000
    0.0000    0.0000    0.0000 S   0  0  0  0  0  0  0  0  0  0  0  0
    1.4541    0.0000    0.0000 O   0  0  0  0  0  0  0  0  0  0  0  0
   -0.7301    0.0000   -1.2565 O   0  0  0  0  0  0  0  0  0  0  0  0
   -0.5521    1.3300    0.9378 C   0  0  0  0  0  0  0  0  0  0  0  0
   -0.0556    2.2281    1.8174 C   0  0  0  0  0  0  0  0  0  0  0  0
   -1.4095    2.9382    2.0417 C   0  0  2  0  0  0  0  0  0  0  0  0
   -1.8205    2.8008    3.0537 H   0  0  0  0  0  0  0  0  0  0  0  0
   -1.9826    1.8777    0.9944 C   0  0  1  0  0  0  0  0  0  0  0  0
   -2.7018    1.1823    1.4592 H   0  0  0  0  0  0  0  0  0  0  0  0
   -2.5360    2.4624   -0.2905 C   0  0  0  0  0  0  0  0  0  0  0  0
   -1.7406    3.6895   -0.7644 C   0  0  0  0  0  0  0  0  0  0  0  0
   -1.5868    4.7007    0.3226 C   0  0  0  0  0  0  0  0  0  0  0  0
   -1.4295    4.3512    1.6044 C   0  0  0  0  0  0  0  0  0  0  0  0
    1.2021    2.5560    2.4322 C   0  0  0  0  0  0  0  0  0  0  0  0
    1.2040    3.2499    3.6521 C   0  0  0  0  0  0  0  0  0  0  0  0
    2.4043    3.5976    4.2602 C   0  0  0  0  0  0  0  0  0  0  0  0
    3.6165    3.2605    3.6557 C   0  0  0  0  0  0  0  0  0  0  0  0
    3.6212    2.5758    2.4436 C   0  0  0  0  0  0  0  0  0  0  0  0
    2.4202    2.2220    1.8307 C   0  0  0  0  0  0  0  0  0  0  0  0
   -0.5441   -1.4011    0.9260 C   0  0  0  0  0  0  0  0  0  0  0  0
   -1.8308   -1.8990    0.7294 C   0  0  0  0  0  0  0  0  0  0  0  0
   -2.2773   -2.9874    1.4727 C   0  0  0  0  0  0  0  0  0  0  0  0
   -1.4297   -3.5947    2.4050 C   0  0  0  0  0  0  0  0  0  0  0  0
   -0.1360   -3.1005    2.5883 C   0  0  0  0  0  0  0  0  0  0  0  0
    0.3062   -2.0065    1.8470 C   0  0  0  0  0  0  0  0  0  0  0  0
   -1.9059   -4.7772    3.1767 C   0  0  0  0  0  0  0  0  0  0  0  0
   -3.5967    2.7428   -0.1469 H   0  0  0  0  0  0  0  0  0  0  0  0
   -2.5259    1.6880   -1.0913 H   0  0  0  0  0  0  0  0  0  0  0  0
   -2.2279    4.1266   -1.6568 H   0  0  0  0  0  0  0  0  0  0  0  0
   -0.7320    3.3654   -1.1097 H   0  0  0  0  0  0  0  0  0  0  0  0
   -1.5962    5.7411    0.0073 H   0  0  0  0  0  0  0  0  0  0  0  0
   -1.2982    5.0885    2.3920 H   0  0  0  0  0  0  0  0  0  0  0  0
    0.2605    3.5149    4.1257 H   0  0  0  0  0  0  0  0  0  0  0  0
    2.4006    4.1337    5.2068 H   0  0  0  0  0  0  0  0  0  0  0  0
    4.5558    3.5339    4.1330 H   0  0  0  0  0  0  0  0  0  0  0  0
    4.5654    2.3119    1.9692 H   0  0  0  0  0  0  0  0  0  0  0  0
    2.4413    1.6794    0.8757 H   0  0  0  0  0  0  0  0  0  0  0  0
   -2.4974   -1.4534   -0.0172 H   0  0  0  0  0  0  0  0  0  0  0  0
   -3.2830   -3.3708    1.3232 H   0  0  0  0  0  0  0  0  0  0  0  0
    0.5303   -3.5715    3.3063 H   0  0  0  0  0  0  0  0  0  0  0  0
    1.3299   -1.6410    1.9920 H   0  0  0  0  0  0  0  0  0  0  0  0
   -1.2933   -4.9823    4.0649 H   0  0  0  0  0  0  0  0  0  0  0  0
   -1.8803   -5.6857    2.5530 H   0  0  0  0  0  0  0  0  0  0  0  0
   -2.9421   -4.6554    3.5233 H   0  0  0  0  0  0  0  0  0  0  0  0
  1 20  1  0  0  0  0
  1  4  1  0  0  0  0
  2  1  2  0  0  0  0
  3  1  2  0  0  0  0
  4  8  1  0  0  0  0
  4  5  2  0  0  0  0
  5  6  1  0  0  0  0
  5 14  1  0  0  0  0
  6  8  1  0  0  0  0
  6  7  1  1  0  0  0
  8  9  1  1  0  0  0
 10 27  1  0  0  0  0
 10  8  1  0  0  0  0
 11 10  1  0  0  0  0
 11 12  1  0  0  0  0
 12 13  2  0  0  0  0
 13  6  1  0  0  0  0
 13 32  1  0  0  0  0
 14 15  1  0  0  0  0
 15 33  1  0  0  0  0
 15 16  2  0  0  0  0
 16 34  1  0  0  0  0
 17 35  1  0  0  0  0
 17 16  1  0  0  0  0
 18 17  2  0  0  0  0
 19 14  2  0  0  0  0
 19 18  1  0  0  0  0
 20 25  1  0  0  0  0
 21 20  2  0  0  0  0
 21 22  1  0  0  0  0
 22 23  2  0  0  0  0
 23 24  1  0  0  0  0
 23 26  1  0  0  0  0
 24 40  1  0  0  0  0
 25 41  1  0  0  0  0
 25 24  2  0  0  0  0
 26 44  1  0  0  0  0
 26 42  1  0  0  0  0
 28 10  1  0  0  0  0
 29 11  1  0  0  0  0
 30 11  1  0  0  0  0
 31 12  1  0  0  0  0
 36 18  1  0  0  0  0
 37 19  1  0  0  0  0
 38 21  1  0  0  0  0
 39 22  1  0  0  0  0
 43 26  1  0  0  0  0
M  END
$$$$
