44
rmsd110.gzmat
S          0.00000        0.00000        0.00000
O          1.45380        0.00000        0.00000
O         -0.73020        0.00000       -1.25660
C         -0.54520        1.33150        0.94100
C         -0.07420        2.13970        1.91680
C         -1.38660        2.94280        2.05370
H         -1.90920        2.77410        3.00840
C         -1.92270        1.99870        0.88070
H         -2.74710        1.34620        1.21220
C         -2.26610        2.70580       -0.41640
C         -1.32100        3.88330       -0.70660
C         -1.23980        4.81660        0.45550
C         -1.26480        4.37850        1.71920
C          1.14070        2.32830        2.66260
C          2.38210        1.95390        2.13810
C          3.54480        2.17060        2.87500
C          3.47840        2.76230        4.13360
C          2.24300        3.14040        4.66130
C          1.08020        2.92710        3.93000
C         -0.54430       -1.39790        0.93050
C          0.24390       -1.89910        1.96410
C         -0.20660       -2.97580        2.72280
C         -1.44480       -3.56320        2.44310
C         -2.21860       -3.07430        1.38760
C         -1.76570       -1.99580        0.63140
C         -1.92030       -4.71330        3.26240
H         -3.30880        3.07360       -0.37530
H         -2.22590        1.97970       -1.26070
H         -1.64940        4.40920       -1.62300
H         -0.30280        3.49490       -0.93640
H         -1.14860        5.87230        0.21370
H         -1.19220        5.05490        2.56610
H          2.45160        1.49090        1.14400
H          4.50700        1.87420        2.46040
H          4.38840        2.93190        4.70650
H          2.19080        3.60440        5.64370
H          0.11820        3.22720        4.34180
H          1.22430       -1.46280        2.18550
H          0.40660       -3.36410        3.53140
H         -3.17300       -3.53740        1.15170
H         -2.37870       -1.63570       -0.20300
H         -1.29980       -5.60630        3.08780
H         -2.95800       -4.99700        3.04140
H         -1.87140       -4.49440        4.33930
