rmsd95.gzmat
 OpenBabel08211713393D

 44 47  0  0  1  0  0  0  0  0999 V2000
    0.0000    0.0000    0.0000 S   0  0  0  0  0  0  0  0  0  0  0  0
    1.4539    0.0000    0.0000 O   0  0  0  0  0  0  0  0  0  0  0  0
   -0.7318    0.0000   -1.2554 O   0  0  0  0  0  0  0  0  0  0  0  0
   -0.5409    1.3343    0.9409 C   0  0  0  0  0  0  0  0  0  0  0  0
   -0.1144    2.0465    2.0072 C   0  0  0  0  0  0  0  0  0  0  0  0
   -1.3551    2.9649    2.0450 C   0  0  2  0  0  0  0  0  0  0  0  0
   -1.9958    2.8064    2.9263 H   0  0  0  0  0  0  0  0  0  0  0  0
   -1.8387    2.1291    0.7713 C   0  0  1  0  0  0  0  0  0  0  0  0
   -2.7483    1.5407    0.9773 H   0  0  0  0  0  0  0  0  0  0  0  0
   -1.9769    2.9235   -0.5131 C   0  0  0  0  0  0  0  0  0  0  0  0
   -0.9078    4.0209   -0.6413 C   0  0  0  0  0  0  0  0  0  0  0  0
   -0.8623    4.8853    0.5750 C   0  0  0  0  0  0  0  0  0  0  0  0
   -1.0636    4.3949    1.8033 C   0  0  0  0  0  0  0  0  0  0  0  0
    1.0198    2.0755    2.8911 C   0  0  0  0  0  0  0  0  0  0  0  0
    2.2822    1.6486    2.4662 C   0  0  0  0  0  0  0  0  0  0  0  0
    3.3664    1.7044    3.3395 C   0  0  0  0  0  0  0  0  0  0  0  0
    3.2019    2.1939    4.6327 C   0  0  0  0  0  0  0  0  0  0  0  0
    1.9464    2.6291    5.0594 C   0  0  0  0  0  0  0  0  0  0  0  0
    0.8598    2.5687    4.1941 C   0  0  0  0  0  0  0  0  0  0  0  0
   -0.5414   -1.3927    0.9398 C   0  0  0  0  0  0  0  0  0  0  0  0
   -1.7616   -1.9970    0.6456 C   0  0  0  0  0  0  0  0  0  0  0  0
   -2.2103   -3.0685    1.4128 C   0  0  0  0  0  0  0  0  0  0  0  0
   -1.4340   -3.5455    2.4739 C   0  0  0  0  0  0  0  0  0  0  0  0
   -0.2012   -2.9490    2.7515 C   0  0  0  0  0  0  0  0  0  0  0  0
    0.2456   -1.8783    1.9810 C   0  0  0  0  0  0  0  0  0  0  0  0
   -1.9324   -4.6752    3.3076 C   0  0  0  0  0  0  0  0  0  0  0  0
   -2.9824    3.3834   -0.5590 H   0  0  0  0  0  0  0  0  0  0  0  0
   -1.9124    2.2345   -1.3858 H   0  0  0  0  0  0  0  0  0  0  0  0
   -1.0962    4.6196   -1.5530 H   0  0  0  0  0  0  0  0  0  0  0  0
    0.0911    3.5525   -0.7942 H   0  0  0  0  0  0  0  0  0  0  0  0
   -0.6434    5.9363    0.4040 H   0  0  0  0  0  0  0  0  0  0  0  0
   -1.0177    5.0217    2.6895 H   0  0  0  0  0  0  0  0  0  0  0  0
    2.4290    1.2756    1.4431 H   0  0  0  0  0  0  0  0  0  0  0  0
    4.3454    1.3650    3.0046 H   0  0  0  0  0  0  0  0  0  0  0  0
    4.0516    2.2395    5.3113 H   0  0  0  0  0  0  0  0  0  0  0  0
    1.8196    3.0192    6.0672 H   0  0  0  0  0  0  0  0  0  0  0  0
   -0.1194    2.9063    4.5281 H   0  0  0  0  0  0  0  0  0  0  0  0
   -2.3745   -1.6450   -0.1927 H   0  0  0  0  0  0  0  0  0  0  0  0
   -3.1644   -3.5366    1.1858 H   0  0  0  0  0  0  0  0  0  0  0  0
    0.4123   -3.3200    3.5684 H   0  0  0  0  0  0  0  0  0  0  0  0
    1.2219   -1.4330    2.2032 H   0  0  0  0  0  0  0  0  0  0  0  0
   -1.1418   -5.1409    3.9120 H   0  0  0  0  0  0  0  0  0  0  0  0
   -2.3788   -5.4737    2.6972 H   0  0  0  0  0  0  0  0  0  0  0  0
   -2.7109   -4.3314    4.0068 H   0  0  0  0  0  0  0  0  0  0  0  0
  1 20  1  0  0  0  0
  1  4  1  0  0  0  0
  2  1  2  0  0  0  0
  3  1  2  0  0  0  0
  4  5  2  0  0  0  0
  5  6  1  0  0  0  0
  5 14  1  0  0  0  0
  6  8  1  0  0  0  0
  6  7  1  1  0  0  0
  8  4  1  0  0  0  0
  8  9  1  1  0  0  0
 10  8  1  0  0  0  0
 11 10  1  0  0  0  0
 11 12  1  0  0  0  0
 12 13  2  0  0  0  0
 13  6  1  0  0  0  0
 13 32  1  0  0  0  0
 14 19  1  0  0  0  0
 15 14  2  0  0  0  0
 15 16  1  0  0  0  0
 16 17  2  0  0  0  0
 17 18  1  0  0  0  0
 17 35  1  0  0  0  0
 18 36  1  0  0  0  0
 19 37  1  0  0  0  0
 19 18  2  0  0  0  0
 20 25  1  0  0  0  0
 21 20  2  0  0  0  0
 21 22  1  0  0  0  0
 22 23  2  0  0  0  0
 23 24  1  0  0  0  0
 23 26  1  0  0  0  0
 24 40  1  0  0  0  0
 25 41  1  0  0  0  0
 25 24  2  0  0  0  0
 26 42  1  0  0  0  0
 26 44  1  0  0  0  0
 27 10  1  0  0  0  0
 28 10  1  0  0  0  0
 29 11  1  0  0  0  0
 30 11  1  0  0  0  0
 31 12  1  0  0  0  0
 33 15  1  0  0  0  0
 34 16  1  0  0  0  0
 38 21  1  0  0  0  0
 39 22  1  0  0  0  0
 43 26  1  0  0  0  0
M  END
$$$$
