rmsd26.gzmat
 OpenBabel08211713393D

 44 47  0  0  1  0  0  0  0  0999 V2000
    0.0000    0.0000    0.0000 S   0  0  0  0  0  0  0  0  0  0  0  0
    1.4544    0.0000    0.0000 O   0  0  0  0  0  0  0  0  0  0  0  0
   -0.7303    0.0000   -1.2563 O   0  0  0  0  0  0  0  0  0  0  0  0
   -0.5479    1.3386    0.9286 C   0  0  0  0  0  0  0  0  0  0  0  0
   -0.0670    2.1794    1.8708 C   0  0  0  0  0  0  0  0  0  0  0  0
   -1.3831    2.9760    2.0071 C   0  0  2  0  0  0  0  0  0  0  0  0
   -1.8841    2.8386    2.9779 H   0  0  0  0  0  0  0  0  0  0  0  0
   -1.9356    1.9867    0.8796 C   0  0  1  0  0  0  0  0  0  0  0  0
   -2.7415    1.3353    1.2563 H   0  0  0  0  0  0  0  0  0  0  0  0
   -2.3255    2.6415   -0.4317 C   0  0  0  0  0  0  0  0  0  0  0  0
   -1.4115    3.8246   -0.7898 C   0  0  0  0  0  0  0  0  0  0  0  0
   -1.2968    4.7935    0.3398 C   0  0  0  0  0  0  0  0  0  0  0  0
   -1.2783    4.3993    1.6182 C   0  0  0  0  0  0  0  0  0  0  0  0
    1.1592    2.3981    2.5895 C   0  0  0  0  0  0  0  0  0  0  0  0
    1.1102    2.9728    3.8678 C   0  0  0  0  0  0  0  0  0  0  0  0
    2.2833    3.2083    4.5756 C   0  0  0  0  0  0  0  0  0  0  0  0
    3.5166    2.8813    4.0103 C   0  0  0  0  0  0  0  0  0  0  0  0
    3.5709    2.3185    2.7380 C   0  0  0  0  0  0  0  0  0  0  0  0
    2.3975    2.0732    2.0271 C   0  0  0  0  0  0  0  0  0  0  0  0
   -0.5398   -1.4023    0.9275 C   0  0  0  0  0  0  0  0  0  0  0  0
   -1.8646   -1.8249    0.8311 C   0  0  0  0  0  0  0  0  0  0  0  0
   -2.3042   -2.9154    1.5752 C   0  0  0  0  0  0  0  0  0  0  0  0
   -1.4135   -3.6010    2.4082 C   0  0  0  0  0  0  0  0  0  0  0  0
   -0.0822   -3.1865    2.4855 C   0  0  0  0  0  0  0  0  0  0  0  0
    0.3535   -2.0893    1.7444 C   0  0  0  0  0  0  0  0  0  0  0  0
   -1.8938   -4.7674    3.2012 C   0  0  0  0  0  0  0  0  0  0  0  0
   -3.3745    2.9888   -0.3785 H   0  0  0  0  0  0  0  0  0  0  0  0
   -2.2914    1.8873   -1.2520 H   0  0  0  0  0  0  0  0  0  0  0  0
   -1.7850    4.3196   -1.7067 H   0  0  0  0  0  0  0  0  0  0  0  0
   -0.3976    3.4441   -1.0516 H   0  0  0  0  0  0  0  0  0  0  0  0
   -1.2180    5.8411    0.0601 H   0  0  0  0  0  0  0  0  0  0  0  0
   -1.1800    5.1054    2.4385 H   0  0  0  0  0  0  0  0  0  0  0  0
    0.1496    3.2350    4.3071 H   0  0  0  0  0  0  0  0  0  0  0  0
    2.2410    3.6495    5.5691 H   0  0  0  0  0  0  0  0  0  0  0  0
    4.4349    3.0681    4.5644 H   0  0  0  0  0  0  0  0  0  0  0  0
    4.5321    2.0654    2.2938 H   0  0  0  0  0  0  0  0  0  0  0  0
    2.4541    1.6245    1.0264 H   0  0  0  0  0  0  0  0  0  0  0  0
   -2.5685   -1.3183    0.1628 H   0  0  0  0  0  0  0  0  0  0  0  0
   -3.3389   -3.2397    1.5051 H   0  0  0  0  0  0  0  0  0  0  0  0
    0.6186   -3.7210    3.1215 H   0  0  0  0  0  0  0  0  0  0  0  0
    1.4055   -1.7852    1.8077 H   0  0  0  0  0  0  0  0  0  0  0  0
   -1.0889   -5.2714    3.7532 H   0  0  0  0  0  0  0  0  0  0  0  0
   -2.3634   -5.5273    2.5580 H   0  0  0  0  0  0  0  0  0  0  0  0
   -2.6480   -4.4625    3.9423 H   0  0  0  0  0  0  0  0  0  0  0  0
  1 20  1  0  0  0  0
  1  4  1  0  0  0  0
  2  1  2  0  0  0  0
  3  1  2  0  0  0  0
  4  5  2  0  0  0  0
  5  6  1  0  0  0  0
  5 14  1  0  0  0  0
  6  8  1  0  0  0  0
  6  7  1  1  0  0  0
  8  4  1  0  0  0  0
  8  9  1  1  0  0  0
 10 27  1  0  0  0  0
 10  8  1  0  0  0  0
 11 10  1  0  0  0  0
 11 12  1  0  0  0  0
 12 13  2  0  0  0  0
 13  6  1  0  0  0  0
 13 32  1  0  0  0  0
 14 15  1  0  0  0  0
 15 33  1  0  0  0  0
 15 16  2  0  0  0  0
 16 34  1  0  0  0  0
 17 35  1  0  0  0  0
 17 16  1  0  0  0  0
 18 17  2  0  0  0  0
 19 14  2  0  0  0  0
 19 18  1  0  0  0  0
 20 25  1  0  0  0  0
 21 20  2  0  0  0  0
 21 22  1  0  0  0  0
 22 23  2  0  0  0  0
 23 24  1  0  0  0  0
 23 26  1  0  0  0  0
 24 40  1  0  0  0  0
 25 41  1  0  0  0  0
 25 24  2  0  0  0  0
 26 42  1  0  0  0  0
 26 44  1  0  0  0  0
 28 10  1  0  0  0  0
 29 11  1  0  0  0  0
 30 11  1  0  0  0  0
 31 12  1  0  0  0  0
 36 18  1  0  0  0  0
 37 19  1  0  0  0  0
 38 21  1  0  0  0  0
 39 22  1  0  0  0  0
 43 26  1  0  0  0  0
M  END
$$$$
