rmsd99.gzmat
 OpenBabel08211713393D

 44 47  0  0  1  0  0  0  0  0999 V2000
    0.0000    0.0000    0.0000 S   0  0  0  0  0  0  0  0  0  0  0  0
    1.4542    0.0000    0.0000 O   0  0  0  0  0  0  0  0  0  0  0  0
   -0.7312    0.0000   -1.2563 O   0  0  0  0  0  0  0  0  0  0  0  0
   -0.5411    1.3411    0.9290 C   0  0  0  0  0  0  0  0  0  0  0  0
   -0.0745    2.1387    1.9151 C   0  0  0  0  0  0  0  0  0  0  0  0
   -1.3572    2.9958    1.9959 C   0  0  2  0  0  0  0  0  0  0  0  0
   -1.9214    2.8614    2.9312 H   0  0  0  0  0  0  0  0  0  0  0  0
   -1.8889    2.0620    0.8143 C   0  0  1  0  0  0  0  0  0  0  0  0
   -2.7501    1.4462    1.1220 H   0  0  0  0  0  0  0  0  0  0  0  0
   -2.1601    2.7732   -0.4976 C   0  0  0  0  0  0  0  0  0  0  0  0
   -1.1479    3.8979   -0.7707 C   0  0  0  0  0  0  0  0  0  0  0  0
   -1.0531    4.8387    0.3844 C   0  0  0  0  0  0  0  0  0  0  0  0
   -1.1515    4.4193    1.6510 C   0  0  0  0  0  0  0  0  0  0  0  0
    1.1192    2.3042    2.6995 C   0  0  0  0  0  0  0  0  0  0  0  0
    2.3733    1.9273    2.2084 C   0  0  0  0  0  0  0  0  0  0  0  0
    3.5158    2.1483    2.9750 C   0  0  0  0  0  0  0  0  0  0  0  0
    3.4164    2.7396    4.2317 C   0  0  0  0  0  0  0  0  0  0  0  0
    2.1673    3.1133    4.7292 C   0  0  0  0  0  0  0  0  0  0  0  0
    1.0248    2.8986    3.9672 C   0  0  0  0  0  0  0  0  0  0  0  0
   -0.5338   -1.4085    0.9206 C   0  0  0  0  0  0  0  0  0  0  0  0
   -1.7655   -1.9954    0.6377 C   0  0  0  0  0  0  0  0  0  0  0  0
   -2.1819   -3.1174    1.3484 C   0  0  0  0  0  0  0  0  0  0  0  0
   -1.3623   -3.6632    2.3415 C   0  0  0  0  0  0  0  0  0  0  0  0
   -0.1293   -3.0697    2.6234 C   0  0  0  0  0  0  0  0  0  0  0  0
    0.2853   -1.9477    1.9092 C   0  0  0  0  0  0  0  0  0  0  0  0
   -1.8010   -4.8856    3.0716 C   0  0  0  0  0  0  0  0  0  0  0  0
   -3.1832    3.1949   -0.4882 H   0  0  0  0  0  0  0  0  0  0  0  0
   -2.1331    2.0375   -1.3339 H   0  0  0  0  0  0  0  0  0  0  0  0
   -1.4232    4.4297   -1.7013 H   0  0  0  0  0  0  0  0  0  0  0  0
   -0.1451    3.4550   -0.9682 H   0  0  0  0  0  0  0  0  0  0  0  0
   -0.8889    5.8837    0.1348 H   0  0  0  0  0  0  0  0  0  0  0  0
   -1.0745    5.1019    2.4925 H   0  0  0  0  0  0  0  0  0  0  0  0
    2.4672    1.4616    1.2175 H   0  0  0  0  0  0  0  0  0  0  0  0
    4.4902    1.8577    2.5855 H   0  0  0  0  0  0  0  0  0  0  0  0
    4.3117    2.9116    4.8262 H   0  0  0  0  0  0  0  0  0  0  0  0
    2.0884    3.5766    5.7105 H   0  0  0  0  0  0  0  0  0  0  0  0
    0.0514    3.1952    4.3541 H   0  0  0  0  0  0  0  0  0  0  0  0
   -2.4097   -1.5947   -0.1535 H   0  0  0  0  0  0  0  0  0  0  0  0
   -3.1414   -3.5762    1.1247 H   0  0  0  0  0  0  0  0  0  0  0  0
    0.5129   -3.4860    3.3954 H   0  0  0  0  0  0  0  0  0  0  0  0
    1.2657   -1.5094    2.1277 H   0  0  0  0  0  0  0  0  0  0  0  0
   -1.1867   -5.0994    3.9566 H   0  0  0  0  0  0  0  0  0  0  0  0
   -1.7431   -5.7723    2.4197 H   0  0  0  0  0  0  0  0  0  0  0  0
   -2.8429   -4.8094    3.4142 H   0  0  0  0  0  0  0  0  0  0  0  0
  1 20  1  0  0  0  0
  1  4  1  0  0  0  0
  2  1  2  0  0  0  0
  3  1  2  0  0  0  0
  4  5  2  0  0  0  0
  5  6  1  0  0  0  0
  5 14  1  0  0  0  0
  6  8  1  0  0  0  0
  6  7  1  1  0  0  0
  8  4  1  0  0  0  0
  8  9  1  1  0  0  0
 10 27  1  0  0  0  0
 10  8  1  0  0  0  0
 11 10  1  0  0  0  0
 11 12  1  0  0  0  0
 12 13  2  0  0  0  0
 13  6  1  0  0  0  0
 13 32  1  0  0  0  0
 14 19  1  0  0  0  0
 15 14  2  0  0  0  0
 15 16  1  0  0  0  0
 16 17  2  0  0  0  0
 17 18  1  0  0  0  0
 17 35  1  0  0  0  0
 18 36  1  0  0  0  0
 19 37  1  0  0  0  0
 19 18  2  0  0  0  0
 20 25  1  0  0  0  0
 21 20  2  0  0  0  0
 21 22  1  0  0  0  0
 22 23  2  0  0  0  0
 23 24  1  0  0  0  0
 23 26  1  0  0  0  0
 24 40  1  0  0  0  0
 25 41  1  0  0  0  0
 25 24  2  0  0  0  0
 26 44  1  0  0  0  0
 26 42  1  0  0  0  0
 28 10  1  0  0  0  0
 29 11  1  0  0  0  0
 30 11  1  0  0  0  0
 31 12  1  0  0  0  0
 33 15  1  0  0  0  0
 34 16  1  0  0  0  0
 38 21  1  0  0  0  0
 39 22  1  0  0  0  0
 43 26  1  0  0  0  0
M  END
$$$$
