44
rmsd109.gzmat
S          0.00000        0.00000        0.00000
O          1.45400        0.00000        0.00000
O         -0.72970        0.00000       -1.25680
C         -0.55170        1.32750        0.94240
C         -0.07120        2.18500        1.87050
C         -1.41300        2.93050        2.05100
H         -1.87790        2.77510        3.03680
C         -1.96480        1.92100        0.94360
H         -2.72970        1.23660        1.34780
C         -2.43020        2.56420       -0.34850
C         -1.56590        3.77330       -0.74180
C         -1.44280        4.74810        0.38210
C         -1.36990        4.35670        1.65930
C          1.16410        2.46220        2.55220
C          2.39920        2.08110        2.01790
C          3.57790        2.39710        2.69110
C          3.53440        3.09200        3.89660
C          2.30520        3.47200        4.43730
C          1.12720        3.16140        3.76860
C         -0.54320       -1.40020        0.92820
C          0.27190       -1.94180        1.91920
C         -0.17590       -3.02280        2.67380
C         -1.43850       -3.57340        2.43160
C         -2.24180       -3.04190        1.41920
C         -1.79210       -1.95900        0.66800
C         -1.91020       -4.72920        3.24480
H         -3.48510        2.88280       -0.24720
H         -2.41120        1.81290       -1.17130
H         -1.98580        4.25350       -1.64620
H         -0.55050        3.42240       -1.03730
H         -1.40420        5.79700        0.09900
H         -1.26650        5.06670        2.47540
H          2.45190        1.53500        1.06550
H          4.53580        2.09820        2.26810
H          4.45680        3.34110        4.41820
H          2.27000        4.01370        5.37990
H          0.17020        3.46460        4.18980
H          1.27200       -1.53520        2.10910
H          0.45860       -3.44270        3.44980
H         -3.21690       -3.47520        1.21380
H         -2.42810       -1.56570       -0.13350
H         -1.31410       -5.63090        3.03370
H         -2.96010       -4.98880        3.05300
H         -1.82220       -4.53050        4.32320
