rmsd100.gzmat
 OpenBabel08211713393D

 44 47  0  0  1  0  0  0  0  0999 V2000
    0.0000    0.0000    0.0000 S   0  0  0  0  0  0  0  0  0  0  0  0
    1.4542    0.0000    0.0000 O   0  0  0  0  0  0  0  0  0  0  0  0
   -0.7311    0.0000   -1.2561 O   0  0  0  0  0  0  0  0  0  0  0  0
   -0.5413    1.3387    0.9318 C   0  0  0  0  0  0  0  0  0  0  0  0
   -0.0589    2.1646    1.8865 C   0  0  0  0  0  0  0  0  0  0  0  0
   -1.3641    2.9819    2.0111 C   0  0  2  0  0  0  0  0  0  0  0  0
   -1.8825    2.8470    2.9723 H   0  0  0  0  0  0  0  0  0  0  0  0
   -1.9167    2.0124    0.8683 C   0  0  1  0  0  0  0  0  0  0  0  0
   -2.7397    1.3705    1.2239 H   0  0  0  0  0  0  0  0  0  0  0  0
   -2.2768    2.6980   -0.4360 C   0  0  0  0  0  0  0  0  0  0  0  0
   -1.3089    3.8427   -0.7773 C   0  0  0  0  0  0  0  0  0  0  0  0
   -1.1845    4.8050    0.3573 C   0  0  0  0  0  0  0  0  0  0  0  0
   -1.2134    4.4049    1.6336 C   0  0  0  0  0  0  0  0  0  0  0  0
    1.1588    2.3862    2.6183 C   0  0  0  0  0  0  0  0  0  0  0  0
    2.4038    2.0178    2.0994 C   0  0  0  0  0  0  0  0  0  0  0  0
    3.5665    2.3016    2.8137 C   0  0  0  0  0  0  0  0  0  0  0  0
    3.4957    2.9453    4.0460 C   0  0  0  0  0  0  0  0  0  0  0  0
    2.2555    3.3077    4.5730 C   0  0  0  0  0  0  0  0  0  0  0  0
    1.0934    3.0332    3.8622 C   0  0  0  0  0  0  0  0  0  0  0  0
   -0.5372   -1.4082    0.9201 C   0  0  0  0  0  0  0  0  0  0  0  0
   -1.7781   -1.9809    0.6479 C   0  0  0  0  0  0  0  0  0  0  0  0
   -2.2054   -3.0934    1.3670 C   0  0  0  0  0  0  0  0  0  0  0  0
   -1.3870   -3.6451    2.3579 C   0  0  0  0  0  0  0  0  0  0  0  0
   -0.1393   -3.0739    2.6198 C   0  0  0  0  0  0  0  0  0  0  0  0
    0.2854   -1.9596    1.8988 C   0  0  0  0  0  0  0  0  0  0  0  0
   -1.8432   -4.8480    3.1095 C   0  0  0  0  0  0  0  0  0  0  0  0
   -3.3075    3.0966   -0.3722 H   0  0  0  0  0  0  0  0  0  0  0  0
   -2.2806    1.9541   -1.2645 H   0  0  0  0  0  0  0  0  0  0  0  0
   -1.6424    4.3513   -1.7017 H   0  0  0  0  0  0  0  0  0  0  0  0
   -0.3052    3.4232   -1.0161 H   0  0  0  0  0  0  0  0  0  0  0  0
   -1.0583    5.8489    0.0831 H   0  0  0  0  0  0  0  0  0  0  0  0
   -1.1137    5.1029    2.4602 H   0  0  0  0  0  0  0  0  0  0  0  0
    2.4755    1.5098    1.1277 H   0  0  0  0  0  0  0  0  0  0  0  0
    4.5335    2.0190    2.4014 H   0  0  0  0  0  0  0  0  0  0  0  0
    4.4062    3.1681    4.5995 H   0  0  0  0  0  0  0  0  0  0  0  0
    2.1995    3.8091    5.5368 H   0  0  0  0  0  0  0  0  0  0  0  0
    0.1269    3.3236    4.2701 H   0  0  0  0  0  0  0  0  0  0  0  0
   -2.4221   -1.5766   -0.1416 H   0  0  0  0  0  0  0  0  0  0  0  0
   -3.1725   -3.5404    1.1525 H   0  0  0  0  0  0  0  0  0  0  0  0
    0.5061   -3.5023    3.3822 H   0  0  0  0  0  0  0  0  0  0  0  0
    1.2756   -1.5376    2.1051 H   0  0  0  0  0  0  0  0  0  0  0  0
   -1.2321   -5.0537    3.9987 H   0  0  0  0  0  0  0  0  0  0  0  0
   -1.7989   -5.7470    2.4737 H   0  0  0  0  0  0  0  0  0  0  0  0
   -2.8832   -4.7496    3.4525 H   0  0  0  0  0  0  0  0  0  0  0  0
  1 20  1  0  0  0  0
  1  4  1  0  0  0  0
  2  1  2  0  0  0  0
  3  1  2  0  0  0  0
  4  5  2  0  0  0  0
  5  6  1  0  0  0  0
  5 14  1  0  0  0  0
  6  8  1  0  0  0  0
  6  7  1  1  0  0  0
  8  4  1  0  0  0  0
  8  9  1  1  0  0  0
 10 27  1  0  0  0  0
 10  8  1  0  0  0  0
 11 10  1  0  0  0  0
 11 12  1  0  0  0  0
 12 13  2  0  0  0  0
 13  6  1  0  0  0  0
 13 32  1  0  0  0  0
 14 19  1  0  0  0  0
 15 14  2  0  0  0  0
 15 16  1  0  0  0  0
 16 17  2  0  0  0  0
 17 18  1  0  0  0  0
 17 35  1  0  0  0  0
 18 36  1  0  0  0  0
 19 37  1  0  0  0  0
 19 18  2  0  0  0  0
 20 25  1  0  0  0  0
 21 20  2  0  0  0  0
 21 22  1  0  0  0  0
 22 23  2  0  0  0  0
 23 24  1  0  0  0  0
 23 26  1  0  0  0  0
 24 40  1  0  0  0  0
 25 41  1  0  0  0  0
 25 24  2  0  0  0  0
 26 44  1  0  0  0  0
 26 42  1  0  0  0  0
 28 10  1  0  0  0  0
 29 11  1  0  0  0  0
 30 11  1  0  0  0  0
 31 12  1  0  0  0  0
 33 15  1  0  0  0  0
 34 16  1  0  0  0  0
 38 21  1  0  0  0  0
 39 22  1  0  0  0  0
 43 26  1  0  0  0  0
M  END
$$$$
