39
rmsd6.gzmat
S         -0.24660       -0.06710       -0.13850
O          1.23570       -0.06180       -0.28470
O         -0.99630       -0.06590       -1.43220
C         -0.51910        1.61230        0.54060
C         -0.81410        1.79820        1.89350
C         -0.96910        3.08710        2.40530
C         -0.83900        4.18700        1.55370
C         -0.56840        4.01030        0.19230
C         -0.40490        2.71820       -0.31060
N         -0.98370        5.50720        2.10140
C         -0.08820        6.20580        2.88510
C          1.28280        5.79490        3.23430
C          2.00380        4.78880        2.56350
C          3.30700        4.46640        2.94810
C          3.95340        5.13580        3.99580
C          5.37390        4.81350        4.38650
C          3.23450        6.13990        4.66480
C          1.93190        6.46030        4.29650
C         -0.76330        7.36520        3.27290
C         -2.03830        7.25610        2.68410
C         -3.19700        8.18780        2.86410
F         -3.69650        8.65840        1.71130
F         -4.22300        7.60300        3.51650
F         -2.81990        9.26150        3.59380
N         -2.16310        6.13640        1.97790
N         -0.82040       -1.01380        0.97680
H         -1.41010       -1.68470        0.47790
H         -0.93810        0.90350        2.50740
H         -1.19810        3.25560        3.46040
H         -0.48370        4.88690       -0.45440
H         -0.19650        2.53980       -1.36800
H          1.55540        4.24520        1.73490
H          3.82930        3.67090        2.40950
H          6.07360        5.58180        4.01290
H          5.69760        3.84650        3.97330
H          5.49450        4.77820        5.48190
H          3.70400        6.67510        5.49610
H          1.39920        7.23200        4.85500
H         -0.38640        8.17980        3.88320
