rmsd3.gzmat
 OpenBabel08211713363D

 39 41  0  0  0  0  0  0  0  0999 V2000
    0.0000    0.0000    0.0000 S   0  0  0  0  0  0  0  0  0  0  0  0
    1.4734    0.0000    0.0000 O   0  0  0  0  0  0  0  0  0  0  0  0
   -0.6340    0.0000   -1.3359 O   0  0  0  0  0  0  0  0  0  0  0  0
   -0.3621    1.6620    0.6634 C   0  0  0  0  0  0  0  0  0  0  0  0
    0.4113    2.1767    1.6975 C   0  0  0  0  0  0  0  0  0  0  0  0
    0.1729    3.4648    2.1765 C   0  0  0  0  0  0  0  0  0  0  0  0
   -0.8502    4.2156    1.5927 C   0  0  0  0  0  0  0  0  0  0  0  0
   -1.6659    3.6905    0.5846 C   0  0  0  0  0  0  0  0  0  0  0  0
   -1.4040    2.4047    0.1172 C   0  0  0  0  0  0  0  0  0  0  0  0
   -1.0463    5.5763    1.9946 N   0  0  0  0  0  0  0  0  0  0  0  0
   -1.1193    6.7017    1.1691 C   0  0  0  0  0  0  0  0  0  0  0  0
   -1.0069    6.6697   -0.2761 C   0  0  0  0  0  0  0  0  0  0  0  0
   -1.8882    7.4348   -1.0466 C   0  0  0  0  0  0  0  0  0  0  0  0
   -1.7894    7.4242   -2.4339 C   0  0  0  0  0  0  0  0  0  0  0  0
   -0.8172    6.6425   -3.0639 C   0  0  0  0  0  0  0  0  0  0  0  0
   -0.7334    6.6133   -4.5525 C   0  0  0  0  0  0  0  0  0  0  0  0
    0.0622    5.8772   -2.2938 C   0  0  0  0  0  0  0  0  0  0  0  0
   -0.0268    5.8955   -0.9063 C   0  0  0  0  0  0  0  0  0  0  0  0
   -1.2915    7.8050    2.0164 C   0  0  0  0  0  0  0  0  0  0  0  0
   -1.2998    7.2665    3.3301 C   0  0  0  0  0  0  0  0  0  0  0  0
   -1.4351    7.9968    4.6113 C   0  0  0  0  0  0  0  0  0  0  0  0
   -2.5683    7.7576    5.2732 F   0  0  0  0  0  0  0  0  0  0  0  0
   -0.4728    7.7526    5.5013 F   0  0  0  0  0  0  0  0  0  0  0  0
   -1.4174    9.3261    4.4742 F   0  0  0  0  0  0  0  0  0  0  0  0
   -1.1500    5.9083    3.2903 N   0  0  0  0  0  0  0  0  0  0  0  0
   -0.7109   -1.0001    1.0594 N   0  0  0  0  0  0  0  0  0  0  0  0
   -1.2283   -1.7637    0.6913 H   0  0  0  0  0  0  0  0  0  0  0  0
    1.2207    1.5793    2.1311 H   0  0  0  0  0  0  0  0  0  0  0  0
    0.7696    3.8782    2.9850 H   0  0  0  0  0  0  0  0  0  0  0  0
   -2.4778    4.2766    0.1655 H   0  0  0  0  0  0  0  0  0  0  0  0
   -2.0138    1.9868   -0.6924 H   0  0  0  0  0  0  0  0  0  0  0  0
   -2.6590    8.0290   -0.5584 H   0  0  0  0  0  0  0  0  0  0  0  0
   -2.4750    8.0212   -3.0278 H   0  0  0  0  0  0  0  0  0  0  0  0
    0.2471    6.2717   -4.9110 H   0  0  0  0  0  0  0  0  0  0  0  0
   -0.9137    7.5994   -4.9981 H   0  0  0  0  0  0  0  0  0  0  0  0
   -1.4847    5.9242   -4.9696 H   0  0  0  0  0  0  0  0  0  0  0  0
    0.8124    5.2519   -2.7763 H   0  0  0  0  0  0  0  0  0  0  0  0
    0.6627    5.2916   -0.3110 H   0  0  0  0  0  0  0  0  0  0  0  0
   -1.3826    8.8296    1.7332 H   0  0  0  0  0  0  0  0  0  0  0  0
  1  4  1  0  0  0  0
  1 26  1  0  0  0  0
  2  1  2  0  0  0  0
  3  1  2  0  0  0  0
  4  5  2  0  0  0  0
  5 28  1  0  0  0  0
  5  6  1  0  0  0  0
  6 29  1  0  0  0  0
  7 10  1  0  0  0  0
  7  6  2  0  0  0  0
  8  7  1  0  0  0  0
  9  8  2  0  0  0  0
  9  4  1  0  0  0  0
 10 25  1  0  0  0  0
 11 10  1  0  0  0  0
 11 19  2  0  0  0  0
 12 11  1  0  0  0  0
 13 32  1  0  0  0  0
 13 12  2  0  0  0  0
 14 13  1  0  0  0  0
 15 14  2  0  0  0  0
 15 17  1  0  0  0  0
 16 15  1  0  0  0  0
 17 18  2  0  0  0  0
 18 38  1  0  0  0  0
 18 12  1  0  0  0  0
 19 20  1  0  0  0  0
 20 21  1  0  0  0  0
 21 22  1  0  0  0  0
 21 23  1  0  0  0  0
 24 21  1  0  0  0  0
 25 20  2  0  0  0  0
 27 26  1  0  0  0  0
 30  8  1  0  0  0  0
 31  9  1  0  0  0  0
 33 14  1  0  0  0  0
 34 16  1  0  0  0  0
 35 16  1  0  0  0  0
 36 16  1  0  0  0  0
 37 17  1  0  0  0  0
 39 19  1  0  0  0  0
M  RAD  1  26   2
M  END
$$$$
