rmsd4.gzmat
 OpenBabel08211713363D

 39 41  0  0  0  0  0  0  0  0999 V2000
    0.0000    0.0000    0.0000 S   0  0  0  0  0  0  0  0  0  0  0  0
    1.4778    0.0000    0.0000 O   0  0  0  0  0  0  0  0  0  0  0  0
   -0.6100    0.0000   -1.3410 O   0  0  0  0  0  0  0  0  0  0  0  0
   -0.4546    1.6553    0.6143 C   0  0  0  0  0  0  0  0  0  0  0  0
    0.4559    2.6992    0.5015 C   0  0  0  0  0  0  0  0  0  0  0  0
    0.0981    3.9876    0.8986 C   0  0  0  0  0  0  0  0  0  0  0  0
   -1.1851    4.1956    1.4081 C   0  0  0  0  0  0  0  0  0  0  0  0
   -2.0899    3.1424    1.5812 C   0  0  0  0  0  0  0  0  0  0  0  0
   -1.7121    1.8659    1.1734 C   0  0  0  0  0  0  0  0  0  0  0  0
   -1.6117    5.5262    1.7223 N   0  0  0  0  0  0  0  0  0  0  0  0
   -2.7575    6.1795    1.2609 C   0  0  0  0  0  0  0  0  0  0  0  0
   -3.7289    5.5972    0.3558 C   0  0  0  0  0  0  0  0  0  0  0  0
   -5.0911    5.8192    0.5830 C   0  0  0  0  0  0  0  0  0  0  0  0
   -6.0382    5.2807   -0.2813 C   0  0  0  0  0  0  0  0  0  0  0  0
   -5.6348    4.5096   -1.3749 C   0  0  0  0  0  0  0  0  0  0  0  0
   -6.6566    3.9105   -2.2812 C   0  0  0  0  0  0  0  0  0  0  0  0
   -4.2743    4.2861   -1.6003 C   0  0  0  0  0  0  0  0  0  0  0  0
   -3.3252    4.8327   -0.7437 C   0  0  0  0  0  0  0  0  0  0  0  0
   -2.7338    7.4640    1.8219 C   0  0  0  0  0  0  0  0  0  0  0  0
   -1.5424    7.5110    2.5924 C   0  0  0  0  0  0  0  0  0  0  0  0
   -1.0157    8.6453    3.3851 C   0  0  0  0  0  0  0  0  0  0  0  0
   -1.0204    8.4532    4.7050 F   0  0  0  0  0  0  0  0  0  0  0  0
    0.2410    8.9907    3.1037 F   0  0  0  0  0  0  0  0  0  0  0  0
   -1.7055    9.7785    3.2233 F   0  0  0  0  0  0  0  0  0  0  0  0
   -0.8774    6.3194    2.5169 N   0  0  0  0  0  0  0  0  0  0  0  0
   -0.6745   -0.9977    1.0884 N   0  0  0  0  0  0  0  0  0  0  0  0
   -0.1897   -1.8341    1.3105 H   0  0  0  0  0  0  0  0  0  0  0  0
    1.4600    2.5155    0.1012 H   0  0  0  0  0  0  0  0  0  0  0  0
    0.7998    4.8129    0.8146 H   0  0  0  0  0  0  0  0  0  0  0  0
   -3.0692    3.3173    2.0154 H   0  0  0  0  0  0  0  0  0  0  0  0
   -2.4051    1.0251    1.3015 H   0  0  0  0  0  0  0  0  0  0  0  0
   -5.4076    6.4074    1.4427 H   0  0  0  0  0  0  0  0  0  0  0  0
   -7.0946    5.4540   -0.0991 H   0  0  0  0  0  0  0  0  0  0  0  0
   -6.2515    3.6749   -3.2749 H   0  0  0  0  0  0  0  0  0  0  0  0
   -7.5171    4.5736   -2.4333 H   0  0  0  0  0  0  0  0  0  0  0  0
   -7.0405    2.9672   -1.8614 H   0  0  0  0  0  0  0  0  0  0  0  0
   -3.9491    3.6702   -2.4385 H   0  0  0  0  0  0  0  0  0  0  0  0
   -2.2628    4.6517   -0.9270 H   0  0  0  0  0  0  0  0  0  0  0  0
   -3.4518    8.2414    1.6876 H   0  0  0  0  0  0  0  0  0  0  0  0
  1  4  1  0  0  0  0
  1 26  1  0  0  0  0
  2  1  2  0  0  0  0
  3  1  2  0  0  0  0
  4  9  1  0  0  0  0
  5  4  2  0  0  0  0
  5  6  1  0  0  0  0
  6  7  2  0  0  0  0
  7  8  1  0  0  0  0
  7 10  1  0  0  0  0
  8 30  1  0  0  0  0
  9 31  1  0  0  0  0
  9  8  2  0  0  0  0
 10 25  1  0  0  0  0
 11 10  1  0  0  0  0
 11 19  2  0  0  0  0
 12 13  1  0  0  0  0
 12 11  1  0  0  0  0
 13 32  1  0  0  0  0
 14 33  1  0  0  0  0
 14 13  2  0  0  0  0
 15 14  1  0  0  0  0
 16 36  1  0  0  0  0
 16 15  1  0  0  0  0
 17 15  2  0  0  0  0
 17 18  1  0  0  0  0
 18 12  2  0  0  0  0
 19 20  1  0  0  0  0
 20 21  1  0  0  0  0
 21 22  1  0  0  0  0
 23 21  1  0  0  0  0
 24 21  1  0  0  0  0
 25 20  2  0  0  0  0
 26 27  1  0  0  0  0
 28  5  1  0  0  0  0
 29  6  1  0  0  0  0
 34 16  1  0  0  0  0
 35 16  1  0  0  0  0
 37 17  1  0  0  0  0
 38 18  1  0  0  0  0
 39 19  1  0  0  0  0
M  RAD  1  26   2
M  END
$$$$
