rmsd78.gzmat
 OpenBabel08211713373D

 57 59  0  0  1  0  0  0  0  0999 V2000
    0.0000    0.0000    0.0000 C   0  0  0  0  0  0  0  0  0  0  0  0
    1.3350    0.0000    0.0000 C   0  0  0  0  0  0  0  0  0  0  0  0
    2.1067    0.0000    1.2593 C   0  0  0  0  0  0  0  0  0  0  0  0
    3.3169   -0.0385    1.2613 O   0  0  0  0  0  0  0  0  0  0  0  0
    1.3287    0.0409    2.5088 C   0  0  0  0  0  0  0  0  0  0  0  0
   -0.0107    0.0378    2.5176 C   0  0  0  0  0  0  0  0  0  0  0  0
   -0.7880    0.0864    3.7963 C   0  0  0  0  0  0  0  0  0  0  0  0
   -1.7363    1.2920    3.8049 C   0  0  0  0  0  0  0  0  0  0  0  0
   -2.6277    1.2998    2.5561 C   0  0  2  0  0  0  0  0  0  0  0  0
   -3.2796    0.3940    2.5779 H   0  0  0  0  0  0  0  0  0  0  0  0
   -1.7661    1.2472    1.2648 C   0  0  1  0  0  0  0  0  0  0  0  0
   -0.8379   -0.0177    1.2511 C   0  0  1  0  0  0  0  0  0  0  0  0
   -1.6140   -1.3450    1.2348 C   0  0  0  0  0  0  0  0  0  0  0  0
   -2.5874    1.4374   -0.0557 C   0  0  2  0  0  0  0  0  0  0  0  0
   -1.8823    1.6533   -0.9024 H   0  0  0  0  0  0  0  0  0  0  0  0
   -3.6530    2.5409    0.0080 C   0  0  0  0  0  0  0  0  0  0  0  0
   -4.4634    2.5185    1.3004 C   0  0  1  0  0  0  0  0  0  0  0  0
   -3.4874    2.5601    2.5066 C   0  0  1  0  0  0  0  0  0  0  0  0
   -2.8044    3.4417    2.3879 H   0  0  0  0  0  0  0  0  0  0  0  0
   -4.4078    2.8737    3.6956 C   0  0  0  0  0  0  0  0  0  0  0  0
   -5.4313    3.8927    3.1234 C   0  0  0  0  0  0  0  0  0  0  0  0
   -6.4649    3.5704    3.4031 H   0  0  0  0  0  0  0  0  0  0  0  0
   -5.2913    3.8210    1.5717 C   0  0  2  0  0  0  0  0  0  0  0  0
   -6.6309    3.8152    0.8425 C   0  0  0  0  0  0  0  0  0  0  0  0
   -7.6221    3.3505    1.3484 O   0  0  0  0  0  0  0  0  0  0  0  0
   -6.6615    4.4023   -0.5470 C   0  0  0  0  0  0  0  0  0  0  0  0
   -7.7786    3.9541   -1.2765 O   0  0  0  0  0  0  0  0  0  0  0  0
   -4.6333    4.9390    1.0287 O   0  0  0  0  0  0  0  0  0  0  0  0
   -5.1962    5.3007    3.6545 C   0  0  0  0  0  0  0  0  0  0  0  0
   -5.4262    1.3284    1.3335 C   0  0  0  0  0  0  0  0  0  0  0  0
   -3.1321    0.2044   -0.4459 O   0  0  0  0  0  0  0  0  0  0  0  0
   -0.9173    2.3080    1.2931 F   0  0  0  0  0  0  0  0  0  0  0  0
   -0.5748   -0.0230   -0.9296 H   0  0  0  0  0  0  0  0  0  0  0  0
    1.9298   -0.0060   -0.9123 H   0  0  0  0  0  0  0  0  0  0  0  0
    1.9268    0.0845    3.4173 H   0  0  0  0  0  0  0  0  0  0  0  0
   -0.1154    0.1396    4.6781 H   0  0  0  0  0  0  0  0  0  0  0  0
   -1.3608   -0.8562    3.9255 H   0  0  0  0  0  0  0  0  0  0  0  0
   -1.1518    2.2304    3.8793 H   0  0  0  0  0  0  0  0  0  0  0  0
   -2.3660    1.2655    4.7148 H   0  0  0  0  0  0  0  0  0  0  0  0
   -2.4587   -1.3461    1.9275 H   0  0  0  0  0  0  0  0  0  0  0  0
   -0.9550   -2.1808    1.5039 H   0  0  0  0  0  0  0  0  0  0  0  0
   -2.0184   -1.5646    0.2344 H   0  0  0  0  0  0  0  0  0  0  0  0
   -3.1598    3.5289   -0.1158 H   0  0  0  0  0  0  0  0  0  0  0  0
   -4.3180    2.4425   -0.8752 H   0  0  0  0  0  0  0  0  0  0  0  0
   -4.9165    1.9675    4.0637 H   0  0  0  0  0  0  0  0  0  0  0  0
   -3.8547    3.2824    4.5537 H   0  0  0  0  0  0  0  0  0  0  0  0
   -5.7895    4.0970   -1.1592 H   0  0  0  0  0  0  0  0  0  0  0  0
   -6.6856    5.5117   -0.5042 H   0  0  0  0  0  0  0  0  0  0  0  0
   -8.5371    3.7778   -0.6716 H   0  0  0  0  0  0  0  0  0  0  0  0
   -3.8161    5.1495    1.5307 H   0  0  0  0  0  0  0  0  0  0  0  0
   -4.1475    5.6095    3.5821 H   0  0  0  0  0  0  0  0  0  0  0  0
   -5.4805    5.3755    4.7119 H   0  0  0  0  0  0  0  0  0  0  0  0
   -5.7952    6.0401    3.1049 H   0  0  0  0  0  0  0  0  0  0  0  0
   -4.9058    0.3666    1.4085 H   0  0  0  0  0  0  0  0  0  0  0  0
   -6.0645    1.3003    0.4405 H   0  0  0  0  0  0  0  0  0  0  0  0
   -6.1100    1.3761    2.1944 H   0  0  0  0  0  0  0  0  0  0  0  0
   -4.0542    0.0906   -0.1356 H   0  0  0  0  0  0  0  0  0  0  0  0
  1  2  2  0  0  0  0
  1 12  1  0  0  0  0
  2  3  1  0  0  0  0
  3  4  2  0  0  0  0
  3  5  1  0  0  0  0
  5  6  2  0  0  0  0
  5 35  1  0  0  0  0
  6  7  1  0  0  0  0
  7  8  1  0  0  0  0
  7 37  1  0  0  0  0
  7 36  1  0  0  0  0
  8 38  1  0  0  0  0
  8 39  1  0  0  0  0
  9 11  1  0  0  0  0
  9 10  1  1  0  0  0
  9  8  1  0  0  0  0
 11 14  1  0  0  0  0
 11 32  1  1  0  0  0
 12 11  1  0  0  0  0
 12  6  1  0  0  0  0
 12 13  1  1  0  0  0
 13 41  1  0  0  0  0
 13 40  1  0  0  0  0
 14 15  1  6  0  0  0
 14 16  1  0  0  0  0
 16 17  1  0  0  0  0
 17 30  1  1  0  0  0
 17 23  1  0  0  0  0
 17 18  1  0  0  0  0
 18  9  1  0  0  0  0
 18 20  1  0  0  0  0
 18 19  1  6  0  0  0
 20 45  1  0  0  0  0
 20 46  1  0  0  0  0
 21 22  1  0  0  0  0
 21 29  1  0  0  0  0
 21 20  1  0  0  0  0
 23 24  1  6  0  0  0
 24 25  2  0  0  0  0
 26 48  1  0  0  0  0
 26 24  1  0  0  0  0
 27 49  1  0  0  0  0
 27 26  1  0  0  0  0
 28 50  1  0  0  0  0
 28 23  1  0  0  0  0
 29 52  1  0  0  0  0
 30 54  1  0  0  0  0
 30 56  1  0  0  0  0
 31 57  1  0  0  0  0
 31 14  1  0  0  0  0
 33  1  1  0  0  0  0
 34  2  1  0  0  0  0
 42 13  1  0  0  0  0
 43 16  1  0  0  0  0
 44 16  1  0  0  0  0
 47 26  1  0  0  0  0
 51 29  1  0  0  0  0
 53 29  1  0  0  0  0
 55 30  1  0  0  0  0
M  RAD  2  21   2  23   2
M  END
$$$$
