57
rmsd97.gzmat
C          0.00000        0.00000        0.00000
C          1.33510        0.00000        0.00000
C          2.10820        0.00000        1.25860
O          3.31920        0.00250        1.25950
C          1.33230       -0.00620        2.51010
C         -0.00690       -0.00170        2.51950
C         -0.78420        0.03280        3.79880
C         -1.69290        1.26890        3.83140
C         -2.57480        1.33760        2.57740
H         -3.25270        0.45000        2.57180
C         -1.70800        1.29350        1.29050
C         -0.83570       -0.00940        1.25170
C         -1.66280       -1.30440        1.21620
C         -2.50100        1.56790       -0.03360
H         -1.77220        1.80170       -0.85550
C         -3.53890        2.69560        0.06200
C         -4.36650        2.63100        1.34260
C         -3.39950        2.62150        2.55640
H         -2.69520        3.48820        2.45850
C         -4.31200        2.91650        3.75650
C         -5.38200        3.89820        3.20710
H         -6.40030        3.49270        3.43080
C         -5.19360        3.92170        1.66070
C         -6.50680        3.97590        0.88800
O         -7.51670        3.48340        1.32540
C         -6.48540        4.66320       -0.45700
O         -7.48020        4.14580       -1.30710
O         -4.50600        5.06440        1.21310
C         -5.26490        5.28530        3.82350
C         -5.32960        1.44080        1.31890
O         -3.06990        0.36310       -0.48040
F         -0.81420        2.31540        1.36140
H         -0.57630       -0.02140       -0.92920
H          1.92880       -0.00160       -0.91290
H          1.93090        0.00310        3.41940
H         -0.11120        0.04250        4.68110
H         -1.38620       -0.89350        3.90550
H         -1.07810        2.18520        3.93140
H         -2.33010        1.24100        4.73570
H         -2.44680       -1.32340        1.97720
H         -1.01790       -2.17910        1.37560
H         -2.15590       -1.44410        0.24230
H         -3.02190        3.67680       -0.01110
H         -4.19390        2.65870       -0.83320
H         -4.78220        1.99720        4.14150
H         -3.75360        3.34730        4.60120
H         -5.54070        4.49840       -1.01380
H         -6.63470        5.75630       -0.33710
H         -8.30300        3.95680       -0.79800
H         -3.73600        5.26360        1.78820
H         -4.23890        5.66920        3.80600
H         -5.58970        5.27910        4.87220
H         -5.89670        6.01130        3.29330
H         -4.80380        0.47950        1.36530
H         -5.95730        1.44340        0.41790
H         -6.02080        1.45510        2.17410
H         -4.03610        0.32890       -0.32880
