rmsd32.gzmat
 OpenBabel08211713373D

 57 60  0  0  1  0  0  0  0  0999 V2000
    0.0000    0.0000    0.0000 C   0  0  0  0  0  0  0  0  0  0  0  0
    1.3353    0.0000    0.0000 C   0  0  0  0  0  0  0  0  0  0  0  0
    2.1096    0.0000    1.2580 C   0  0  0  0  0  0  0  0  0  0  0  0
    3.3204   -0.0137    1.2583 O   0  0  0  0  0  0  0  0  0  0  0  0
    1.3339    0.0133    2.5090 C   0  0  0  0  0  0  0  0  0  0  0  0
   -0.0051    0.0227    2.5172 C   0  0  0  0  0  0  0  0  0  0  0  0
   -0.7780    0.0690    3.7983 C   0  0  0  0  0  0  0  0  0  0  0  0
   -1.6930    1.2996    3.8117 C   0  0  0  0  0  0  0  0  0  0  0  0
   -2.5934    1.3228    2.5699 C   0  0  2  0  0  0  0  0  0  0  0  0
   -3.2511    0.4201    2.5902 H   0  0  0  0  0  0  0  0  0  0  0  0
   -1.7430    1.2707    1.2717 C   0  0  1  0  0  0  0  0  0  0  0  0
   -0.8361   -0.0092    1.2513 C   0  0  1  0  0  0  0  0  0  0  0  0
   -1.6384   -1.3209    1.2435 C   0  0  0  0  0  0  0  0  0  0  0  0
   -2.5690    1.4888   -0.0432 C   0  0  2  0  0  0  0  0  0  0  0  0
   -1.8655    1.7197   -0.8878 H   0  0  0  0  0  0  0  0  0  0  0  0
   -3.6312    2.5955    0.0439 C   0  0  0  0  0  0  0  0  0  0  0  0
   -4.4358    2.5499    1.3403 C   0  0  1  0  0  0  0  0  0  0  0  0
   -3.4482    2.5854    2.5376 C   0  0  1  0  0  0  0  0  0  0  0  0
   -2.7659    3.4671    2.4183 H   0  0  0  0  0  0  0  0  0  0  0  0
   -4.3537    2.8840    3.7413 C   0  0  0  0  0  0  0  0  0  0  0  0
   -5.3958    3.8953    3.1932 C   0  0  2  0  0  0  0  0  0  0  0  0
   -6.4209    3.5604    3.4872 H   0  0  0  0  0  0  0  0  0  0  0  0
   -5.2772    3.8371    1.6387 C   0  0  2  0  0  0  0  0  0  0  0  0
   -6.6272    3.8261    0.9295 C   0  0  0  0  0  0  0  0  0  0  0  0
   -7.5992    3.3191    1.4317 O   0  0  0  0  0  0  0  0  0  0  0  0
   -6.6916    4.4658   -0.4373 C   0  0  0  0  0  0  0  0  0  0  0  0
   -7.7345    3.9167   -1.2057 O   0  0  0  0  0  0  0  0  0  0  0  0
   -4.6401    4.9712    1.1030 O   0  0  0  0  0  0  0  0  0  0  0  0
   -5.1673    5.3037    3.7281 C   0  0  0  0  0  0  0  0  0  0  0  0
   -5.3791    1.3438    1.3569 C   0  0  0  0  0  0  0  0  0  0  0  0
   -3.1137    0.2566   -0.4430 O   0  0  0  0  0  0  0  0  0  0  0  0
   -0.8775    2.3182    1.3015 F   0  0  0  0  0  0  0  0  0  0  0  0
   -0.5742   -0.0226   -0.9301 H   0  0  0  0  0  0  0  0  0  0  0  0
    1.9291   -0.0026   -0.9130 H   0  0  0  0  0  0  0  0  0  0  0  0
    1.9305    0.0292    3.4198 H   0  0  0  0  0  0  0  0  0  0  0  0
   -0.1007    0.0984    4.6767 H   0  0  0  0  0  0  0  0  0  0  0  0
   -1.3724   -0.8605    3.9191 H   0  0  0  0  0  0  0  0  0  0  0  0
   -1.0804    2.2210    3.8713 H   0  0  0  0  0  0  0  0  0  0  0  0
   -2.3137    1.2980    4.7276 H   0  0  0  0  0  0  0  0  0  0  0  0
   -2.4674   -1.3056    1.9563 H   0  0  0  0  0  0  0  0  0  0  0  0
   -0.9927   -2.1724    1.4950 H   0  0  0  0  0  0  0  0  0  0  0  0
   -2.0716   -1.5259    0.2536 H   0  0  0  0  0  0  0  0  0  0  0  0
   -3.1365    3.5843   -0.0676 H   0  0  0  0  0  0  0  0  0  0  0  0
   -4.3030    2.5188   -0.8363 H   0  0  0  0  0  0  0  0  0  0  0  0
   -4.8476    1.9702    4.1100 H   0  0  0  0  0  0  0  0  0  0  0  0
   -3.7921    3.2915    4.5946 H   0  0  0  0  0  0  0  0  0  0  0  0
   -5.7817    4.2812   -1.0434 H   0  0  0  0  0  0  0  0  0  0  0  0
   -6.8363    5.5627   -0.3497 H   0  0  0  0  0  0  0  0  0  0  0  0
   -8.5231    3.7424   -0.6408 H   0  0  0  0  0  0  0  0  0  0  0  0
   -3.8136    5.1769    1.5905 H   0  0  0  0  0  0  0  0  0  0  0  0
   -4.1142    5.6039    3.6879 H   0  0  0  0  0  0  0  0  0  0  0  0
   -5.4835    5.3869    4.7757 H   0  0  0  0  0  0  0  0  0  0  0  0
   -5.7431    6.0445    3.1552 H   0  0  0  0  0  0  0  0  0  0  0  0
   -4.8392    0.3928    1.4379 H   0  0  0  0  0  0  0  0  0  0  0  0
   -6.0040    1.3035    0.4545 H   0  0  0  0  0  0  0  0  0  0  0  0
   -6.0744    1.3781    2.2088 H   0  0  0  0  0  0  0  0  0  0  0  0
   -4.0758    0.2026   -0.2762 H   0  0  0  0  0  0  0  0  0  0  0  0
  1  2  2  0  0  0  0
  1 12  1  0  0  0  0
  2  3  1  0  0  0  0
  3  4  2  0  0  0  0
  3  5  1  0  0  0  0
  5  6  2  0  0  0  0
  5 35  1  0  0  0  0
  6  7  1  0  0  0  0
  7  8  1  0  0  0  0
  7 37  1  0  0  0  0
  7 36  1  0  0  0  0
  8 38  1  0  0  0  0
  8 39  1  0  0  0  0
  9 11  1  0  0  0  0
  9 10  1  1  0  0  0
  9  8  1  0  0  0  0
 11 14  1  0  0  0  0
 11 32  1  1  0  0  0
 12 11  1  0  0  0  0
 12  6  1  0  0  0  0
 12 13  1  1  0  0  0
 13 41  1  0  0  0  0
 13 40  1  0  0  0  0
 14 15  1  6  0  0  0
 14 16  1  0  0  0  0
 16 17  1  0  0  0  0
 17 30  1  1  0  0  0
 17 23  1  0  0  0  0
 18 17  1  0  0  0  0
 18  9  1  0  0  0  0
 18 20  1  0  0  0  0
 18 19  1  6  0  0  0
 20 45  1  0  0  0  0
 20 46  1  0  0  0  0
 21 23  1  0  0  0  0
 21 22  1  1  0  0  0
 21 29  1  0  0  0  0
 21 20  1  0  0  0  0
 23 24  1  6  0  0  0
 24 25  2  0  0  0  0
 26 48  1  0  0  0  0
 26 24  1  0  0  0  0
 27 49  1  0  0  0  0
 27 26  1  0  0  0  0
 28 50  1  0  0  0  0
 28 23  1  0  0  0  0
 29 52  1  0  0  0  0
 30 54  1  0  0  0  0
 30 56  1  0  0  0  0
 31 57  1  0  0  0  0
 31 14  1  0  0  0  0
 33  1  1  0  0  0  0
 34  2  1  0  0  0  0
 42 13  1  0  0  0  0
 43 16  1  0  0  0  0
 44 16  1  0  0  0  0
 47 26  1  0  0  0  0
 51 29  1  0  0  0  0
 53 29  1  0  0  0  0
 55 30  1  0  0  0  0
M  END
$$$$
