57

C         -0.03150       -0.10190        0.00950
C          1.30200        0.00630       -0.06510
C          2.13950        0.18670        1.14200
O          3.35480        0.30120        1.07680
C          1.41380        0.20770        2.42590
C          0.07580        0.09780        2.52030
C         -0.64920        0.16830        3.83430
C         -1.69360        1.29260        3.82540
C         -2.61890        1.25420        2.60000
H         -3.26040        0.36190        2.65440
C         -1.79370        1.16150        1.29560
C         -0.81450       -0.07430        1.29730
C         -1.54190       -1.44340        1.40930
C         -2.62280        1.33280       -0.00110
H         -1.88280        1.55460       -0.79030
C         -3.59120        2.52640        0.05810
C         -4.44570        2.55420        1.32760
C         -3.49750        2.50310        2.54520
H         -2.78020        3.33360        2.41560
C         -4.38880        2.86080        3.73960
C         -5.44640        3.84750        3.15940
H         -6.44590        3.40020        3.24290
C         -5.14830        3.93870        1.62760
C         -6.41170        4.13950        0.80310
O         -7.47300        3.62850        1.10530
C         -6.33520        4.98540       -0.45350
O         -7.53050        4.93840       -1.16350
O         -4.30890        5.03160        1.28820
C         -5.48030        5.21010        3.84440
C         -5.47240        1.40810        1.33360
O         -3.28050        0.10940       -0.28620
F         -0.95690        2.29720        1.28150
H         -0.61860       -0.27180       -0.89730
H          1.83590       -0.04560       -1.01710
H          2.03520        0.32800        3.31750
H          0.06900        0.32110        4.65310
H         -1.15340       -0.79400        4.02820
H         -1.16960        2.26150        3.83180
H         -2.30000        1.24760        4.74280
H         -2.24680       -1.47370        2.25000
H         -0.78660       -2.22690        1.56860
H         -2.10260       -1.66080        0.49560
H         -2.99810        3.44870       -0.00110
H         -4.21720        2.50340       -0.85200
H         -4.87250        1.96130        4.15160
H         -3.81370        3.31740        4.55840
H         -5.47880        4.63520       -1.06190
H         -6.06220        6.01180       -0.13550
H         -8.14870        4.44460       -0.59500
H         -3.47080        4.94870        1.75960
H         -4.50280        5.71510        3.80290
H         -5.75600        5.09810        4.90440
H         -6.21720        5.87800        3.37220
H         -4.96910        0.43530        1.32050
H         -6.10860        1.45770        0.43780
H         -6.14570        1.44830        2.19850
H         -3.89460        0.25830       -1.01650
