57
rmsd30.gzmat
C          0.00000        0.00000        0.00000
C          1.33520        0.00000        0.00000
C          2.10820        0.00000        1.25900
O          3.31910       -0.00560        1.25900
C          1.33230        0.00480        2.51000
C         -0.00670        0.01610        2.51840
C         -0.78230        0.06300        3.79790
C         -1.67540        1.31010        3.82060
C         -2.56610        1.37280        2.57360
H         -3.26030        0.49760        2.58960
C         -1.71940        1.29250        1.27460
C         -0.83670       -0.00330        1.25170
C         -1.66100       -1.30010        1.23440
C         -2.55450        1.51470       -0.03370
H         -1.85560        1.69190       -0.89350
C         -3.56820        2.66590        0.04500
C         -4.36650        2.66250        1.34670
C         -3.36610        2.67220        2.53370
H         -2.64810        3.52130        2.38690
C         -4.23360        3.03630        3.74650
C         -5.27360        4.04550        3.19000
H         -6.29990        3.71040        3.48150
C         -5.15420        3.98340        1.63720
C         -6.50260        4.02210        0.92700
O         -7.49580        3.56350        1.43410
C         -6.54180        4.64250       -0.44950
O         -7.58580        4.09420       -1.21740
O         -4.47120        5.08850        1.09790
C         -5.04740        5.45420        3.72190
C         -5.35980        1.49820        1.38780
O         -3.16140        0.29760       -0.38670
F         -0.83280        2.32230        1.29070
H         -0.57550       -0.02370       -0.92940
H          1.93000       -0.00140       -0.91240
H          1.92860        0.01540        3.42080
H         -0.10950        0.07180        4.68050
H         -1.39220       -0.85760        3.90900
H         -1.04700        2.21900        3.89980
H         -2.30470        1.30350        4.73110
H         -2.48200       -1.28120        1.95610
H         -1.02650       -2.16620        1.46290
H         -2.11110       -1.48240        0.24660
H         -3.03250        3.63240       -0.07340
H         -4.24470        2.61260       -0.83280
H         -4.73050        2.15060        4.17340
H         -3.63590        3.47070        4.56240
H         -5.62950        4.43470       -1.04410
H         -6.67290        5.74210       -0.37940
H         -8.38280        3.94650       -0.65560
H         -3.65040        5.27930        1.60140
H         -3.99970        5.76650        3.64960
H         -5.33500        5.52710        4.77850
H         -5.64750        6.19040        3.16950
H         -4.86240        0.52560        1.48470
H         -5.99100        1.47150        0.48920
H         -6.04700        1.57560        2.24340
H         -4.12580        0.30170       -0.22080
