57
rmsd61.gzmat
C          0.00000        0.00000        0.00000
C          1.33510        0.00000        0.00000
C          2.10950        0.00000        1.25830
O          3.32020        0.00810        1.25790
C          1.33420       -0.01380        2.50980
C         -0.00480       -0.00380        2.51870
C         -0.77850        0.03160        3.79970
C         -1.66890        1.28010        3.83580
C         -2.55900        1.35270        2.58770
H         -3.24420        0.47140        2.59180
C         -1.70310        1.30250        1.29230
C         -0.83600       -0.00500        1.25210
C         -1.67280       -1.29430        1.22260
C         -2.51620        1.57000       -0.02070
H         -1.80570        1.78910       -0.86190
C         -3.54690        2.70660        0.08230
C         -4.35740        2.66400        1.37380
C         -3.37290        2.64220        2.57390
H         -2.66080        3.50210        2.46770
C         -4.26600        2.94830        3.78470
C         -5.30540        3.97010        3.25060
H         -6.33390        3.61090        3.50150
C         -5.14870        3.97530        1.69860
C         -6.48110        4.06510        0.96400
O         -7.47060        3.52010        1.38770
C         -6.51260        4.86730       -0.31320
O         -7.64540        4.56440       -1.09110
O         -4.44270        5.09890        1.23210
C         -5.10830        5.35490        3.85170
C         -5.34770        1.49650        1.36630
O         -3.11470        0.38540       -0.47000
F         -0.80610        2.32130        1.34760
H         -0.57570       -0.02340       -0.92970
H          1.92970       -0.00210       -0.91280
H          1.93080       -0.01450        3.42080
H         -0.10350        0.02930        4.68070
H         -1.39140       -0.88740        3.90390
H         -1.04050        2.18840        3.92440
H         -2.29800        1.26710        4.74630
H         -2.46420       -1.29960        1.97640
H         -1.03570       -2.17120        1.40340
H         -2.14850       -1.44740        0.24260
H         -3.02550        3.68250       -0.01160
H         -4.21700        2.65420       -0.80150
H         -4.76340        2.03940        4.16000
H         -3.68940        3.35070        4.63100
H         -5.65340        4.64510       -0.97840
H         -6.51300        5.95540       -0.09190
H         -8.39910        4.29850       -0.51350
H         -3.62590        5.24800        1.75530
H         -4.06750        5.69340        3.79700
H         -5.39710        5.36870        4.91050
H         -5.72320        6.10590        3.33720
H         -4.85060        0.52160        1.42970
H         -5.96700        1.49990        0.45810
H         -6.04630        1.54380        2.21490
H         -3.91710        0.16040        0.04780
