rmsd85.gzmat
 OpenBabel08211713373D

 57 59  0  0  1  0  0  0  0  0999 V2000
    0.0000    0.0000    0.0000 C   0  0  0  0  0  0  0  0  0  0  0  0
    1.3352    0.0000    0.0000 C   0  0  0  0  0  0  0  0  0  0  0  0
    2.1090    0.0000    1.2582 C   0  0  0  0  0  0  0  0  0  0  0  0
    3.3195   -0.0299    1.2585 O   0  0  0  0  0  0  0  0  0  0  0  0
    1.3334    0.0306    2.5089 C   0  0  0  0  0  0  0  0  0  0  0  0
   -0.0057    0.0445    2.5182 C   0  0  0  0  0  0  0  0  0  0  0  0
   -0.7772    0.1061    3.7997 C   0  0  0  0  0  0  0  0  0  0  0  0
   -1.6986    1.3319    3.8088 C   0  0  0  0  0  0  0  0  0  0  0  0
   -2.5859    1.3643    2.5581 C   0  0  2  0  0  0  0  0  0  0  0  0
   -3.2626    0.4758    2.5791 H   0  0  0  0  0  0  0  0  0  0  0  0
   -1.7317    1.2899    1.2636 C   0  0  1  0  0  0  0  0  0  0  0  0
   -0.8359    0.0028    1.2525 C   0  0  1  0  0  0  0  0  0  0  0  0
   -1.6460   -1.3035    1.2514 C   0  0  0  0  0  0  0  0  0  0  0  0
   -2.5571    1.4998   -0.0522 C   0  0  2  0  0  0  0  0  0  0  0  0
   -1.8531    1.6927   -0.9051 H   0  0  0  0  0  0  0  0  0  0  0  0
   -3.5916    2.6321    0.0181 C   0  0  0  0  0  0  0  0  0  0  0  0
   -4.3977    2.6234    1.3140 C   0  0  1  0  0  0  0  0  0  0  0  0
   -3.4110    2.6467    2.5114 C   0  0  1  0  0  0  0  0  0  0  0  0
   -2.7066    3.5094    2.3792 H   0  0  0  0  0  0  0  0  0  0  0  0
   -4.3047    2.9889    3.7125 C   0  0  0  0  0  0  0  0  0  0  0  0
   -5.3418    3.9959    3.1451 C   0  0  0  0  0  0  0  0  0  0  0  0
   -6.3711    3.6564    3.4186 H   0  0  0  0  0  0  0  0  0  0  0  0
   -5.1965    3.9403    1.5940 C   0  0  2  0  0  0  0  0  0  0  0  0
   -6.5277    3.9830    0.8523 C   0  0  0  0  0  0  0  0  0  0  0  0
   -7.5356    3.5318    1.3359 O   0  0  0  0  0  0  0  0  0  0  0  0
   -6.5237    4.6046   -0.5241 C   0  0  0  0  0  0  0  0  0  0  0  0
   -7.5759    4.1019   -1.3109 O   0  0  0  0  0  0  0  0  0  0  0  0
   -4.5034    5.0488    1.0737 O   0  0  0  0  0  0  0  0  0  0  0  0
   -5.1284    5.4041    3.6835 C   0  0  0  0  0  0  0  0  0  0  0  0
   -5.3830    1.4523    1.3523 C   0  0  0  0  0  0  0  0  0  0  0  0
   -3.1389    0.2766   -0.4239 O   0  0  0  0  0  0  0  0  0  0  0  0
   -0.8562    2.3291    1.2826 F   0  0  0  0  0  0  0  0  0  0  0  0
   -0.5742   -0.0304   -0.9303 H   0  0  0  0  0  0  0  0  0  0  0  0
    1.9301   -0.0057   -0.9122 H   0  0  0  0  0  0  0  0  0  0  0  0
    1.9314    0.0536    3.4184 H   0  0  0  0  0  0  0  0  0  0  0  0
   -0.0980    0.1462    4.6767 H   0  0  0  0  0  0  0  0  0  0  0  0
   -1.3684   -0.8240    3.9334 H   0  0  0  0  0  0  0  0  0  0  0  0
   -1.0942    2.2571    3.8868 H   0  0  0  0  0  0  0  0  0  0  0  0
   -2.3335    1.3165    4.7156 H   0  0  0  0  0  0  0  0  0  0  0  0
   -2.4561   -1.2928    1.9855 H   0  0  0  0  0  0  0  0  0  0  0  0
   -0.9984   -2.1613    1.4761 H   0  0  0  0  0  0  0  0  0  0  0  0
   -2.1049   -1.4959    0.2697 H   0  0  0  0  0  0  0  0  0  0  0  0
   -3.0730    3.6080   -0.1021 H   0  0  0  0  0  0  0  0  0  0  0  0
   -4.2623    2.5601   -0.8630 H   0  0  0  0  0  0  0  0  0  0  0  0
   -4.8021    2.0925    4.1163 H   0  0  0  0  0  0  0  0  0  0  0  0
   -3.7284    3.4180    4.5458 H   0  0  0  0  0  0  0  0  0  0  0  0
   -5.6113    4.3604   -1.1050 H   0  0  0  0  0  0  0  0  0  0  0  0
   -6.6079    5.7092   -0.4549 H   0  0  0  0  0  0  0  0  0  0  0  0
   -8.3886    3.9896   -0.7639 H   0  0  0  0  0  0  0  0  0  0  0  0
   -3.6870    5.2307    1.5874 H   0  0  0  0  0  0  0  0  0  0  0  0
   -4.0864    5.7322    3.5974 H   0  0  0  0  0  0  0  0  0  0  0  0
   -5.4017    5.4688    4.7443 H   0  0  0  0  0  0  0  0  0  0  0  0
   -5.7470    6.1339    3.1430 H   0  0  0  0  0  0  0  0  0  0  0  0
   -4.8814    0.4844    1.4699 H   0  0  0  0  0  0  0  0  0  0  0  0
   -5.9981    1.4107    0.4433 H   0  0  0  0  0  0  0  0  0  0  0  0
   -6.0866    1.5361    2.1943 H   0  0  0  0  0  0  0  0  0  0  0  0
   -4.0924    0.2372   -0.2067 H   0  0  0  0  0  0  0  0  0  0  0  0
  1  2  2  0  0  0  0
  1 12  1  0  0  0  0
  2  3  1  0  0  0  0
  3  4  2  0  0  0  0
  3  5  1  0  0  0  0
  5  6  2  0  0  0  0
  5 35  1  0  0  0  0
  6  7  1  0  0  0  0
  7  8  1  0  0  0  0
  7 37  1  0  0  0  0
  7 36  1  0  0  0  0
  8 38  1  0  0  0  0
  8 39  1  0  0  0  0
  9 11  1  0  0  0  0
  9 10  1  1  0  0  0
  9  8  1  0  0  0  0
 11 14  1  0  0  0  0
 11 32  1  1  0  0  0
 12 11  1  0  0  0  0
 12  6  1  0  0  0  0
 12 13  1  1  0  0  0
 13 41  1  0  0  0  0
 13 40  1  0  0  0  0
 14 15  1  6  0  0  0
 14 16  1  0  0  0  0
 16 17  1  0  0  0  0
 17 30  1  1  0  0  0
 17 23  1  0  0  0  0
 17 18  1  0  0  0  0
 18  9  1  0  0  0  0
 18 20  1  0  0  0  0
 18 19  1  6  0  0  0
 20 45  1  0  0  0  0
 20 46  1  0  0  0  0
 21 22  1  0  0  0  0
 21 29  1  0  0  0  0
 21 20  1  0  0  0  0
 23 24  1  6  0  0  0
 24 25  2  0  0  0  0
 26 48  1  0  0  0  0
 26 24  1  0  0  0  0
 27 49  1  0  0  0  0
 27 26  1  0  0  0  0
 28 50  1  0  0  0  0
 28 23  1  0  0  0  0
 29 52  1  0  0  0  0
 30 54  1  0  0  0  0
 30 56  1  0  0  0  0
 31 57  1  0  0  0  0
 31 14  1  0  0  0  0
 33  1  1  0  0  0  0
 34  2  1  0  0  0  0
 42 13  1  0  0  0  0
 43 16  1  0  0  0  0
 44 16  1  0  0  0  0
 47 26  1  0  0  0  0
 51 29  1  0  0  0  0
 53 29  1  0  0  0  0
 55 30  1  0  0  0  0
M  RAD  2  21   2  23   2
M  END
$$$$
