
     RDKit          3D

 57 60  0  0  0  0  0  0  0  0999 V2000
   -0.0315   -0.1019    0.0095 C   0  0  0  0  0  0  0  0  0  0  0  0
    1.3020    0.0063   -0.0651 C   0  0  0  0  0  0  0  0  0  0  0  0
    2.1395    0.1867    1.1420 C   0  0  0  0  0  0  0  0  0  0  0  0
    3.3548    0.3012    1.0768 O   0  0  0  0  0  0  0  0  0  0  0  0
    1.4138    0.2077    2.4259 C   0  0  0  0  0  0  0  0  0  0  0  0
    0.0758    0.0978    2.5203 C   0  0  0  0  0  0  0  0  0  0  0  0
   -0.6492    0.1683    3.8343 C   0  0  0  0  0  0  0  0  0  0  0  0
   -1.6936    1.2926    3.8254 C   0  0  0  0  0  0  0  0  0  0  0  0
   -2.6189    1.2542    2.6000 C   0  0  2  0  0  0  0  0  0  0  0  0
   -3.2604    0.3619    2.6544 H   0  0  0  0  0  0  0  0  0  0  0  0
   -1.7937    1.1615    1.2956 C   0  0  1  0  0  0  0  0  0  0  0  0
   -0.8145   -0.0743    1.2973 C   0  0  1  0  0  0  0  0  0  0  0  0
   -1.5419   -1.4434    1.4093 C   0  0  0  0  0  0  0  0  0  0  0  0
   -2.6228    1.3328   -0.0011 C   0  0  2  0  0  0  0  0  0  0  0  0
   -1.8828    1.5546   -0.7903 H   0  0  0  0  0  0  0  0  0  0  0  0
   -3.5912    2.5264    0.0581 C   0  0  0  0  0  0  0  0  0  0  0  0
   -4.4457    2.5542    1.3276 C   0  0  1  0  0  0  0  0  0  0  0  0
   -3.4975    2.5031    2.5452 C   0  0  1  0  0  0  0  0  0  0  0  0
   -2.7802    3.3336    2.4156 H   0  0  0  0  0  0  0  0  0  0  0  0
   -4.3888    2.8608    3.7396 C   0  0  0  0  0  0  0  0  0  0  0  0
   -5.4464    3.8475    3.1594 C   0  0  2  0  0  0  0  0  0  0  0  0
   -6.4459    3.4002    3.2429 H   0  0  0  0  0  0  0  0  0  0  0  0
   -5.1483    3.9387    1.6276 C   0  0  2  0  0  0  0  0  0  0  0  0
   -6.4117    4.1395    0.8031 C   0  0  0  0  0  0  0  0  0  0  0  0
   -7.4730    3.6285    1.1053 O   0  0  0  0  0  0  0  0  0  0  0  0
   -6.3352    4.9854   -0.4535 C   0  0  0  0  0  0  0  0  0  0  0  0
   -7.5305    4.9384   -1.1635 O   0  0  0  0  0  0  0  0  0  0  0  0
   -4.3089    5.0316    1.2882 O   0  0  0  0  0  0  0  0  0  0  0  0
   -5.4803    5.2101    3.8444 C   0  0  0  0  0  0  0  0  0  0  0  0
   -5.4724    1.4081    1.3336 C   0  0  0  0  0  0  0  0  0  0  0  0
   -3.2805    0.1094   -0.2862 O   0  0  0  0  0  0  0  0  0  0  0  0
   -0.9569    2.2972    1.2815 F   0  0  0  0  0  0  0  0  0  0  0  0
   -0.6186   -0.2718   -0.8973 H   0  0  0  0  0  0  0  0  0  0  0  0
    1.8359   -0.0456   -1.0171 H   0  0  0  0  0  0  0  0  0  0  0  0
    2.0352    0.3280    3.3175 H   0  0  0  0  0  0  0  0  0  0  0  0
    0.0690    0.3211    4.6531 H   0  0  0  0  0  0  0  0  0  0  0  0
   -1.1534   -0.7940    4.0282 H   0  0  0  0  0  0  0  0  0  0  0  0
   -1.1696    2.2615    3.8318 H   0  0  0  0  0  0  0  0  0  0  0  0
   -2.3000    1.2476    4.7428 H   0  0  0  0  0  0  0  0  0  0  0  0
   -2.2468   -1.4737    2.2500 H   0  0  0  0  0  0  0  0  0  0  0  0
   -0.7866   -2.2269    1.5686 H   0  0  0  0  0  0  0  0  0  0  0  0
   -2.1026   -1.6608    0.4956 H   0  0  0  0  0  0  0  0  0  0  0  0
   -2.9981    3.4487   -0.0011 H   0  0  0  0  0  0  0  0  0  0  0  0
   -4.2172    2.5034   -0.8520 H   0  0  0  0  0  0  0  0  0  0  0  0
   -4.8725    1.9613    4.1516 H   0  0  0  0  0  0  0  0  0  0  0  0
   -3.8137    3.3174    4.5584 H   0  0  0  0  0  0  0  0  0  0  0  0
   -5.4788    4.6352   -1.0619 H   0  0  0  0  0  0  0  0  0  0  0  0
   -6.0622    6.0118   -0.1355 H   0  0  0  0  0  0  0  0  0  0  0  0
   -8.1487    4.4446   -0.5950 H   0  0  0  0  0  0  0  0  0  0  0  0
   -3.4708    4.9487    1.7596 H   0  0  0  0  0  0  0  0  0  0  0  0
   -4.5028    5.7151    3.8029 H   0  0  0  0  0  0  0  0  0  0  0  0
   -5.7560    5.0981    4.9044 H   0  0  0  0  0  0  0  0  0  0  0  0
   -6.2172    5.8780    3.3722 H   0  0  0  0  0  0  0  0  0  0  0  0
   -4.9691    0.4353    1.3205 H   0  0  0  0  0  0  0  0  0  0  0  0
   -6.1086    1.4577    0.4378 H   0  0  0  0  0  0  0  0  0  0  0  0
   -6.1457    1.4483    2.1985 H   0  0  0  0  0  0  0  0  0  0  0  0
   -3.8946    0.2583   -1.0165 H   0  0  0  0  0  0  0  0  0  0  0  0
  1  2  2  0
  1 12  1  0
  1 33  1  0
  2  3  1  0
  2 34  1  0
  3  4  2  0
  3  5  1  0
  5  6  2  0
  5 35  1  0
  6  7  1  0
  6 12  1  0
  7  8  1  0
  7 36  1  0
  7 37  1  0
  8  9  1  0
  8 38  1  0
  8 39  1  0
  9 10  1  1
  9 11  1  0
  9 18  1  0
 11 12  1  0
 11 14  1  0
 11 32  1  1
 12 13  1  1
 13 40  1  0
 13 41  1  0
 13 42  1  0
 14 15  1  6
 14 16  1  0
 14 31  1  0
 16 17  1  0
 16 43  1  0
 16 44  1  0
 17 18  1  0
 17 23  1  0
 17 30  1  6
 18 19  1  6
 18 20  1  0
 20 21  1  0
 20 45  1  0
 20 46  1  0
 21 22  1  6
 21 23  1  0
 21 29  1  0
 23 24  1  0
 23 28  1  1
 24 25  2  0
 24 26  1  0
 26 27  1  0
 26 47  1  0
 26 48  1  0
 27 49  1  0
 28 50  1  0
 29 51  1  0
 29 52  1  0
 29 53  1  0
 30 54  1  0
 30 55  1  0
 30 56  1  0
 31 57  1  0
M  END

