57
rmsd66.gzmat
C          0.00000        0.00000        0.00000
C          1.33510        0.00000        0.00000
C          2.10870        0.00000        1.25840
O          3.31940        0.00990        1.25910
C          1.33270       -0.01560        2.50960
C         -0.00630       -0.01260        2.51910
C         -0.78130        0.01340        3.79990
C         -1.68380        1.25310        3.83890
C         -2.57490        1.32120        2.59120
H         -3.25300        0.43470        2.59430
C         -1.71770        1.28130        1.29610
C         -0.83590       -0.01570        1.25230
C         -1.65630       -1.31530        1.21490
C         -2.53400        1.54140       -0.01630
H         -1.82620        1.75960       -0.85970
C         -3.56570        2.67700        0.08610
C         -4.37850        2.62870        1.37590
C         -3.39840        2.60500        2.58030
H         -2.69060        3.46950        2.48190
C         -4.29840        2.90100        3.78910
C         -5.34540        3.91510        3.25470
H         -6.37160        3.53810        3.48820
C         -5.17060        3.93860        1.70410
C         -6.49780        4.05180        0.96500
O         -7.47110        3.43470        1.32400
C         -6.55290        4.97870       -0.22270
O         -7.72130        4.79340       -0.98610
O         -4.45170        5.06420        1.26140
C         -5.17770        5.29670        3.87170
C         -5.36400        1.45740        1.36000
O         -3.13120        0.35500       -0.46230
F         -0.83190        2.30960        1.35330
H         -0.57530       -0.01930       -0.93010
H          1.92980       -0.00140       -0.91250
H          1.93090       -0.01250        3.41940
H         -0.10650        0.01580        4.68110
H         -1.38570       -0.91150        3.90340
H         -1.06360        2.16670        3.93050
H         -2.31320        1.23150        4.74910
H         -2.45230       -1.33150        1.96340
H         -1.00840       -2.18360        1.39910
H         -2.12190       -1.47320        0.23050
H         -3.04600        3.65400       -0.00750
H         -4.23410        2.62630       -0.79910
H         -4.78890        1.98770        4.16270
H         -3.72740        3.30700        4.63730
H         -5.71900        4.80700       -0.93390
H         -6.52260        6.03970        0.10670
H         -8.42760        4.37520       -0.43950
H         -3.63540        5.19660        1.79000
H         -4.14430        5.65770        3.82220
H         -5.46830        5.29350        4.93010
H         -5.80680        6.04070        3.36440
H         -4.86470        0.48530        1.44230
H         -5.96540        1.45020        0.44020
H         -6.08060        1.50880        2.19270
H         -3.90820        0.10660        0.08320
