38
rmsd210.gzmat
N          0.00000        0.00000        0.00000
C          1.34860        0.00000        0.00000
C          2.14410        0.00000        1.16390
C          1.48890       -0.01670        2.38500
C          0.08500       -0.02230        2.43480
C         -0.60560       -0.00500        1.20200
O         -1.94880       -0.08880        1.23630
C         -2.72140        0.55040        0.25090
O         -2.32520        1.52560       -0.30720
C         -4.02610       -0.11840        0.17890
C         -4.21530       -1.40710        0.68370
C         -5.46920       -2.00770        0.58630
C         -6.49790       -1.29460       -0.01650
C         -6.33180       -0.01190       -0.52810
C         -5.07620        0.58010       -0.42820
Cl        -8.03750       -2.02680       -0.13790
C         -0.61500       -0.03930        3.65910
N         -1.18610       -0.05370        4.66610
O          1.97170        0.09860       -1.18890
C          1.40640       -0.50990       -2.32680
O          0.80580       -1.53480       -2.23100
C          1.80240        0.25090       -3.51590
C          2.15720        1.59860       -3.43330
C          2.51110        2.28490       -4.59320
C          2.50960        1.62610       -5.82190
C          2.14970        0.28010       -5.90000
C          1.79150       -0.41190       -4.74720
H          3.22720        0.00610        1.08420
H          2.05930       -0.02670        3.31880
H         -3.38630       -1.94550        1.15380
H         -5.62980       -3.01250        0.97790
H         -7.15860        0.52150       -0.99700
H         -4.90700        1.58610       -0.82410
H          2.15310        2.11190       -2.46850
H          2.78790        3.33670       -4.53840
H          2.78940        2.16490       -6.72710
H          2.14670       -0.22780       -6.86290
H          1.49930       -1.46360       -4.79960
