rmsd184.gzmat
 OpenBabel08211713393D

 38 40  0  0  1  0  0  0  0  0999 V2000
    0.0000    0.0000    0.0000 N   0  0  0  0  0  0  0  0  0  0  0  0
    1.3489    0.0000    0.0000 C   0  0  0  0  0  0  0  0  0  0  0  0
    2.1447    0.0000    1.1635 C   0  0  0  0  0  0  0  0  0  0  0  0
    1.4900    0.0148    2.3851 C   0  0  0  0  0  0  0  0  0  0  0  0
    0.0859    0.0189    2.4351 C   0  0  1  0  0  0  0  0  0  0  0  0
   -0.6048    0.0059    1.2025 C   0  0  0  0  0  0  0  0  0  0  0  0
   -1.9494    0.0975    1.2302 O   0  0  0  0  0  0  0  0  0  0  0  0
   -2.7232   -0.6154    0.3011 C   0  0  0  0  0  0  0  0  0  0  0  0
   -2.3208   -1.6117   -0.2120 O   0  0  0  0  0  0  0  0  0  0  0  0
   -4.0386    0.0343    0.2322 C   0  0  0  0  0  0  0  0  0  0  0  0
   -5.1674   -0.7766    0.0775 C   0  0  0  0  0  0  0  0  0  0  0  0
   -6.4287   -0.1913    0.0071 C   0  0  0  0  0  0  0  0  0  0  0  0
   -6.5179    1.1945    0.0867 C   0  0  0  0  0  0  0  0  0  0  0  0
   -5.4082    2.0180    0.2311 C   0  0  0  0  0  0  0  0  0  0  0  0
   -4.1496    1.4243    0.3089 C   0  0  0  0  0  0  0  0  0  0  0  0
   -8.0650    1.9168    0.0025 Cl  0  0  0  0  0  0  0  0  0  0  0  0
   -0.6137    0.0276    3.6602 C   0  0  0  0  0  0  0  0  0  0  0  0
   -1.1844    0.0318    4.6676 N   0  0  0  0  0  0  0  0  0  0  0  0
    1.9709   -0.1009   -1.1891 O   0  0  0  0  0  0  0  0  0  0  0  0
    1.4046    0.5051   -2.3286 C   0  0  0  0  0  0  0  0  0  0  0  0
    0.8174    1.5383   -2.2383 O   0  0  0  0  0  0  0  0  0  0  0  0
    1.7793   -0.2763   -3.5110 C   0  0  0  0  0  0  0  0  0  0  0  0
    2.0354   -1.6454   -3.4202 C   0  0  0  0  0  0  0  0  0  0  0  0
    2.3622   -2.3578   -4.5722 C   0  0  0  0  0  0  0  0  0  0  0  0
    2.4323   -1.7031   -5.8011 C   0  0  0  0  0  0  0  0  0  0  0  0
    2.1742   -0.3344   -5.8871 C   0  0  0  0  0  0  0  0  0  0  0  0
    1.8449    0.3840   -4.7416 C   0  0  0  0  0  0  0  0  0  0  0  0
    3.2280   -0.0059    1.0834 H   0  0  0  0  0  0  0  0  0  0  0  0
    2.0607    0.0234    3.3187 H   0  0  0  0  0  0  0  0  0  0  0  0
   -5.0583   -1.8624    0.0113 H   0  0  0  0  0  0  0  0  0  0  0  0
   -7.3190   -0.8099   -0.1065 H   0  0  0  0  0  0  0  0  0  0  0  0
   -5.5108    3.1022    0.2874 H   0  0  0  0  0  0  0  0  0  0  0  0
   -3.2550    2.0431    0.4289 H   0  0  0  0  0  0  0  0  0  0  0  0
    1.9749   -2.1546   -2.4553 H   0  0  0  0  0  0  0  0  0  0  0  0
    2.5614   -3.4266   -4.5113 H   0  0  0  0  0  0  0  0  0  0  0  0
    2.6874   -2.2636   -6.7005 H   0  0  0  0  0  0  0  0  0  0  0  0
    2.2275    0.1704   -6.8503 H   0  0  0  0  0  0  0  0  0  0  0  0
    1.6336    1.4544   -4.7997 H   0  0  0  0  0  0  0  0  0  0  0  0
  1  6  2  0  0  0  0
  2  1  2  0  0  0  0
  2  3  1  0  0  0  0
  3  4  2  0  0  0  0
  4  5  1  0  0  0  0
  4 29  1  0  0  0  0
  5 17  1  1  0  0  0
  6  7  1  0  0  0  0
  6  5  1  0  0  0  0
  8  7  1  0  0  0  0
  9  8  2  0  0  0  0
 10  8  1  0  0  0  0
 10 15  2  0  0  0  0
 11 10  1  0  0  0  0
 12 11  2  0  0  0  0
 12 13  1  0  0  0  0
 13 14  2  0  0  0  0
 14 32  1  0  0  0  0
 14 15  1  0  0  0  0
 15 33  1  0  0  0  0
 16 13  1  0  0  0  0
 17 18  3  0  0  0  0
 19  2  1  0  0  0  0
 20 21  2  0  0  0  0
 20 19  1  0  0  0  0
 22 23  1  0  0  0  0
 22 20  1  0  0  0  0
 23 34  1  0  0  0  0
 24 35  1  0  0  0  0
 24 23  2  0  0  0  0
 25 24  1  0  0  0  0
 26 25  2  0  0  0  0
 26 27  1  0  0  0  0
 27 22  2  0  0  0  0
 28  3  1  0  0  0  0
 30 11  1  0  0  0  0
 31 12  1  0  0  0  0
 36 25  1  0  0  0  0
 37 26  1  0  0  0  0
 38 27  1  0  0  0  0
M  RAD  1   5   2
M  END
$$$$
