38

N         -0.07060       -0.07060       -0.06140
C          1.22640       -0.32690       -0.07350
C          2.03710       -0.30950        1.06750
C          1.43240       -0.00030        2.27940
C          0.05370        0.27520        2.31300
C         -0.64200        0.22100        1.08770
O         -1.97000        0.53560        1.08940
C         -2.88520       -0.41690        0.67360
O         -2.58000       -1.56150        0.48720
C         -4.24110        0.16210        0.53460
C         -5.28030       -0.69650        0.14240
C         -6.57600       -0.21270       -0.00700
C         -6.83060        1.14130        0.24100
C         -5.80720        2.01000        0.63470
C         -4.51260        1.51690        0.78050
Cl        -8.45030        1.75460        0.05670
C         -0.62560        0.59590        3.52930
N         -1.16630        0.85500        4.52310
O          1.79220       -0.68100       -1.26580
C          1.69440        0.18720       -2.34040
O          1.37720        1.33610       -2.20820
C          2.06710       -0.47640       -3.61330
C          2.36770       -1.84530       -3.68830
C          2.70430       -2.41450       -4.91670
C          2.74290       -1.62320       -6.06910
C          2.44280       -0.25830       -5.99650
C          2.10500        0.31510       -4.77250
H          3.10150       -0.52720        0.98610
H          2.01150        0.03260        3.20340
H         -5.05140       -1.74710       -0.04320
H         -7.39090       -0.87010       -0.31210
H         -6.03130        3.06030        0.82390
H         -3.70610        2.18180        1.08890
H          2.33180       -2.45400       -2.78480
H          2.93610       -3.48020       -4.97650
H          3.00680       -2.07270       -7.02950
H          2.47200        0.35770       -6.89800
H          1.86390        1.37610       -4.68930
