rmsd49.gzmat
 OpenBabel08211713393D

 38 40  0  0  1  0  0  0  0  0999 V2000
    0.0000    0.0000    0.0000 N   0  0  0  0  0  0  0  0  0  0  0  0
    1.3481    0.0000    0.0000 C   0  0  0  0  0  0  0  0  0  0  0  0
    2.1436    0.0000    1.1632 C   0  0  0  0  0  0  0  0  0  0  0  0
    1.4888    0.0243    2.3847 C   0  0  0  0  0  0  0  0  0  0  0  0
    0.0847    0.0369    2.4345 C   0  0  1  0  0  0  0  0  0  0  0  0
   -0.6055    0.0138    1.2027 C   0  0  0  0  0  0  0  0  0  0  0  0
   -1.9496    0.1055    1.2244 O   0  0  0  0  0  0  0  0  0  0  0  0
   -2.7063   -0.6098    0.2792 C   0  0  0  0  0  0  0  0  0  0  0  0
   -2.3135   -1.6447   -0.1624 O   0  0  0  0  0  0  0  0  0  0  0  0
   -3.9886    0.0779    0.0928 C   0  0  0  0  0  0  0  0  0  0  0  0
   -4.1198    1.4455    0.3474 C   0  0  0  0  0  0  0  0  0  0  0  0
   -5.3503    2.0676    0.1441 C   0  0  0  0  0  0  0  0  0  0  0  0
   -6.4124    1.2959   -0.3112 C   0  0  0  0  0  0  0  0  0  0  0  0
   -6.3025   -0.0648   -0.5760 C   0  0  0  0  0  0  0  0  0  0  0  0
   -5.0709   -0.6791   -0.3687 C   0  0  0  0  0  0  0  0  0  0  0  0
   -7.9245    2.0530   -0.5606 Cl  0  0  0  0  0  0  0  0  0  0  0  0
   -0.6148    0.0618    3.6591 C   0  0  0  0  0  0  0  0  0  0  0  0
   -1.1851    0.0798    4.6669 N   0  0  0  0  0  0  0  0  0  0  0  0
    1.9696   -0.0945   -1.1931 O   0  0  0  0  0  0  0  0  0  0  0  0
    1.4450    0.5909   -2.3029 C   0  0  0  0  0  0  0  0  0  0  0  0
    0.8419    1.6099   -2.1622 O   0  0  0  0  0  0  0  0  0  0  0  0
    1.8782   -0.0940   -3.5250 C   0  0  0  0  0  0  0  0  0  0  0  0
    2.0166    0.6693   -4.6882 C   0  0  0  0  0  0  0  0  0  0  0  0
    2.4080    0.0489   -5.8708 C   0  0  0  0  0  0  0  0  0  0  0  0
    2.6541   -1.3247   -5.8892 C   0  0  0  0  0  0  0  0  0  0  0  0
    2.5099   -2.0819   -4.7278 C   0  0  0  0  0  0  0  0  0  0  0  0
    2.1211   -1.4679   -3.5386 C   0  0  0  0  0  0  0  0  0  0  0  0
    3.2269   -0.0113    1.0829 H   0  0  0  0  0  0  0  0  0  0  0  0
    2.0595    0.0348    3.3183 H   0  0  0  0  0  0  0  0  0  0  0  0
   -3.2622    2.0271    0.7004 H   0  0  0  0  0  0  0  0  0  0  0  0
   -5.4674    3.1339    0.3403 H   0  0  0  0  0  0  0  0  0  0  0  0
   -7.1539   -0.6416   -0.9369 H   0  0  0  0  0  0  0  0  0  0  0  0
   -4.9459   -1.7479   -0.5665 H   0  0  0  0  0  0  0  0  0  0  0  0
    1.8141    1.7424   -4.6646 H   0  0  0  0  0  0  0  0  0  0  0  0
    2.5200    0.6345   -6.7818 H   0  0  0  0  0  0  0  0  0  0  0  0
    2.9589   -1.8073   -6.8177 H   0  0  0  0  0  0  0  0  0  0  0  0
    2.7002   -3.1540   -4.7478 H   0  0  0  0  0  0  0  0  0  0  0  0
    2.0018   -2.0576   -2.6264 H   0  0  0  0  0  0  0  0  0  0  0  0
  1  6  2  0  0  0  0
  2  1  2  0  0  0  0
  2  3  1  0  0  0  0
  3  4  2  0  0  0  0
  4  5  1  0  0  0  0
  4 29  1  0  0  0  0
  5 17  1  1  0  0  0
  6  7  1  0  0  0  0
  6  5  1  0  0  0  0
  8  7  1  0  0  0  0
  9  8  2  0  0  0  0
 10  8  1  0  0  0  0
 10 11  2  0  0  0  0
 11 30  1  0  0  0  0
 12 31  1  0  0  0  0
 12 11  1  0  0  0  0
 13 12  2  0  0  0  0
 14 15  2  0  0  0  0
 14 13  1  0  0  0  0
 15 10  1  0  0  0  0
 16 13  1  0  0  0  0
 17 18  3  0  0  0  0
 19  2  1  0  0  0  0
 20 21  2  0  0  0  0
 20 19  1  0  0  0  0
 22 20  1  0  0  0  0
 23 34  1  0  0  0  0
 23 22  2  0  0  0  0
 24 23  1  0  0  0  0
 25 24  2  0  0  0  0
 25 26  1  0  0  0  0
 26 27  2  0  0  0  0
 27 22  1  0  0  0  0
 27 38  1  0  0  0  0
 28  3  1  0  0  0  0
 32 14  1  0  0  0  0
 33 15  1  0  0  0  0
 35 24  1  0  0  0  0
 36 25  1  0  0  0  0
 37 26  1  0  0  0  0
M  RAD  1   5   2
M  END
$$$$
