
     RDKit          3D

 38 40  0  0  0  0  0  0  0  0999 V2000
   -0.0706   -0.0706   -0.0614 N   0  0  0  0  0  0  0  0  0  0  0  0
    1.2264   -0.3269   -0.0735 C   0  0  0  0  0  0  0  0  0  0  0  0
    2.0371   -0.3095    1.0675 C   0  0  0  0  0  0  0  0  0  0  0  0
    1.4324   -0.0003    2.2794 C   0  0  0  0  0  0  0  0  0  0  0  0
    0.0537    0.2752    2.3130 C   0  0  0  0  0  0  0  0  0  0  0  0
   -0.6420    0.2210    1.0877 C   0  0  0  0  0  0  0  0  0  0  0  0
   -1.9700    0.5356    1.0894 O   0  0  0  0  0  0  0  0  0  0  0  0
   -2.8852   -0.4169    0.6736 C   0  0  0  0  0  0  0  0  0  0  0  0
   -2.5800   -1.5615    0.4872 O   0  0  0  0  0  0  0  0  0  0  0  0
   -4.2411    0.1621    0.5346 C   0  0  0  0  0  0  0  0  0  0  0  0
   -5.2803   -0.6965    0.1424 C   0  0  0  0  0  0  0  0  0  0  0  0
   -6.5760   -0.2127   -0.0070 C   0  0  0  0  0  0  0  0  0  0  0  0
   -6.8306    1.1413    0.2410 C   0  0  0  0  0  0  0  0  0  0  0  0
   -5.8072    2.0100    0.6347 C   0  0  0  0  0  0  0  0  0  0  0  0
   -4.5126    1.5169    0.7805 C   0  0  0  0  0  0  0  0  0  0  0  0
   -8.4503    1.7546    0.0567 Cl  0  0  0  0  0  0  0  0  0  0  0  0
   -0.6256    0.5959    3.5293 C   0  0  0  0  0  0  0  0  0  0  0  0
   -1.1663    0.8550    4.5231 N   0  0  0  0  0  0  0  0  0  0  0  0
    1.7922   -0.6810   -1.2658 O   0  0  0  0  0  0  0  0  0  0  0  0
    1.6944    0.1872   -2.3404 C   0  0  0  0  0  0  0  0  0  0  0  0
    1.3772    1.3361   -2.2082 O   0  0  0  0  0  0  0  0  0  0  0  0
    2.0671   -0.4764   -3.6133 C   0  0  0  0  0  0  0  0  0  0  0  0
    2.3677   -1.8453   -3.6883 C   0  0  0  0  0  0  0  0  0  0  0  0
    2.7043   -2.4145   -4.9167 C   0  0  0  0  0  0  0  0  0  0  0  0
    2.7429   -1.6232   -6.0691 C   0  0  0  0  0  0  0  0  0  0  0  0
    2.4428   -0.2583   -5.9965 C   0  0  0  0  0  0  0  0  0  0  0  0
    2.1050    0.3151   -4.7725 C   0  0  0  0  0  0  0  0  0  0  0  0
    3.1015   -0.5272    0.9861 H   0  0  0  0  0  0  0  0  0  0  0  0
    2.0115    0.0326    3.2034 H   0  0  0  0  0  0  0  0  0  0  0  0
   -5.0514   -1.7471   -0.0432 H   0  0  0  0  0  0  0  0  0  0  0  0
   -7.3909   -0.8701   -0.3121 H   0  0  0  0  0  0  0  0  0  0  0  0
   -6.0313    3.0603    0.8239 H   0  0  0  0  0  0  0  0  0  0  0  0
   -3.7061    2.1818    1.0889 H   0  0  0  0  0  0  0  0  0  0  0  0
    2.3318   -2.4540   -2.7848 H   0  0  0  0  0  0  0  0  0  0  0  0
    2.9361   -3.4802   -4.9765 H   0  0  0  0  0  0  0  0  0  0  0  0
    3.0068   -2.0727   -7.0295 H   0  0  0  0  0  0  0  0  0  0  0  0
    2.4720    0.3577   -6.8980 H   0  0  0  0  0  0  0  0  0  0  0  0
    1.8639    1.3761   -4.6893 H   0  0  0  0  0  0  0  0  0  0  0  0
  1  2  2  0
  1  6  1  0
  2  3  1  0
  2 19  1  0
  3  4  2  0
  3 28  1  0
  4  5  1  0
  4 29  1  0
  5  6  2  0
  5 17  1  0
  6  7  1  0
  7  8  1  0
  8  9  2  0
  8 10  1  0
 10 11  2  0
 10 15  1  0
 11 12  1  0
 11 30  1  0
 12 13  2  0
 12 31  1  0
 13 14  1  0
 13 16  1  0
 14 15  2  0
 14 32  1  0
 15 33  1  0
 17 18  3  0
 19 20  1  0
 20 21  2  0
 20 22  1  0
 22 23  2  0
 22 27  1  0
 23 24  1  0
 23 34  1  0
 24 25  2  0
 24 35  1  0
 25 26  1  0
 25 36  1  0
 26 27  2  0
 26 37  1  0
 27 38  1  0
M  END

