38
rmsd132.gzmat
N          0.00000        0.00000        0.00000
C          1.34890        0.00000        0.00000
C          2.14640        0.00000        1.16300
C          1.49380       -0.01720        2.38540
C          0.09060       -0.02210        2.43590
C         -0.60260       -0.00400        1.20230
O         -1.94580       -0.08160        1.25890
C         -2.75030        0.55640        0.30400
O         -2.33520        1.45080       -0.36490
C         -4.10540       -0.00380        0.39430
C         -5.05520        0.47500       -0.51590
C         -6.35910       -0.01020       -0.47350
C         -6.67510       -0.96660        0.48520
C         -5.74930       -1.45710        1.39760
C         -4.44550       -0.96700        1.34770
Cl        -8.27500       -1.56530        0.54270
C         -0.61440       -0.04330        3.65720
N         -1.19790       -0.06340        4.65710
O          1.98050        0.10030       -1.18410
C          1.42830       -0.49160       -2.33500
O          0.78290       -1.49050       -2.25530
C          1.89140        0.24280       -3.51710
C          2.51960        1.48500       -3.41320
C          2.93950        2.13970       -4.56930
C          2.72270        1.55920       -5.81820
C          2.08440        0.32240       -5.91890
C          1.66840       -0.34060       -4.76840
H          3.22940        0.00690        1.08140
H          2.06540       -0.02750        3.31830
H         -4.76980        1.22840       -1.25690
H         -7.10780        0.35590       -1.17600
H         -6.02650       -2.20700        2.13940
H         -3.69820       -1.33760        2.05700
H          2.67890        1.94430       -2.43460
H          3.43660        3.10550       -4.49510
H          3.05190        2.07440       -6.72040
H          1.91170       -0.12360       -6.89690
H          1.16630       -1.30940       -4.83710
