rmsd16.gzmat
 OpenBabel08211713393D

 38 40  0  0  1  0  0  0  0  0999 V2000
    0.0000    0.0000    0.0000 N   0  0  0  0  0  0  0  0  0  0  0  0
    1.3474    0.0000    0.0000 C   0  0  0  0  0  0  0  0  0  0  0  0
    2.1439    0.0000    1.1637 C   0  0  0  0  0  0  0  0  0  0  0  0
    1.4912   -0.0193    2.3858 C   0  0  0  0  0  0  0  0  0  0  0  0
    0.0871   -0.0307    2.4360 C   0  0  2  0  0  0  0  0  0  0  0  0
   -0.6036   -0.0153    1.2042 C   0  0  0  0  0  0  0  0  0  0  0  0
   -1.9470   -0.1203    1.2306 O   0  0  0  0  0  0  0  0  0  0  0  0
   -2.7195    0.6066    0.3089 C   0  0  0  0  0  0  0  0  0  0  0  0
   -2.3348    1.6478   -0.1254 O   0  0  0  0  0  0  0  0  0  0  0  0
   -4.0037   -0.0814    0.1336 C   0  0  0  0  0  0  0  0  0  0  0  0
   -4.1339   -1.4485    0.3905 C   0  0  0  0  0  0  0  0  0  0  0  0
   -5.3648   -2.0718    0.1923 C   0  0  0  0  0  0  0  0  0  0  0  0
   -6.4297   -1.3014   -0.2582 C   0  0  0  0  0  0  0  0  0  0  0  0
   -6.3216    0.0600   -0.5217 C   0  0  0  0  0  0  0  0  0  0  0  0
   -5.0888    0.6748   -0.3228 C   0  0  0  0  0  0  0  0  0  0  0  0
   -7.9414   -2.0611   -0.5022 Cl  0  0  0  0  0  0  0  0  0  0  0  0
   -0.6109   -0.0471    3.6618 C   0  0  0  0  0  0  0  0  0  0  0  0
   -1.1784   -0.0579    4.6711 N   0  0  0  0  0  0  0  0  0  0  0  0
    1.9834    0.0949   -1.1848 O   0  0  0  0  0  0  0  0  0  0  0  0
    1.4807   -0.5564   -2.3215 C   0  0  0  0  0  0  0  0  0  0  0  0
    0.7828   -1.5178   -2.2290 O   0  0  0  0  0  0  0  0  0  0  0  0
    2.0709    0.0805   -3.5051 C   0  0  0  0  0  0  0  0  0  0  0  0
    2.4237    1.4306   -3.5015 C   0  0  0  0  0  0  0  0  0  0  0  0
    2.9800    1.9949   -4.6478 C   0  0  0  0  0  0  0  0  0  0  0  0
    3.1809    1.2121   -5.7838 C   0  0  0  0  0  0  0  0  0  0  0  0
    2.8211   -0.1360   -5.7834 C   0  0  0  0  0  0  0  0  0  0  0  0
    2.2619   -0.7066   -4.6440 C   0  0  0  0  0  0  0  0  0  0  0  0
    3.2272    0.0105    1.0825 H   0  0  0  0  0  0  0  0  0  0  0  0
    2.0627   -0.0263    3.3189 H   0  0  0  0  0  0  0  0  0  0  0  0
   -3.2754   -2.0298    0.7414 H   0  0  0  0  0  0  0  0  0  0  0  0
   -5.4798   -3.1378    0.3901 H   0  0  0  0  0  0  0  0  0  0  0  0
   -7.1753    0.6369   -0.8772 H   0  0  0  0  0  0  0  0  0  0  0  0
   -4.9650    1.7429   -0.5245 H   0  0  0  0  0  0  0  0  0  0  0  0
    2.2624    2.0399   -2.6089 H   0  0  0  0  0  0  0  0  0  0  0  0
    3.2588    3.0473   -4.6547 H   0  0  0  0  0  0  0  0  0  0  0  0
    3.6200    1.6552   -6.6777 H   0  0  0  0  0  0  0  0  0  0  0  0
    2.9772   -0.7415   -6.6745 H   0  0  0  0  0  0  0  0  0  0  0  0
    1.9710   -1.7596   -4.6369 H   0  0  0  0  0  0  0  0  0  0  0  0
  1  6  2  0  0  0  0
  2  1  2  0  0  0  0
  2  3  1  0  0  0  0
  3  4  2  0  0  0  0
  4  5  1  0  0  0  0
  4 29  1  0  0  0  0
  5 17  1  1  0  0  0
  6  7  1  0  0  0  0
  6  5  1  0  0  0  0
  8  7  1  0  0  0  0
  9  8  2  0  0  0  0
 10  8  1  0  0  0  0
 10 11  2  0  0  0  0
 11 30  1  0  0  0  0
 12 31  1  0  0  0  0
 12 11  1  0  0  0  0
 13 12  2  0  0  0  0
 14 15  2  0  0  0  0
 14 13  1  0  0  0  0
 15 10  1  0  0  0  0
 16 13  1  0  0  0  0
 17 18  3  0  0  0  0
 19  2  1  0  0  0  0
 20 21  2  0  0  0  0
 20 19  1  0  0  0  0
 22 23  1  0  0  0  0
 22 20  1  0  0  0  0
 23 34  1  0  0  0  0
 24 23  2  0  0  0  0
 25 26  2  0  0  0  0
 25 24  1  0  0  0  0
 26 27  1  0  0  0  0
 27 38  1  0  0  0  0
 27 22  2  0  0  0  0
 28  3  1  0  0  0  0
 32 14  1  0  0  0  0
 33 15  1  0  0  0  0
 35 24  1  0  0  0  0
 36 25  1  0  0  0  0
 37 26  1  0  0  0  0
M  RAD  1   5   2
M  END
$$$$
