38
rmsd109.gzmat
N          0.00000        0.00000        0.00000
C          1.34850        0.00000        0.00000
C          2.14360        0.00000        1.16420
C          1.48760        0.01650        2.38470
C          0.08340        0.02490        2.43450
C         -0.60650        0.00990        1.20210
O         -1.94930        0.10640        1.22660
C         -2.71520       -0.55620        0.25010
O         -2.33630       -1.57250       -0.24270
C         -3.98950        0.15640        0.10060
C         -4.09270        1.51950        0.38920
C         -5.31300        2.16940        0.21130
C         -6.39630        1.42700       -0.24300
C         -6.31600        0.06950       -0.53470
C         -5.09170       -0.57040       -0.36340
Cl        -7.89680        2.21770       -0.45560
C         -0.61510        0.04110        3.65970
N         -1.18330        0.05380        4.66850
O          1.97360       -0.09500       -1.18790
C          1.39090        0.48740       -2.33140
O          0.77030        1.50140       -2.24580
C          1.78990       -0.28150       -3.51380
C          2.22620       -1.60370       -3.41430
C          2.56960       -2.29970       -4.57160
C          2.47750       -1.67550       -5.81490
C          2.03950       -0.35390       -5.90990
C          1.69260        0.34740       -4.75930
H          3.22670       -0.00670        1.08470
H          2.05740        0.02370        3.31890
H         -3.22210        2.07570        0.75080
H         -5.40650        3.23450        0.42650
H         -7.18520       -0.48530       -0.88910
H         -4.98890       -1.63520       -0.59270
H          2.29230       -2.09120       -2.43860
H          2.90840       -3.33210       -4.50370
H          2.74540       -2.22290       -6.71850
H          1.96550        0.12700       -6.88370
H          1.34040        1.38000       -4.82280
