rmsd132.gzmat
 OpenBabel08211713393D

 38 40  0  0  1  0  0  0  0  0999 V2000
    0.0000    0.0000    0.0000 N   0  0  0  0  0  0  0  0  0  0  0  0
    1.3489    0.0000    0.0000 C   0  0  0  0  0  0  0  0  0  0  0  0
    2.1464    0.0000    1.1630 C   0  0  0  0  0  0  0  0  0  0  0  0
    1.4938   -0.0172    2.3854 C   0  0  0  0  0  0  0  0  0  0  0  0
    0.0906   -0.0221    2.4359 C   0  0  2  0  0  0  0  0  0  0  0  0
   -0.6026   -0.0040    1.2023 C   0  0  0  0  0  0  0  0  0  0  0  0
   -1.9458   -0.0816    1.2589 O   0  0  0  0  0  0  0  0  0  0  0  0
   -2.7503    0.5564    0.3040 C   0  0  0  0  0  0  0  0  0  0  0  0
   -2.3352    1.4508   -0.3649 O   0  0  0  0  0  0  0  0  0  0  0  0
   -4.1054   -0.0038    0.3943 C   0  0  0  0  0  0  0  0  0  0  0  0
   -5.0552    0.4750   -0.5159 C   0  0  0  0  0  0  0  0  0  0  0  0
   -6.3591   -0.0102   -0.4735 C   0  0  0  0  0  0  0  0  0  0  0  0
   -6.6751   -0.9666    0.4852 C   0  0  0  0  0  0  0  0  0  0  0  0
   -5.7493   -1.4571    1.3976 C   0  0  0  0  0  0  0  0  0  0  0  0
   -4.4455   -0.9670    1.3477 C   0  0  0  0  0  0  0  0  0  0  0  0
   -8.2750   -1.5653    0.5427 Cl  0  0  0  0  0  0  0  0  0  0  0  0
   -0.6144   -0.0433    3.6572 C   0  0  0  0  0  0  0  0  0  0  0  0
   -1.1979   -0.0634    4.6571 N   0  0  0  0  0  0  0  0  0  0  0  0
    1.9805    0.1003   -1.1841 O   0  0  0  0  0  0  0  0  0  0  0  0
    1.4283   -0.4916   -2.3350 C   0  0  0  0  0  0  0  0  0  0  0  0
    0.7829   -1.4905   -2.2553 O   0  0  0  0  0  0  0  0  0  0  0  0
    1.8914    0.2428   -3.5171 C   0  0  0  0  0  0  0  0  0  0  0  0
    2.5196    1.4850   -3.4132 C   0  0  0  0  0  0  0  0  0  0  0  0
    2.9395    2.1397   -4.5693 C   0  0  0  0  0  0  0  0  0  0  0  0
    2.7227    1.5592   -5.8182 C   0  0  0  0  0  0  0  0  0  0  0  0
    2.0844    0.3224   -5.9189 C   0  0  0  0  0  0  0  0  0  0  0  0
    1.6684   -0.3406   -4.7684 C   0  0  0  0  0  0  0  0  0  0  0  0
    3.2294    0.0069    1.0814 H   0  0  0  0  0  0  0  0  0  0  0  0
    2.0654   -0.0275    3.3183 H   0  0  0  0  0  0  0  0  0  0  0  0
   -4.7698    1.2284   -1.2569 H   0  0  0  0  0  0  0  0  0  0  0  0
   -7.1078    0.3559   -1.1760 H   0  0  0  0  0  0  0  0  0  0  0  0
   -6.0265   -2.2070    2.1394 H   0  0  0  0  0  0  0  0  0  0  0  0
   -3.6982   -1.3376    2.0570 H   0  0  0  0  0  0  0  0  0  0  0  0
    2.6789    1.9443   -2.4346 H   0  0  0  0  0  0  0  0  0  0  0  0
    3.4366    3.1055   -4.4951 H   0  0  0  0  0  0  0  0  0  0  0  0
    3.0519    2.0744   -6.7204 H   0  0  0  0  0  0  0  0  0  0  0  0
    1.9117   -0.1236   -6.8969 H   0  0  0  0  0  0  0  0  0  0  0  0
    1.1663   -1.3094   -4.8371 H   0  0  0  0  0  0  0  0  0  0  0  0
  1  6  2  0  0  0  0
  2  1  2  0  0  0  0
  2  3  1  0  0  0  0
  3  4  2  0  0  0  0
  4  5  1  0  0  0  0
  4 29  1  0  0  0  0
  5 17  1  1  0  0  0
  6  7  1  0  0  0  0
  6  5  1  0  0  0  0
  8 10  1  0  0  0  0
  8  7  1  0  0  0  0
  9  8  2  0  0  0  0
 10 15  2  0  0  0  0
 11 12  2  0  0  0  0
 11 10  1  0  0  0  0
 12 13  1  0  0  0  0
 13 16  1  0  0  0  0
 13 14  2  0  0  0  0
 14 32  1  0  0  0  0
 15 14  1  0  0  0  0
 15 33  1  0  0  0  0
 17 18  3  0  0  0  0
 19  2  1  0  0  0  0
 20 21  2  0  0  0  0
 20 19  1  0  0  0  0
 22 23  1  0  0  0  0
 22 20  1  0  0  0  0
 23 34  1  0  0  0  0
 24 35  1  0  0  0  0
 24 23  2  0  0  0  0
 25 24  1  0  0  0  0
 26 25  2  0  0  0  0
 26 27  1  0  0  0  0
 27 22  2  0  0  0  0
 28  3  1  0  0  0  0
 30 11  1  0  0  0  0
 31 12  1  0  0  0  0
 36 25  1  0  0  0  0
 37 26  1  0  0  0  0
 38 27  1  0  0  0  0
M  RAD  1   5   2
M  END
$$$$
