rmsd210.gzmat
 OpenBabel08211713393D

 38 40  0  0  1  0  0  0  0  0999 V2000
    0.0000    0.0000    0.0000 N   0  0  0  0  0  0  0  0  0  0  0  0
    1.3486    0.0000    0.0000 C   0  0  0  0  0  0  0  0  0  0  0  0
    2.1441    0.0000    1.1639 C   0  0  0  0  0  0  0  0  0  0  0  0
    1.4889   -0.0167    2.3850 C   0  0  0  0  0  0  0  0  0  0  0  0
    0.0850   -0.0223    2.4348 C   0  0  2  0  0  0  0  0  0  0  0  0
   -0.6056   -0.0050    1.2020 C   0  0  0  0  0  0  0  0  0  0  0  0
   -1.9488   -0.0888    1.2363 O   0  0  0  0  0  0  0  0  0  0  0  0
   -2.7214    0.5504    0.2509 C   0  0  0  0  0  0  0  0  0  0  0  0
   -2.3252    1.5256   -0.3072 O   0  0  0  0  0  0  0  0  0  0  0  0
   -4.0261   -0.1184    0.1789 C   0  0  0  0  0  0  0  0  0  0  0  0
   -4.2153   -1.4071    0.6837 C   0  0  0  0  0  0  0  0  0  0  0  0
   -5.4692   -2.0077    0.5863 C   0  0  0  0  0  0  0  0  0  0  0  0
   -6.4979   -1.2946   -0.0165 C   0  0  0  0  0  0  0  0  0  0  0  0
   -6.3318   -0.0119   -0.5281 C   0  0  0  0  0  0  0  0  0  0  0  0
   -5.0762    0.5801   -0.4282 C   0  0  0  0  0  0  0  0  0  0  0  0
   -8.0375   -2.0268   -0.1379 Cl  0  0  0  0  0  0  0  0  0  0  0  0
   -0.6150   -0.0393    3.6591 C   0  0  0  0  0  0  0  0  0  0  0  0
   -1.1861   -0.0537    4.6661 N   0  0  0  0  0  0  0  0  0  0  0  0
    1.9717    0.0986   -1.1889 O   0  0  0  0  0  0  0  0  0  0  0  0
    1.4064   -0.5099   -2.3268 C   0  0  0  0  0  0  0  0  0  0  0  0
    0.8058   -1.5348   -2.2310 O   0  0  0  0  0  0  0  0  0  0  0  0
    1.8024    0.2509   -3.5159 C   0  0  0  0  0  0  0  0  0  0  0  0
    2.1572    1.5986   -3.4333 C   0  0  0  0  0  0  0  0  0  0  0  0
    2.5111    2.2849   -4.5932 C   0  0  0  0  0  0  0  0  0  0  0  0
    2.5096    1.6261   -5.8219 C   0  0  0  0  0  0  0  0  0  0  0  0
    2.1497    0.2801   -5.9000 C   0  0  0  0  0  0  0  0  0  0  0  0
    1.7915   -0.4119   -4.7472 C   0  0  0  0  0  0  0  0  0  0  0  0
    3.2272    0.0061    1.0842 H   0  0  0  0  0  0  0  0  0  0  0  0
    2.0593   -0.0267    3.3188 H   0  0  0  0  0  0  0  0  0  0  0  0
   -3.3863   -1.9455    1.1538 H   0  0  0  0  0  0  0  0  0  0  0  0
   -5.6298   -3.0125    0.9779 H   0  0  0  0  0  0  0  0  0  0  0  0
   -7.1586    0.5215   -0.9970 H   0  0  0  0  0  0  0  0  0  0  0  0
   -4.9070    1.5861   -0.8241 H   0  0  0  0  0  0  0  0  0  0  0  0
    2.1531    2.1119   -2.4685 H   0  0  0  0  0  0  0  0  0  0  0  0
    2.7879    3.3367   -4.5384 H   0  0  0  0  0  0  0  0  0  0  0  0
    2.7894    2.1649   -6.7271 H   0  0  0  0  0  0  0  0  0  0  0  0
    2.1467   -0.2278   -6.8629 H   0  0  0  0  0  0  0  0  0  0  0  0
    1.4993   -1.4636   -4.7996 H   0  0  0  0  0  0  0  0  0  0  0  0
  1  6  2  0  0  0  0
  2  1  2  0  0  0  0
  2  3  1  0  0  0  0
  3  4  2  0  0  0  0
  4  5  1  0  0  0  0
  4 29  1  0  0  0  0
  5 17  1  1  0  0  0
  6  7  1  0  0  0  0
  6  5  1  0  0  0  0
  8  7  1  0  0  0  0
  9  8  2  0  0  0  0
 10  8  1  0  0  0  0
 10 11  2  0  0  0  0
 11 30  1  0  0  0  0
 12 11  1  0  0  0  0
 12 31  1  0  0  0  0
 13 12  2  0  0  0  0
 14 15  2  0  0  0  0
 14 13  1  0  0  0  0
 15 10  1  0  0  0  0
 16 13  1  0  0  0  0
 17 18  3  0  0  0  0
 19  2  1  0  0  0  0
 20 21  2  0  0  0  0
 20 19  1  0  0  0  0
 22 23  1  0  0  0  0
 22 20  1  0  0  0  0
 23 34  1  0  0  0  0
 24 35  1  0  0  0  0
 24 23  2  0  0  0  0
 25 24  1  0  0  0  0
 26 25  2  0  0  0  0
 26 27  1  0  0  0  0
 27 22  2  0  0  0  0
 28  3  1  0  0  0  0
 32 14  1  0  0  0  0
 33 15  1  0  0  0  0
 36 25  1  0  0  0  0
 37 26  1  0  0  0  0
 38 27  1  0  0  0  0
M  RAD  1   5   2
M  END
$$$$
