38
rmsd236.gzmat
N          0.00000        0.00000        0.00000
C          1.34810        0.00000        0.00000
C          2.14440        0.00000        1.16300
C          1.49110        0.02250        2.38520
C          0.08730        0.03350        2.43520
C         -0.60380        0.01260        1.20310
O         -1.94890        0.10610        1.23180
C         -2.71990       -0.63740        0.32470
O         -2.31140       -1.65430       -0.14420
C         -4.03640        0.00170        0.21040
C         -4.19900        1.36790        0.45150
C         -5.46150        1.94390        0.32100
C         -6.52320        1.12890       -0.05190
C         -6.38350       -0.23280       -0.29830
C         -5.12020       -0.80110       -0.16330
Cl        -8.07320        1.83060       -0.21620
C         -0.61210        0.05640        3.66010
N         -1.18320        0.07410        4.66730
O          1.97460       -0.09760       -1.18990
C          1.46930        0.58340       -2.30960
O          0.84160        1.58910       -2.18660
C          1.95850       -0.09170       -3.51680
C          2.18010       -1.46950       -3.53250
C          2.62990       -2.07580       -4.70360
C          2.85650       -1.30750       -5.84470
C          2.63000        0.06940       -5.82420
C          2.17740        0.68230       -4.65970
H          3.22770       -0.01130        1.08200
H          2.06240        0.03300        3.31850
H         -3.34120        1.98460        0.73820
H         -5.60250        3.00840        0.50990
H         -7.23660       -0.84500       -0.59050
H         -4.97190       -1.86890       -0.34940
H          1.99820       -2.06690       -2.63580
H          2.80360       -3.15050       -4.72620
H          3.21040       -1.78400       -6.75900
H          2.80590        0.66330       -6.71920
H          1.99000        1.75810       -4.63630
