rmsd42.gzmat
 OpenBabel08211713363D

 33 34  0  0  1  0  0  0  0  0999 V2000
    0.0000    0.0000    0.0000 C   0  0  0  0  0  0  0  0  0  0  0  0
    1.5389    0.0000    0.0000 C   0  0  0  0  0  0  0  0  0  0  0  0
    2.0558    0.0000    1.3905 N   0  0  0  0  0  0  0  0  0  0  0  0
    2.4816    1.1661    1.9574 C   0  0  0  0  0  0  0  0  0  0  0  0
    2.9239    1.1896    3.2759 C   0  0  0  0  0  0  0  0  0  0  0  0
    2.9224    0.0062    4.0272 C   0  0  2  0  0  0  0  0  0  0  0  0
    2.4801   -1.1784    3.4310 C   0  0  0  0  0  0  0  0  0  0  0  0
    2.0478   -1.1598    2.1059 C   0  0  0  0  0  0  0  0  0  0  0  0
    3.3656    0.0162    5.3790 C   0  0  0  0  0  0  0  0  0  0  0  0
    3.7263    0.0283    6.4773 N   0  0  0  0  0  0  0  0  0  0  0  0
   -0.5495   -1.2849    0.5301 C   0  0  0  0  0  0  0  0  0  0  0  0
   -1.1343   -1.3284    1.8029 C   0  0  0  0  0  0  0  0  0  0  0  0
   -1.6491   -2.5133    2.2983 C   0  0  0  0  0  0  0  0  0  0  0  0
   -1.5933   -3.6693    1.4956 C   0  0  0  0  0  0  0  0  0  0  0  0
   -1.0264   -3.6378    0.2185 C   0  0  0  0  0  0  0  0  0  0  0  0
   -0.5131   -2.4364   -0.2572 C   0  0  0  0  0  0  0  0  0  0  0  0
   -2.1174   -4.7562    2.0988 O   0  0  0  0  0  0  0  0  0  0  0  0
   -2.2556   -5.9417    1.3210 C   0  0  0  0  0  0  0  0  0  0  0  0
   -0.3980    0.8714    0.5616 H   0  0  0  0  0  0  0  0  0  0  0  0
   -0.3583    0.1645   -1.0457 H   0  0  0  0  0  0  0  0  0  0  0  0
    1.9323    0.8864   -0.5521 H   0  0  0  0  0  0  0  0  0  0  0  0
    1.9262   -0.9021   -0.5369 H   0  0  0  0  0  0  0  0  0  0  0  0
    2.4659    2.0827    1.3413 H   0  0  0  0  0  0  0  0  0  0  0  0
    3.2712    2.1346    3.7208 H   0  0  0  0  0  0  0  0  0  0  0  0
    2.4648   -2.1240    3.9951 H   0  0  0  0  0  0  0  0  0  0  0  0
    1.6720   -2.0765    1.6068 H   0  0  0  0  0  0  0  0  0  0  0  0
   -1.2079   -0.4204    2.4020 H   0  0  0  0  0  0  0  0  0  0  0  0
   -2.1191   -2.5661    3.2813 H   0  0  0  0  0  0  0  0  0  0  0  0
   -0.9987   -4.5272   -0.4073 H   0  0  0  0  0  0  0  0  0  0  0  0
   -0.0933   -2.3992   -1.2635 H   0  0  0  0  0  0  0  0  0  0  0  0
   -2.7538   -6.6193    2.0334 H   0  0  0  0  0  0  0  0  0  0  0  0
   -1.2781   -6.3392    1.0349 H   0  0  0  0  0  0  0  0  0  0  0  0
   -2.8969   -5.7692    0.4502 H   0  0  0  0  0  0  0  0  0  0  0  0
  1 11  1  0  0  0  0
  1 19  1  0  0  0  0
  2  1  1  0  0  0  0
  2  3  1  0  0  0  0
  3  4  1  0  0  0  0
  3  8  1  0  0  0  0
  4  5  2  0  0  0  0
  5 24  1  0  0  0  0
  5  6  1  0  0  0  0
  6  9  1  1  0  0  0
  7 25  1  0  0  0  0
  7  6  1  0  0  0  0
  8  7  2  0  0  0  0
  9 10  3  0  0  0  0
 11 12  2  0  0  0  0
 12 13  1  0  0  0  0
 12 27  1  0  0  0  0
 13 28  1  0  0  0  0
 14 17  1  0  0  0  0
 14 13  2  0  0  0  0
 15 14  1  0  0  0  0
 16 15  2  0  0  0  0
 16 11  1  0  0  0  0
 18 31  1  0  0  0  0
 18 17  1  0  0  0  0
 20  1  1  0  0  0  0
 21  2  1  0  0  0  0
 22  2  1  0  0  0  0
 23  4  1  0  0  0  0
 26  8  1  0  0  0  0
 29 15  1  0  0  0  0
 30 16  1  0  0  0  0
 32 18  1  0  0  0  0
 33 18  1  0  0  0  0
M  RAD  1   6   2
M  END
$$$$
