33
rmsd51.gzmat
C          0.00000        0.00000        0.00000
C          1.53910        0.00000        0.00000
N          2.05620        0.00000        1.39040
C          2.08990       -1.16930        2.08960
C          2.53550       -1.19250        3.41020
C          2.94770       -0.00280        4.01860
C          2.89650        1.19170        3.28730
C          2.44150        1.17210        1.97290
C          3.41560       -0.00550        5.36220
N          3.79770       -0.01010        6.45310
C         -0.54610       -1.25250        0.60600
C         -1.12820       -1.22030        1.88040
C         -1.63120       -2.37600        2.45110
C         -1.56860       -3.58000        1.72300
C         -1.00360       -3.62470        0.44550
C         -0.50240       -2.45140       -0.10720
O         -2.08770       -4.62880        2.39370
C         -2.21660       -5.86400        1.69560
H         -0.39650        0.90300        0.51050
H         -0.35860        0.10420       -1.05320
H          1.93390        0.88560       -0.55250
H          1.92560       -0.90220       -0.53720
H          1.73930       -2.08970        1.58030
H          2.55660       -2.14500        3.96190
H          3.21370        2.14190        3.74350
H          2.38340        2.09710        1.37230
H         -1.20950       -0.27680        2.42100
H         -2.09690       -2.36930        3.43750
H         -0.96950       -4.55080       -0.12380
H         -0.08630       -2.47490       -1.11570
H         -2.72350       -6.49160        2.44660
H         -1.23570       -6.27970        1.44900
H         -2.84600       -5.75220        0.80650
