rmsd180.gzmat
 OpenBabel08211713363D

 33 34  0  0  1  0  0  0  0  0999 V2000
    0.0000    0.0000    0.0000 C   0  0  0  0  0  0  0  0  0  0  0  0
    1.5394    0.0000    0.0000 C   0  0  0  0  0  0  0  0  0  0  0  0
    2.0560    0.0000    1.3905 N   0  0  0  0  0  0  0  0  0  0  0  0
    2.4524   -1.1707    1.9689 C   0  0  0  0  0  0  0  0  0  0  0  0
    2.8934   -1.1935    3.2879 C   0  0  0  0  0  0  0  0  0  0  0  0
    2.9229   -0.0030    4.0273 C   0  0  2  0  0  0  0  0  0  0  0  0
    2.5082    1.1862    3.4201 C   0  0  0  0  0  0  0  0  0  0  0  0
    2.0729    1.1658    2.0959 C   0  0  0  0  0  0  0  0  0  0  0  0
    3.3716   -0.0059    5.3774 C   0  0  0  0  0  0  0  0  0  0  0  0
    3.7370   -0.0090    6.4740 N   0  0  0  0  0  0  0  0  0  0  0  0
   -0.5476    1.2549    0.5996 C   0  0  0  0  0  0  0  0  0  0  0  0
   -0.5238    2.4463   -0.1272 C   0  0  0  0  0  0  0  0  0  0  0  0
   -1.0224    3.6230    0.4212 C   0  0  0  0  0  0  0  0  0  0  0  0
   -1.5691    3.5891    1.7072 C   0  0  0  0  0  0  0  0  0  0  0  0
   -1.6109    2.3929    2.4493 C   0  0  0  0  0  0  0  0  0  0  0  0
   -1.1088    1.2344    1.8836 C   0  0  0  0  0  0  0  0  0  0  0  0
   -2.0878    4.6418    2.3728 O   0  0  0  0  0  0  0  0  0  0  0  0
   -2.2313    5.8691    1.6630 C   0  0  0  0  0  0  0  0  0  0  0  0
   -0.3584   -0.1103   -1.0526 H   0  0  0  0  0  0  0  0  0  0  0  0
   -0.3959   -0.9013    0.5143 H   0  0  0  0  0  0  0  0  0  0  0  0
    1.9275    0.9009   -0.5379 H   0  0  0  0  0  0  0  0  0  0  0  0
    1.9330   -0.8865   -0.5520 H   0  0  0  0  0  0  0  0  0  0  0  0
    2.4131   -2.0916    1.3610 H   0  0  0  0  0  0  0  0  0  0  0  0
    3.2155   -2.1431    3.7420 H   0  0  0  0  0  0  0  0  0  0  0  0
    2.5175    2.1369    3.9754 H   0  0  0  0  0  0  0  0  0  0  0  0
    1.7158    2.0857    1.5898 H   0  0  0  0  0  0  0  0  0  0  0  0
   -0.1256    2.4598   -1.1430 H   0  0  0  0  0  0  0  0  0  0  0  0
   -0.9991    4.5441   -0.1565 H   0  0  0  0  0  0  0  0  0  0  0  0
   -2.0593    2.3934    3.4433 H   0  0  0  0  0  0  0  0  0  0  0  0
   -1.1726    0.2972    2.4368 H   0  0  0  0  0  0  0  0  0  0  0  0
   -2.7586    6.4952    2.4015 H   0  0  0  0  0  0  0  0  0  0  0  0
   -2.8474    5.7404    0.7668 H   0  0  0  0  0  0  0  0  0  0  0  0
   -1.2532    6.2977    1.4262 H   0  0  0  0  0  0  0  0  0  0  0  0
  1 20  1  0  0  0  0
  1 11  1  0  0  0  0
  2  1  1  0  0  0  0
  2  3  1  0  0  0  0
  3  4  1  0  0  0  0
  3  8  1  0  0  0  0
  4  5  2  0  0  0  0
  5 24  1  0  0  0  0
  5  6  1  0  0  0  0
  6  9  1  6  0  0  0
  7 25  1  0  0  0  0
  7  6  1  0  0  0  0
  8  7  2  0  0  0  0
  9 10  3  0  0  0  0
 11 16  2  0  0  0  0
 12 13  2  0  0  0  0
 12 11  1  0  0  0  0
 13 14  1  0  0  0  0
 14 17  1  0  0  0  0
 14 15  2  0  0  0  0
 15 29  1  0  0  0  0
 16 30  1  0  0  0  0
 16 15  1  0  0  0  0
 18 17  1  0  0  0  0
 18 31  1  0  0  0  0
 19  1  1  0  0  0  0
 21  2  1  0  0  0  0
 22  2  1  0  0  0  0
 23  4  1  0  0  0  0
 26  8  1  0  0  0  0
 27 12  1  0  0  0  0
 28 13  1  0  0  0  0
 32 18  1  0  0  0  0
 33 18  1  0  0  0  0
M  RAD  1   6   2
M  END
$$$$
