33
rmsd42.gzmat
C          0.00000        0.00000        0.00000
C          1.53890        0.00000        0.00000
N          2.05580        0.00000        1.39050
C          2.48160        1.16610        1.95740
C          2.92390        1.18960        3.27590
C          2.92240        0.00620        4.02720
C          2.48010       -1.17840        3.43100
C          2.04780       -1.15980        2.10590
C          3.36560        0.01620        5.37900
N          3.72630        0.02830        6.47730
C         -0.54950       -1.28490        0.53010
C         -1.13430       -1.32840        1.80290
C         -1.64910       -2.51330        2.29830
C         -1.59330       -3.66930        1.49560
C         -1.02640       -3.63780        0.21850
C         -0.51310       -2.43640       -0.25720
O         -2.11740       -4.75620        2.09880
C         -2.25560       -5.94170        1.32100
H         -0.39800        0.87140        0.56160
H         -0.35830        0.16450       -1.04570
H          1.93230        0.88640       -0.55210
H          1.92620       -0.90210       -0.53690
H          2.46590        2.08270        1.34130
H          3.27120        2.13460        3.72080
H          2.46480       -2.12400        3.99510
H          1.67200       -2.07650        1.60680
H         -1.20790       -0.42040        2.40200
H         -2.11910       -2.56610        3.28130
H         -0.99870       -4.52720       -0.40730
H         -0.09330       -2.39920       -1.26350
H         -2.75380       -6.61930        2.03340
H         -1.27810       -6.33920        1.03490
H         -2.89690       -5.76920        0.45020
