33
rmsd47.gzmat
C          0.00000        0.00000        0.00000
C          1.53910        0.00000        0.00000
N          2.05440        0.00000        1.39070
C          2.41500        1.17600        1.98080
C          2.86070        1.19820        3.29830
C          2.92890        0.00160        4.02470
C          2.54580       -1.19270        3.40690
C          2.10560       -1.17190        2.08430
C          3.38140        0.00260        5.37360
N          3.74790        0.00230        6.46980
C         -0.54750       -1.24320        0.62330
C         -1.11630       -1.19390        1.90320
C         -1.62440       -2.33940        2.48950
C         -1.57970       -3.55070        1.77230
C         -1.02730       -3.61260        0.49000
C         -0.52050       -2.44900       -0.07830
O         -2.09820       -4.58960        2.45920
C         -2.27700       -5.81940        1.76350
H         -0.39590        0.91030        0.49820
H         -0.35840        0.09040       -1.05450
H          1.93300        0.88670       -0.55150
H          1.92710       -0.89990       -0.53900
H          2.34370        2.10230        1.38380
H          3.15620        2.15250        3.76030
H          2.58450       -2.14760        3.95300
H          1.77350       -2.09600        1.56960
H         -1.18350       -0.24460        2.43530
H         -2.08110       -2.31860        3.47970
H         -1.00600       -4.54500       -0.06970
H         -0.11370       -2.48420       -1.09030
H         -2.77820       -6.43730        2.52660
H         -1.31400       -6.25730        1.48810
H         -2.92790       -5.68870        0.89290
