33
rmsd189.gzmat
C          0.00000        0.00000        0.00000
C          1.53950        0.00000        0.00000
N          2.05430        0.00000        1.39110
C          2.07380        1.16680        2.09470
C          2.50070        1.18720        3.42170
C          2.91220       -0.00220        4.02990
C          2.88280       -1.19340        3.29150
C          2.44440       -1.17180        1.97160
C          3.35800       -0.00650        5.38100
N          3.72330       -0.01020        6.47770
C         -0.54820        1.24260        0.62520
C         -0.50160        2.45330       -0.06740
C         -1.00370        3.61820        0.50270
C         -1.57420        3.55300        1.77710
C         -1.63920        2.33740        2.48500
C         -1.13560        1.19080        1.89700
O         -2.09820        4.58910        2.46330
C         -2.20720        5.84180        1.79400
H         -0.35810       -0.08970       -1.05480
H         -0.39590       -0.91150        0.49610
H          1.92840        0.90110       -0.53700
H          1.93310       -0.88650       -0.55200
H          1.72580        2.08800        1.58500
H          2.50510        2.13740        3.97790
H          3.20190       -2.14260        3.74830
H          2.40200       -2.09410        1.36560
H         -0.08380        2.49100       -1.07500
H         -0.96740        4.55440       -0.05050
H         -2.10680        2.31650        3.47030
H         -1.21990        0.23980        2.42350
H         -2.72960        6.45290        2.54830
H         -2.81710        5.75770        0.88850
H         -1.21860        6.25810        1.58110
