rmsd35.gzmat
 OpenBabel08211713363D

 33 34  0  0  1  0  0  0  0  0999 V2000
    0.0000    0.0000    0.0000 C   0  0  0  0  0  0  0  0  0  0  0  0
    1.5389    0.0000    0.0000 C   0  0  0  0  0  0  0  0  0  0  0  0
    2.0587    0.0000    1.3897 N   0  0  0  0  0  0  0  0  0  0  0  0
    2.0237   -1.1520    2.1165 C   0  0  0  0  0  0  0  0  0  0  0  0
    2.4673   -1.1704    3.4380 C   0  0  0  0  0  0  0  0  0  0  0  0
    2.9521    0.0060    4.0174 C   0  0  2  0  0  0  0  0  0  0  0  0
    2.9793    1.1819    3.2550 C   0  0  0  0  0  0  0  0  0  0  0  0
    2.5225    1.1586    1.9416 C   0  0  0  0  0  0  0  0  0  0  0  0
    3.4146    0.0136    5.3628 C   0  0  0  0  0  0  0  0  0  0  0  0
    3.7920    0.0225    6.4556 N   0  0  0  0  0  0  0  0  0  0  0  0
   -0.5488   -1.2953    0.5050 C   0  0  0  0  0  0  0  0  0  0  0  0
   -1.1341   -1.3638    1.7764 C   0  0  0  0  0  0  0  0  0  0  0  0
   -1.6470   -2.5588    2.2493 C   0  0  0  0  0  0  0  0  0  0  0  0
   -1.5897   -3.6997    1.4252 C   0  0  0  0  0  0  0  0  0  0  0  0
   -1.0205   -3.6439    0.1500 C   0  0  0  0  0  0  0  0  0  0  0  0
   -0.5086   -2.4330   -0.3029 C   0  0  0  0  0  0  0  0  0  0  0  0
   -2.1167   -4.7971    2.0063 O   0  0  0  0  0  0  0  0  0  0  0  0
   -2.2695   -5.9626    1.2021 C   0  0  0  0  0  0  0  0  0  0  0  0
   -0.3980    0.8610    0.5777 H   0  0  0  0  0  0  0  0  0  0  0  0
   -0.3591    0.1854   -1.0421 H   0  0  0  0  0  0  0  0  0  0  0  0
    1.9317    0.8861   -0.5528 H   0  0  0  0  0  0  0  0  0  0  0  0
    1.9266   -0.9019   -0.5372 H   0  0  0  0  0  0  0  0  0  0  0  0
    1.6180   -2.0623    1.6287 H   0  0  0  0  0  0  0  0  0  0  0  0
    2.4293   -2.1093    4.0118 H   0  0  0  0  0  0  0  0  0  0  0  0
    3.3591    2.1201    3.6872 H   0  0  0  0  0  0  0  0  0  0  0  0
    2.5261    2.0696    1.3173 H   0  0  0  0  0  0  0  0  0  0  0  0
   -1.2090   -0.4670    2.3915 H   0  0  0  0  0  0  0  0  0  0  0  0
   -2.1175   -2.6312    3.2306 H   0  0  0  0  0  0  0  0  0  0  0  0
   -0.9904   -4.5213   -0.4919 H   0  0  0  0  0  0  0  0  0  0  0  0
   -0.0865   -2.3763   -1.3076 H   0  0  0  0  0  0  0  0  0  0  0  0
   -2.7694   -6.6522    1.9015 H   0  0  0  0  0  0  0  0  0  0  0  0
   -1.2979   -6.3626    0.9001 H   0  0  0  0  0  0  0  0  0  0  0  0
   -2.9141   -5.7638    0.3396 H   0  0  0  0  0  0  0  0  0  0  0  0
  1 11  1  0  0  0  0
  1 19  1  0  0  0  0
  2  1  1  0  0  0  0
  2  3  1  0  0  0  0
  3  8  1  0  0  0  0
  3  4  1  0  0  0  0
  4  5  2  0  0  0  0
  5 24  1  0  0  0  0
  5  6  1  0  0  0  0
  6  9  1  6  0  0  0
  7 25  1  0  0  0  0
  7  6  1  0  0  0  0
  8  7  2  0  0  0  0
  9 10  3  0  0  0  0
 11 12  2  0  0  0  0
 12 13  1  0  0  0  0
 12 27  1  0  0  0  0
 13 28  1  0  0  0  0
 14 17  1  0  0  0  0
 14 13  2  0  0  0  0
 15 14  1  0  0  0  0
 16 15  2  0  0  0  0
 16 11  1  0  0  0  0
 18 31  1  0  0  0  0
 18 17  1  0  0  0  0
 20  1  1  0  0  0  0
 21  2  1  0  0  0  0
 22  2  1  0  0  0  0
 23  4  1  0  0  0  0
 26  8  1  0  0  0  0
 29 15  1  0  0  0  0
 30 16  1  0  0  0  0
 32 18  1  0  0  0  0
 33 18  1  0  0  0  0
M  RAD  1   6   2
M  END
$$$$
