33
rmsd97.gzmat
C          0.00000        0.00000        0.00000
C          1.53950        0.00000        0.00000
N          2.05700        0.00000        1.39000
C          2.07820       -1.16670        2.09400
C          2.51100       -1.18780        3.41900
C          2.92490        0.00180        4.02620
C          2.89220        1.19290        3.28790
C          2.44940        1.17130        1.96980
C          3.37670        0.00540        5.37530
N          3.74720        0.00790        6.47030
C         -0.55460       -1.23070        0.64200
C         -1.12800       -1.15990        1.91920
C         -1.64330       -2.29400        2.52160
C         -1.60760       -3.51570        1.82150
C         -1.05010       -3.59930        0.54250
C         -0.53140       -2.44810       -0.04020
O         -2.13960       -4.54020        2.52010
C         -2.32130       -5.78060        1.84310
H         -0.39460        0.91950        0.48210
H         -0.35610        0.07450       -1.05680
H          1.93170        0.88750       -0.55180
H          1.92930       -0.89820       -0.54040
H          1.72740       -2.08710        1.58480
H          2.51820       -2.13850        3.97450
H          3.21230        2.14280        3.74260
H          2.40630        2.09360        1.36360
H         -1.19130       -0.20220        2.43730
H         -2.09840       -2.25710        3.51230
H         -1.03320       -4.53890       -0.00510
H         -0.11860       -2.50290       -1.04870
H         -2.82820       -6.38440        2.61380
H         -1.36000       -6.22960        1.57810
H         -2.97020       -5.66070        0.96870
