rmsd47.gzmat
 OpenBabel08211713363D

 33 34  0  0  1  0  0  0  0  0999 V2000
    0.0000    0.0000    0.0000 C   0  0  0  0  0  0  0  0  0  0  0  0
    1.5391    0.0000    0.0000 C   0  0  0  0  0  0  0  0  0  0  0  0
    2.0544    0.0000    1.3907 N   0  0  0  0  0  0  0  0  0  0  0  0
    2.4150    1.1760    1.9808 C   0  0  0  0  0  0  0  0  0  0  0  0
    2.8607    1.1982    3.2983 C   0  0  0  0  0  0  0  0  0  0  0  0
    2.9289    0.0016    4.0247 C   0  0  2  0  0  0  0  0  0  0  0  0
    2.5458   -1.1927    3.4069 C   0  0  0  0  0  0  0  0  0  0  0  0
    2.1056   -1.1719    2.0843 C   0  0  0  0  0  0  0  0  0  0  0  0
    3.3814    0.0026    5.3736 C   0  0  0  0  0  0  0  0  0  0  0  0
    3.7479    0.0023    6.4698 N   0  0  0  0  0  0  0  0  0  0  0  0
   -0.5475   -1.2432    0.6233 C   0  0  0  0  0  0  0  0  0  0  0  0
   -1.1163   -1.1939    1.9032 C   0  0  0  0  0  0  0  0  0  0  0  0
   -1.6244   -2.3394    2.4895 C   0  0  0  0  0  0  0  0  0  0  0  0
   -1.5797   -3.5507    1.7723 C   0  0  0  0  0  0  0  0  0  0  0  0
   -1.0273   -3.6126    0.4900 C   0  0  0  0  0  0  0  0  0  0  0  0
   -0.5205   -2.4490   -0.0783 C   0  0  0  0  0  0  0  0  0  0  0  0
   -2.0982   -4.5896    2.4592 O   0  0  0  0  0  0  0  0  0  0  0  0
   -2.2770   -5.8194    1.7635 C   0  0  0  0  0  0  0  0  0  0  0  0
   -0.3959    0.9103    0.4982 H   0  0  0  0  0  0  0  0  0  0  0  0
   -0.3584    0.0904   -1.0545 H   0  0  0  0  0  0  0  0  0  0  0  0
    1.9330    0.8867   -0.5515 H   0  0  0  0  0  0  0  0  0  0  0  0
    1.9271   -0.8999   -0.5390 H   0  0  0  0  0  0  0  0  0  0  0  0
    2.3437    2.1023    1.3838 H   0  0  0  0  0  0  0  0  0  0  0  0
    3.1562    2.1525    3.7603 H   0  0  0  0  0  0  0  0  0  0  0  0
    2.5845   -2.1476    3.9530 H   0  0  0  0  0  0  0  0  0  0  0  0
    1.7735   -2.0960    1.5696 H   0  0  0  0  0  0  0  0  0  0  0  0
   -1.1835   -0.2446    2.4353 H   0  0  0  0  0  0  0  0  0  0  0  0
   -2.0811   -2.3186    3.4797 H   0  0  0  0  0  0  0  0  0  0  0  0
   -1.0060   -4.5450   -0.0697 H   0  0  0  0  0  0  0  0  0  0  0  0
   -0.1137   -2.4842   -1.0903 H   0  0  0  0  0  0  0  0  0  0  0  0
   -2.7782   -6.4373    2.5266 H   0  0  0  0  0  0  0  0  0  0  0  0
   -1.3140   -6.2573    1.4881 H   0  0  0  0  0  0  0  0  0  0  0  0
   -2.9279   -5.6887    0.8929 H   0  0  0  0  0  0  0  0  0  0  0  0
  1 19  1  0  0  0  0
  1 11  1  0  0  0  0
  2  1  1  0  0  0  0
  2  3  1  0  0  0  0
  3  4  1  0  0  0  0
  3  8  1  0  0  0  0
  4  5  2  0  0  0  0
  5 24  1  0  0  0  0
  5  6  1  0  0  0  0
  6  9  1  1  0  0  0
  7 25  1  0  0  0  0
  7  6  1  0  0  0  0
  8  7  2  0  0  0  0
  9 10  3  0  0  0  0
 11 12  2  0  0  0  0
 12 27  1  0  0  0  0
 12 13  1  0  0  0  0
 13 28  1  0  0  0  0
 14 17  1  0  0  0  0
 14 13  2  0  0  0  0
 15 14  1  0  0  0  0
 16 15  2  0  0  0  0
 16 11  1  0  0  0  0
 18 17  1  0  0  0  0
 18 31  1  0  0  0  0
 20  1  1  0  0  0  0
 21  2  1  0  0  0  0
 22  2  1  0  0  0  0
 23  4  1  0  0  0  0
 26  8  1  0  0  0  0
 29 15  1  0  0  0  0
 30 16  1  0  0  0  0
 32 18  1  0  0  0  0
 33 18  1  0  0  0  0
M  RAD  1   6   2
M  END
$$$$
