33
rmsd180.gzmat
C          0.00000        0.00000        0.00000
C          1.53940        0.00000        0.00000
N          2.05600        0.00000        1.39050
C          2.45240       -1.17070        1.96890
C          2.89340       -1.19350        3.28790
C          2.92290       -0.00300        4.02730
C          2.50820        1.18620        3.42010
C          2.07290        1.16580        2.09590
C          3.37160       -0.00590        5.37740
N          3.73700       -0.00900        6.47400
C         -0.54760        1.25490        0.59960
C         -0.52380        2.44630       -0.12720
C         -1.02240        3.62300        0.42120
C         -1.56910        3.58910        1.70720
C         -1.61090        2.39290        2.44930
C         -1.10880        1.23440        1.88360
O         -2.08780        4.64180        2.37280
C         -2.23130        5.86910        1.66300
H         -0.35840       -0.11030       -1.05260
H         -0.39590       -0.90130        0.51430
H          1.92750        0.90090       -0.53790
H          1.93300       -0.88650       -0.55200
H          2.41310       -2.09160        1.36100
H          3.21550       -2.14310        3.74200
H          2.51750        2.13690        3.97540
H          1.71580        2.08570        1.58980
H         -0.12560        2.45980       -1.14300
H         -0.99910        4.54410       -0.15650
H         -2.05930        2.39340        3.44330
H         -1.17260        0.29720        2.43680
H         -2.75860        6.49520        2.40150
H         -2.84740        5.74040        0.76680
H         -1.25320        6.29770        1.42620
