rmsd91.gzmat
 OpenBabel08211713363D

 33 34  0  0  1  0  0  0  0  0999 V2000
    0.0000    0.0000    0.0000 C   0  0  0  0  0  0  0  0  0  0  0  0
    1.5398    0.0000    0.0000 C   0  0  0  0  0  0  0  0  0  0  0  0
    2.0561    0.0000    1.3906 N   0  0  0  0  0  0  0  0  0  0  0  0
    2.0857   -1.1685    2.0913 C   0  0  0  0  0  0  0  0  0  0  0  0
    2.5183   -1.1904    3.4165 C   0  0  0  0  0  0  0  0  0  0  0  0
    2.9183    0.0010    4.0293 C   0  0  2  0  0  0  0  0  0  0  0  0
    2.8762    1.1943    3.2948 C   0  0  0  0  0  0  0  0  0  0  0  0
    2.4388    1.1727    1.9742 C   0  0  0  0  0  0  0  0  0  0  0  0
    3.3639    0.0041    5.3804 C   0  0  0  0  0  0  0  0  0  0  0  0
    3.7284    0.0068    6.4772 N   0  0  0  0  0  0  0  0  0  0  0  0
   -0.5412   -1.2583    0.5980 C   0  0  0  0  0  0  0  0  0  0  0  0
   -1.0566   -1.2526    1.9014 C   0  0  0  0  0  0  0  0  0  0  0  0
   -1.5389   -2.4178    2.4705 C   0  0  0  0  0  0  0  0  0  0  0  0
   -1.5244   -3.6044    1.7116 C   0  0  0  0  0  0  0  0  0  0  0  0
   -1.0335   -3.6211    0.4031 C   0  0  0  0  0  0  0  0  0  0  0  0
   -0.5510   -2.4388   -0.1473 C   0  0  0  0  0  0  0  0  0  0  0  0
   -2.0078   -4.6674    2.3871 O   0  0  0  0  0  0  0  0  0  0  0  0
   -2.1721   -5.8880    1.6708 C   0  0  0  0  0  0  0  0  0  0  0  0
   -0.3980    0.8987    0.5170 H   0  0  0  0  0  0  0  0  0  0  0  0
   -0.3582    0.1126   -1.0523 H   0  0  0  0  0  0  0  0  0  0  0  0
    1.9344    0.8855   -0.5525 H   0  0  0  0  0  0  0  0  0  0  0  0
    1.9258   -0.9022   -0.5374 H   0  0  0  0  0  0  0  0  0  0  0  0
    1.7404   -2.0896    1.5798 H   0  0  0  0  0  0  0  0  0  0  0  0
    2.5364   -2.1434    3.9680 H   0  0  0  0  0  0  0  0  0  0  0  0
    3.1840    2.1463    3.7539 H   0  0  0  0  0  0  0  0  0  0  0  0
    2.3918    2.0961    1.3699 H   0  0  0  0  0  0  0  0  0  0  0  0
   -1.0998   -0.3219    2.4675 H   0  0  0  0  0  0  0  0  0  0  0  0
   -1.9523   -2.4332    3.4796 H   0  0  0  0  0  0  0  0  0  0  0  0
   -1.0395   -4.5338   -0.1885 H   0  0  0  0  0  0  0  0  0  0  0  0
   -0.1892   -2.4386   -1.1772 H   0  0  0  0  0  0  0  0  0  0  0  0
   -2.6346   -6.5345    2.4344 H   0  0  0  0  0  0  0  0  0  0  0  0
   -1.2052   -6.2943    1.3616 H   0  0  0  0  0  0  0  0  0  0  0  0
   -2.8505   -5.7587    0.8207 H   0  0  0  0  0  0  0  0  0  0  0  0
  1 19  1  0  0  0  0
  1 11  1  0  0  0  0
  2  1  1  0  0  0  0
  2  3  1  0  0  0  0
  3  8  1  0  0  0  0
  3  4  1  0  0  0  0
  4  5  2  0  0  0  0
  5 24  1  0  0  0  0
  5  6  1  0  0  0  0
  6  9  1  6  0  0  0
  7 25  1  0  0  0  0
  7  6  1  0  0  0  0
  8  7  2  0  0  0  0
  9 10  3  0  0  0  0
 11 12  2  0  0  0  0
 12 27  1  0  0  0  0
 12 13  1  0  0  0  0
 13 28  1  0  0  0  0
 14 17  1  0  0  0  0
 14 13  2  0  0  0  0
 15 14  1  0  0  0  0
 16 15  2  0  0  0  0
 16 11  1  0  0  0  0
 18 17  1  0  0  0  0
 18 31  1  0  0  0  0
 20  1  1  0  0  0  0
 21  2  1  0  0  0  0
 22  2  1  0  0  0  0
 23  4  1  0  0  0  0
 26  8  1  0  0  0  0
 29 15  1  0  0  0  0
 30 16  1  0  0  0  0
 32 18  1  0  0  0  0
 33 18  1  0  0  0  0
M  RAD  1   6   2
M  END
$$$$
