33
rmsd96.gzmat
C          0.00000        0.00000        0.00000
C          1.53920        0.00000        0.00000
N          2.05780        0.00000        1.39010
C          2.03950       -1.15520        2.11240
C          2.47630       -1.17070        3.43630
C          2.93630        0.01180        4.02300
C          2.94860        1.19040        3.26470
C          2.50040        1.16380        1.94830
C          3.38430        0.02220        5.37330
N          3.74710        0.03050        6.47090
C         -0.54950       -1.26610        0.57400
C         -1.14390       -1.26370        1.84330
C         -1.64790       -2.43310        2.38440
C         -1.57950       -3.62010        1.62940
C         -1.00100       -3.63560        0.35710
C         -0.49580       -2.44940       -0.16420
O         -2.10940       -4.68260        2.26940
C         -2.22780       -5.90260        1.54360
H         -0.39590        0.89090        0.53220
H         -0.35950        0.13140       -1.05010
H          1.93170        0.88730       -0.55180
H          1.92930       -0.89960       -0.53860
H          1.65290       -2.07150        1.62050
H          2.45180       -2.11200        4.00690
H          3.30870        2.13380        3.70250
H          2.49340        2.07680        1.32680
H         -1.23330       -0.33250        2.40330
H         -2.11880       -2.45080        3.36830
H         -0.95920       -4.54920       -0.23180
H         -0.06950       -2.44820       -1.16870
H         -2.77440       -6.53640        2.26070
H         -1.24230       -6.32580        1.33240
H         -2.81780       -5.76810        0.63120
