rmsd189.gzmat
 OpenBabel08211713363D

 33 34  0  0  1  0  0  0  0  0999 V2000
    0.0000    0.0000    0.0000 C   0  0  0  0  0  0  0  0  0  0  0  0
    1.5395    0.0000    0.0000 C   0  0  0  0  0  0  0  0  0  0  0  0
    2.0543    0.0000    1.3911 N   0  0  0  0  0  0  0  0  0  0  0  0
    2.0738    1.1668    2.0947 C   0  0  0  0  0  0  0  0  0  0  0  0
    2.5007    1.1872    3.4217 C   0  0  0  0  0  0  0  0  0  0  0  0
    2.9122   -0.0022    4.0299 C   0  0  1  0  0  0  0  0  0  0  0  0
    2.8828   -1.1934    3.2915 C   0  0  0  0  0  0  0  0  0  0  0  0
    2.4444   -1.1718    1.9716 C   0  0  0  0  0  0  0  0  0  0  0  0
    3.3580   -0.0065    5.3810 C   0  0  0  0  0  0  0  0  0  0  0  0
    3.7233   -0.0102    6.4777 N   0  0  0  0  0  0  0  0  0  0  0  0
   -0.5482    1.2426    0.6252 C   0  0  0  0  0  0  0  0  0  0  0  0
   -0.5016    2.4533   -0.0674 C   0  0  0  0  0  0  0  0  0  0  0  0
   -1.0037    3.6182    0.5027 C   0  0  0  0  0  0  0  0  0  0  0  0
   -1.5742    3.5530    1.7771 C   0  0  0  0  0  0  0  0  0  0  0  0
   -1.6392    2.3374    2.4850 C   0  0  0  0  0  0  0  0  0  0  0  0
   -1.1356    1.1908    1.8970 C   0  0  0  0  0  0  0  0  0  0  0  0
   -2.0982    4.5891    2.4633 O   0  0  0  0  0  0  0  0  0  0  0  0
   -2.2072    5.8418    1.7940 C   0  0  0  0  0  0  0  0  0  0  0  0
   -0.3581   -0.0897   -1.0548 H   0  0  0  0  0  0  0  0  0  0  0  0
   -0.3959   -0.9115    0.4961 H   0  0  0  0  0  0  0  0  0  0  0  0
    1.9284    0.9011   -0.5370 H   0  0  0  0  0  0  0  0  0  0  0  0
    1.9331   -0.8865   -0.5520 H   0  0  0  0  0  0  0  0  0  0  0  0
    1.7258    2.0880    1.5850 H   0  0  0  0  0  0  0  0  0  0  0  0
    2.5051    2.1374    3.9779 H   0  0  0  0  0  0  0  0  0  0  0  0
    3.2019   -2.1426    3.7483 H   0  0  0  0  0  0  0  0  0  0  0  0
    2.4020   -2.0941    1.3656 H   0  0  0  0  0  0  0  0  0  0  0  0
   -0.0838    2.4910   -1.0750 H   0  0  0  0  0  0  0  0  0  0  0  0
   -0.9674    4.5544   -0.0505 H   0  0  0  0  0  0  0  0  0  0  0  0
   -2.1068    2.3165    3.4703 H   0  0  0  0  0  0  0  0  0  0  0  0
   -1.2199    0.2398    2.4235 H   0  0  0  0  0  0  0  0  0  0  0  0
   -2.7296    6.4529    2.5483 H   0  0  0  0  0  0  0  0  0  0  0  0
   -2.8171    5.7577    0.8885 H   0  0  0  0  0  0  0  0  0  0  0  0
   -1.2186    6.2581    1.5811 H   0  0  0  0  0  0  0  0  0  0  0  0
  1 20  1  0  0  0  0
  1 11  1  0  0  0  0
  2  1  1  0  0  0  0
  2  3  1  0  0  0  0
  3  8  1  0  0  0  0
  3  4  1  0  0  0  0
  4  5  2  0  0  0  0
  5 24  1  0  0  0  0
  5  6  1  0  0  0  0
  6  9  1  6  0  0  0
  7 25  1  0  0  0  0
  7  6  1  0  0  0  0
  8  7  2  0  0  0  0
  9 10  3  0  0  0  0
 11 16  2  0  0  0  0
 12 13  2  0  0  0  0
 12 11  1  0  0  0  0
 13 14  1  0  0  0  0
 14 17  1  0  0  0  0
 14 15  2  0  0  0  0
 15 29  1  0  0  0  0
 16 30  1  0  0  0  0
 16 15  1  0  0  0  0
 18 17  1  0  0  0  0
 18 31  1  0  0  0  0
 19  1  1  0  0  0  0
 21  2  1  0  0  0  0
 22  2  1  0  0  0  0
 23  4  1  0  0  0  0
 26  8  1  0  0  0  0
 27 12  1  0  0  0  0
 28 13  1  0  0  0  0
 32 18  1  0  0  0  0
 33 18  1  0  0  0  0
M  RAD  1   6   2
M  END
$$$$
