rmsd110.gzmat
 OpenBabel08211713383D

 40 43  0  0  0  0  0  0  0  0999 V2000
    0.0000    0.0000    0.0000 O   0  0  0  0  0  0  0  0  0  0  0  0
    1.4159    0.0000    0.0000 C   0  0  0  0  0  0  0  0  0  0  0  0
    1.9821    0.0000    1.0485 O   0  0  0  0  0  0  0  0  0  0  0  0
    1.8564    0.0012   -1.4058 C   0  0  0  0  0  0  0  0  0  0  0  0
    0.6963   -0.0016   -2.2163 C   0  0  0  0  0  0  0  0  0  0  0  0
   -0.4523    0.0083   -1.3174 C   0  0  0  0  0  0  0  0  0  0  0  0
   -1.7783    0.0087   -1.5510 C   0  0  0  0  0  0  0  0  0  0  0  0
   -2.8702    0.0263   -0.5912 C   0  0  0  0  0  0  0  0  0  0  0  0
   -2.7213    0.6637    0.6443 C   0  0  0  0  0  0  0  0  0  0  0  0
   -3.7812    0.6766    1.5481 C   0  0  0  0  0  0  0  0  0  0  0  0
   -4.9879    0.0614    1.2216 C   0  0  0  0  0  0  0  0  0  0  0  0
   -5.1365   -0.5772   -0.0099 C   0  0  0  0  0  0  0  0  0  0  0  0
   -4.0806   -0.5985   -0.9152 C   0  0  0  0  0  0  0  0  0  0  0  0
   -2.1556   -0.1250   -2.8769 O   0  0  0  0  0  0  0  0  0  0  0  0
   -2.5772    1.0153   -3.5267 C   0  0  0  0  0  0  0  0  0  0  0  0
   -2.5772    2.0894   -2.9952 O   0  0  0  0  0  0  0  0  0  0  0  0
   -2.9696    0.6777   -4.9044 C   0  0  0  0  0  0  0  0  0  0  0  0
   -3.4233    1.7187   -5.7191 C   0  0  0  0  0  0  0  0  0  0  0  0
   -3.8052    1.4486   -7.0304 C   0  0  0  0  0  0  0  0  0  0  0  0
   -3.7311    0.1457   -7.5231 C   0  0  0  0  0  0  0  0  0  0  0  0
   -3.2778   -0.8903   -6.7067 C   0  0  0  0  0  0  0  0  0  0  0  0
   -2.8967   -0.6282   -5.3929 C   0  0  0  0  0  0  0  0  0  0  0  0
    0.7997   -0.0126   -3.5943 C   0  0  0  0  0  0  0  0  0  0  0  0
    2.0852   -0.0070   -4.1539 C   0  0  0  0  0  0  0  0  0  0  0  0
    3.2245    0.0034   -3.3526 C   0  0  0  0  0  0  0  0  0  0  0  0
    3.1214    0.0041   -1.9542 C   0  0  0  0  0  0  0  0  0  0  0  0
   -1.7803    1.1556    0.9002 H   0  0  0  0  0  0  0  0  0  0  0  0
   -3.6642    1.1713    2.5108 H   0  0  0  0  0  0  0  0  0  0  0  0
   -5.8162    0.0794    1.9275 H   0  0  0  0  0  0  0  0  0  0  0  0
   -6.0784   -1.0593   -0.2625 H   0  0  0  0  0  0  0  0  0  0  0  0
   -4.1910   -1.1033   -1.8746 H   0  0  0  0  0  0  0  0  0  0  0  0
   -3.4759    2.7369   -5.3234 H   0  0  0  0  0  0  0  0  0  0  0  0
   -4.1620    2.2536   -7.6706 H   0  0  0  0  0  0  0  0  0  0  0  0
   -4.0298   -0.0636   -8.5501 H   0  0  0  0  0  0  0  0  0  0  0  0
   -3.2237   -1.9053   -7.0962 H   0  0  0  0  0  0  0  0  0  0  0  0
   -2.5461   -1.4411   -4.7519 H   0  0  0  0  0  0  0  0  0  0  0  0
   -0.0845   -0.0271   -4.2286 H   0  0  0  0  0  0  0  0  0  0  0  0
    2.1906   -0.0110   -5.2394 H   0  0  0  0  0  0  0  0  0  0  0  0
    4.2104    0.0107   -3.8147 H   0  0  0  0  0  0  0  0  0  0  0  0
    4.0114    0.0069   -1.3252 H   0  0  0  0  0  0  0  0  0  0  0  0
  2  1  1  0  0  0  0
  2  3  2  0  0  0  0
  4  2  1  0  0  0  0
  5  4  2  0  0  0  0
  5  6  1  0  0  0  0
  6  1  1  0  0  0  0
  7  6  2  0  0  0  0
  7  8  1  0  0  0  0
  8  9  1  0  0  0  0
  9 27  1  0  0  0  0
  9 10  2  0  0  0  0
 10 28  1  0  0  0  0
 11 10  1  0  0  0  0
 11 29  1  0  0  0  0
 12 11  2  0  0  0  0
 13  8  2  0  0  0  0
 13 12  1  0  0  0  0
 14  7  1  0  0  0  0
 15 16  2  0  0  0  0
 15 14  1  0  0  0  0
 17 15  1  0  0  0  0
 18 32  1  0  0  0  0
 18 17  2  0  0  0  0
 19 18  1  0  0  0  0
 20 19  2  0  0  0  0
 20 21  1  0  0  0  0
 21 22  2  0  0  0  0
 22 17  1  0  0  0  0
 22 36  1  0  0  0  0
 23  5  1  0  0  0  0
 24 23  2  0  0  0  0
 24 25  1  0  0  0  0
 25 26  2  0  0  0  0
 26  4  1  0  0  0  0
 26 40  1  0  0  0  0
 30 12  1  0  0  0  0
 31 13  1  0  0  0  0
 33 19  1  0  0  0  0
 34 20  1  0  0  0  0
 35 21  1  0  0  0  0
 37 23  1  0  0  0  0
 38 24  1  0  0  0  0
 39 25  1  0  0  0  0
M  END
$$$$
