rmsd124.gzmat
 OpenBabel08211713383D

 40 43  0  0  0  0  0  0  0  0999 V2000
    0.0000    0.0000    0.0000 O   0  0  0  0  0  0  0  0  0  0  0  0
    1.4161    0.0000    0.0000 C   0  0  0  0  0  0  0  0  0  0  0  0
    1.9817    0.0000    1.0487 O   0  0  0  0  0  0  0  0  0  0  0  0
    1.8571    0.0017   -1.4054 C   0  0  0  0  0  0  0  0  0  0  0  0
    0.6971   -0.0025   -2.2159 C   0  0  0  0  0  0  0  0  0  0  0  0
   -0.4516    0.0018   -1.3176 C   0  0  0  0  0  0  0  0  0  0  0  0
   -1.7773   -0.0073   -1.5548 C   0  0  0  0  0  0  0  0  0  0  0  0
   -2.8717    0.0160   -0.5986 C   0  0  0  0  0  0  0  0  0  0  0  0
   -2.7221    0.6577    0.6350 C   0  0  0  0  0  0  0  0  0  0  0  0
   -3.7827    0.6791    1.5377 C   0  0  0  0  0  0  0  0  0  0  0  0
   -4.9898    0.0631    1.2143 C   0  0  0  0  0  0  0  0  0  0  0  0
   -5.1393   -0.5789   -0.0152 C   0  0  0  0  0  0  0  0  0  0  0  0
   -4.0846   -0.6037   -0.9218 C   0  0  0  0  0  0  0  0  0  0  0  0
   -2.1404   -0.1550   -2.8824 O   0  0  0  0  0  0  0  0  0  0  0  0
   -2.6239    0.9592   -3.5343 C   0  0  0  0  0  0  0  0  0  0  0  0
   -2.7008    2.0302   -3.0030 O   0  0  0  0  0  0  0  0  0  0  0  0
   -2.9635    0.5960   -4.9196 C   0  0  0  0  0  0  0  0  0  0  0  0
   -3.0756   -0.7361   -5.3216 C   0  0  0  0  0  0  0  0  0  0  0  0
   -3.4070   -1.0265   -6.6429 C   0  0  0  0  0  0  0  0  0  0  0  0
   -3.6227    0.0085   -7.5524 C   0  0  0  0  0  0  0  0  0  0  0  0
   -3.5086    1.3380   -7.1467 C   0  0  0  0  0  0  0  0  0  0  0  0
   -3.1790    1.6361   -5.8274 C   0  0  0  0  0  0  0  0  0  0  0  0
    0.7997   -0.0039   -3.5938 C   0  0  0  0  0  0  0  0  0  0  0  0
    2.0850    0.0051   -4.1537 C   0  0  0  0  0  0  0  0  0  0  0  0
    3.2246    0.0103   -3.3528 C   0  0  0  0  0  0  0  0  0  0  0  0
    3.1219    0.0073   -1.9541 C   0  0  0  0  0  0  0  0  0  0  0  0
   -1.7789    1.1460    0.8901 H   0  0  0  0  0  0  0  0  0  0  0  0
   -3.6658    1.1808    2.4969 H   0  0  0  0  0  0  0  0  0  0  0  0
   -5.8178    0.0836    1.9202 H   0  0  0  0  0  0  0  0  0  0  0  0
   -6.0826   -1.0588   -0.2663 H   0  0  0  0  0  0  0  0  0  0  0  0
   -4.2001   -1.1072   -1.8807 H   0  0  0  0  0  0  0  0  0  0  0  0
   -2.9051   -1.5459   -4.6077 H   0  0  0  0  0  0  0  0  0  0  0  0
   -3.4996   -2.0622   -6.9649 H   0  0  0  0  0  0  0  0  0  0  0  0
   -3.8840   -0.2227   -8.5846 H   0  0  0  0  0  0  0  0  0  0  0  0
   -3.6791    2.1425   -7.8601 H   0  0  0  0  0  0  0  0  0  0  0  0
   -3.0904    2.6747   -5.4978 H   0  0  0  0  0  0  0  0  0  0  0  0
   -0.0855   -0.0124   -4.2268 H   0  0  0  0  0  0  0  0  0  0  0  0
    2.1904    0.0078   -5.2392 H   0  0  0  0  0  0  0  0  0  0  0  0
    4.2102    0.0160   -3.8156 H   0  0  0  0  0  0  0  0  0  0  0  0
    4.0119    0.0096   -1.3251 H   0  0  0  0  0  0  0  0  0  0  0  0
  2  1  1  0  0  0  0
  2  3  2  0  0  0  0
  4  2  1  0  0  0  0
  5  4  2  0  0  0  0
  5  6  1  0  0  0  0
  6  1  1  0  0  0  0
  7  6  2  0  0  0  0
  7  8  1  0  0  0  0
  8  9  1  0  0  0  0
  9 27  1  0  0  0  0
  9 10  2  0  0  0  0
 10 28  1  0  0  0  0
 11 10  1  0  0  0  0
 11 29  1  0  0  0  0
 12 11  2  0  0  0  0
 13  8  2  0  0  0  0
 13 12  1  0  0  0  0
 14  7  1  0  0  0  0
 15 16  2  0  0  0  0
 15 14  1  0  0  0  0
 17 15  1  0  0  0  0
 18 17  1  0  0  0  0
 18 32  1  0  0  0  0
 19 18  2  0  0  0  0
 20 21  2  0  0  0  0
 20 19  1  0  0  0  0
 21 22  1  0  0  0  0
 22 36  1  0  0  0  0
 22 17  2  0  0  0  0
 23  5  1  0  0  0  0
 24 23  2  0  0  0  0
 24 25  1  0  0  0  0
 25 26  2  0  0  0  0
 26  4  1  0  0  0  0
 26 40  1  0  0  0  0
 30 12  1  0  0  0  0
 31 13  1  0  0  0  0
 33 19  1  0  0  0  0
 34 20  1  0  0  0  0
 35 21  1  0  0  0  0
 37 23  1  0  0  0  0
 38 24  1  0  0  0  0
 39 25  1  0  0  0  0
M  END
$$$$
