40
rmsd124.gzmat
O          0.00000        0.00000        0.00000
C          1.41610        0.00000        0.00000
O          1.98170        0.00000        1.04870
C          1.85710        0.00170       -1.40540
C          0.69710       -0.00250       -2.21590
C         -0.45160        0.00180       -1.31760
C         -1.77730       -0.00730       -1.55480
C         -2.87170        0.01600       -0.59860
C         -2.72210        0.65770        0.63500
C         -3.78270        0.67910        1.53770
C         -4.98980        0.06310        1.21430
C         -5.13930       -0.57890       -0.01520
C         -4.08460       -0.60370       -0.92180
O         -2.14040       -0.15500       -2.88240
C         -2.62390        0.95920       -3.53430
O         -2.70080        2.03020       -3.00300
C         -2.96350        0.59600       -4.91960
C         -3.07560       -0.73610       -5.32160
C         -3.40700       -1.02650       -6.64290
C         -3.62270        0.00850       -7.55240
C         -3.50860        1.33800       -7.14670
C         -3.17900        1.63610       -5.82740
C          0.79970       -0.00390       -3.59380
C          2.08500        0.00510       -4.15370
C          3.22460        0.01030       -3.35280
C          3.12190        0.00730       -1.95410
H         -1.77890        1.14600        0.89010
H         -3.66580        1.18080        2.49690
H         -5.81780        0.08360        1.92020
H         -6.08260       -1.05880       -0.26630
H         -4.20010       -1.10720       -1.88070
H         -2.90510       -1.54590       -4.60770
H         -3.49960       -2.06220       -6.96490
H         -3.88400       -0.22270       -8.58460
H         -3.67910        2.14250       -7.86010
H         -3.09040        2.67470       -5.49780
H         -0.08550       -0.01240       -4.22680
H          2.19040        0.00780       -5.23920
H          4.21020        0.01600       -3.81560
H          4.01190        0.00960       -1.32510
