
     RDKit          3D

 40 43  0  0  0  0  0  0  0  0999 V2000
    0.0943   -0.0993    0.0170 O   0  0  0  0  0  0  0  0  0  0  0  0
    1.4894   -0.1328   -0.0072 C   0  0  0  0  0  0  0  0  0  0  0  0
    2.1372   -0.2025    0.9956 O   0  0  0  0  0  0  0  0  0  0  0  0
    1.8730   -0.0652   -1.4292 C   0  0  0  0  0  0  0  0  0  0  0  0
    0.7013    0.0054   -2.2022 C   0  0  0  0  0  0  0  0  0  0  0  0
   -0.4166   -0.0280   -1.2605 C   0  0  0  0  0  0  0  0  0  0  0  0
   -1.7528    0.0068   -1.4918 C   0  0  0  0  0  0  0  0  0  0  0  0
   -2.8640   -0.0226   -0.5379 C   0  0  0  0  0  0  0  0  0  0  0  0
   -2.6902   -0.3483    0.8241 C   0  0  0  0  0  0  0  0  0  0  0  0
   -3.7831   -0.3683    1.6882 C   0  0  0  0  0  0  0  0  0  0  0  0
   -5.0663   -0.0637    1.2236 C   0  0  0  0  0  0  0  0  0  0  0  0
   -5.2496    0.2637   -0.1224 C   0  0  0  0  0  0  0  0  0  0  0  0
   -4.1630    0.2842   -0.9940 C   0  0  0  0  0  0  0  0  0  0  0  0
   -2.1048    0.1491   -2.8305 O   0  0  0  0  0  0  0  0  0  0  0  0
   -2.5126   -0.9737   -3.5076 C   0  0  0  0  0  0  0  0  0  0  0  0
   -2.5223   -2.0672   -3.0107 O   0  0  0  0  0  0  0  0  0  0  0  0
   -2.9084   -0.6506   -4.9038 C   0  0  0  0  0  0  0  0  0  0  0  0
   -3.3062   -1.7125   -5.7310 C   0  0  0  0  0  0  0  0  0  0  0  0
   -3.6818   -1.4653   -7.0501 C   0  0  0  0  0  0  0  0  0  0  0  0
   -3.6626   -0.1579   -7.5490 C   0  0  0  0  0  0  0  0  0  0  0  0
   -3.2680    0.9026   -6.7273 C   0  0  0  0  0  0  0  0  0  0  0  0
   -2.8911    0.6608   -5.4056 C   0  0  0  0  0  0  0  0  0  0  0  0
    0.7953    0.0927   -3.5985 C   0  0  0  0  0  0  0  0  0  0  0  0
    2.0696    0.0965   -4.1704 C   0  0  0  0  0  0  0  0  0  0  0  0
    3.2348    0.0195   -3.3872 C   0  0  0  0  0  0  0  0  0  0  0  0
    3.1452   -0.0602   -1.9966 C   0  0  0  0  0  0  0  0  0  0  0  0
   -1.6989   -0.5898    1.1997 H   0  0  0  0  0  0  0  0  0  0  0  0
   -3.6292   -0.6288    2.7379 H   0  0  0  0  0  0  0  0  0  0  0  0
   -5.9185   -0.0821    1.9070 H   0  0  0  0  0  0  0  0  0  0  0  0
   -6.2465    0.5066   -0.4977 H   0  0  0  0  0  0  0  0  0  0  0  0
   -4.3176    0.5523   -2.0392 H   0  0  0  0  0  0  0  0  0  0  0  0
   -3.3121   -2.7220   -5.3168 H   0  0  0  0  0  0  0  0  0  0  0  0
   -3.9910   -2.2922   -7.6932 H   0  0  0  0  0  0  0  0  0  0  0  0
   -3.9575    0.0350   -8.5833 H   0  0  0  0  0  0  0  0  0  0  0  0
   -3.2557    1.9225   -7.1180 H   0  0  0  0  0  0  0  0  0  0  0  0
   -2.5847    1.4806   -4.7556 H   0  0  0  0  0  0  0  0  0  0  0  0
   -0.0896    0.1644   -4.2271 H   0  0  0  0  0  0  0  0  0  0  0  0
    2.1615    0.1626   -5.2572 H   0  0  0  0  0  0  0  0  0  0  0  0
    4.2128    0.0243   -3.8730 H   0  0  0  0  0  0  0  0  0  0  0  0
    4.0316   -0.1171   -1.3616 H   0  0  0  0  0  0  0  0  0  0  0  0
  1  2  1  0
  1  6  1  0
  2  3  2  0
  2  4  1  0
  4  5  2  0
  4 26  1  0
  5  6  1  0
  5 23  1  0
  6  7  2  0
  7  8  1  0
  7 14  1  0
  8  9  2  0
  8 13  1  0
  9 10  1  0
  9 27  1  0
 10 11  2  0
 10 28  1  0
 11 12  1  0
 11 29  1  0
 12 13  2  0
 12 30  1  0
 13 31  1  0
 14 15  1  0
 15 16  2  0
 15 17  1  0
 17 18  2  0
 17 22  1  0
 18 19  1  0
 18 32  1  0
 19 20  2  0
 19 33  1  0
 20 21  1  0
 20 34  1  0
 21 22  2  0
 21 35  1  0
 22 36  1  0
 23 24  2  0
 23 37  1  0
 24 25  1  0
 24 38  1  0
 25 26  2  0
 25 39  1  0
 26 40  1  0
M  END

