rmsd120.gzmat
 OpenBabel08211713383D

 40 43  0  0  0  0  0  0  0  0999 V2000
    0.0000    0.0000    0.0000 O   0  0  0  0  0  0  0  0  0  0  0  0
    1.4163    0.0000    0.0000 C   0  0  0  0  0  0  0  0  0  0  0  0
    1.9828    0.0000    1.0482 O   0  0  0  0  0  0  0  0  0  0  0  0
    1.8571   -0.0039   -1.4056 C   0  0  0  0  0  0  0  0  0  0  0  0
    0.6974   -0.0137   -2.2161 C   0  0  0  0  0  0  0  0  0  0  0  0
   -0.4513   -0.0287   -1.3172 C   0  0  0  0  0  0  0  0  0  0  0  0
   -1.7761   -0.0522   -1.5547 C   0  0  0  0  0  0  0  0  0  0  0  0
   -2.8722   -0.0491   -0.5997 C   0  0  0  0  0  0  0  0  0  0  0  0
   -4.0786    0.5736   -0.9422 C   0  0  0  0  0  0  0  0  0  0  0  0
   -5.1365    0.5811   -0.0390 C   0  0  0  0  0  0  0  0  0  0  0  0
   -4.9953   -0.0297    1.2072 C   0  0  0  0  0  0  0  0  0  0  0  0
   -3.7939   -0.6466    1.5506 C   0  0  0  0  0  0  0  0  0  0  0  0
   -2.7304   -0.6586    0.6509 C   0  0  0  0  0  0  0  0  0  0  0  0
   -2.1527    0.0321   -2.8855 O   0  0  0  0  0  0  0  0  0  0  0  0
   -2.5118   -1.1464   -3.5053 C   0  0  0  0  0  0  0  0  0  0  0  0
   -2.4489   -2.2058   -2.9478 O   0  0  0  0  0  0  0  0  0  0  0  0
   -2.9220   -0.8656   -4.8903 C   0  0  0  0  0  0  0  0  0  0  0  0
   -3.1675   -1.9589   -5.7256 C   0  0  0  0  0  0  0  0  0  0  0  0
   -3.5592   -1.7420   -7.0438 C   0  0  0  0  0  0  0  0  0  0  0  0
   -3.7070   -0.4395   -7.5206 C   0  0  0  0  0  0  0  0  0  0  0  0
   -3.4615    0.6488   -6.6838 C   0  0  0  0  0  0  0  0  0  0  0  0
   -3.0667    0.4395   -5.3646 C   0  0  0  0  0  0  0  0  0  0  0  0
    0.8008   -0.0002   -3.5940 C   0  0  0  0  0  0  0  0  0  0  0  0
    2.0863    0.0045   -4.1534 C   0  0  0  0  0  0  0  0  0  0  0  0
    3.2258    0.0025   -3.3522 C   0  0  0  0  0  0  0  0  0  0  0  0
    3.1220    0.0040   -1.9541 C   0  0  0  0  0  0  0  0  0  0  0  0
   -4.1831    1.0582   -1.9122 H   0  0  0  0  0  0  0  0  0  0  0  0
   -6.0737    1.0651   -0.3044 H   0  0  0  0  0  0  0  0  0  0  0  0
   -5.8243   -0.0228    1.9121 H   0  0  0  0  0  0  0  0  0  0  0  0
   -3.6837   -1.1210    2.5241 H   0  0  0  0  0  0  0  0  0  0  0  0
   -1.7908   -1.1445    0.9223 H   0  0  0  0  0  0  0  0  0  0  0  0
   -3.0522   -2.9757   -5.3398 H   0  0  0  0  0  0  0  0  0  0  0  0
   -3.7513   -2.5883   -7.7010 H   0  0  0  0  0  0  0  0  0  0  0  0
   -4.0163   -0.2717   -8.5518 H   0  0  0  0  0  0  0  0  0  0  0  0
   -3.5791    1.6629   -7.0615 H   0  0  0  0  0  0  0  0  0  0  0  0
   -2.8731    1.2917   -4.7086 H   0  0  0  0  0  0  0  0  0  0  0  0
   -0.0828    0.0126   -4.2291 H   0  0  0  0  0  0  0  0  0  0  0  0
    2.1911    0.0116   -5.2389 H   0  0  0  0  0  0  0  0  0  0  0  0
    4.2116    0.0017   -3.8146 H   0  0  0  0  0  0  0  0  0  0  0  0
    4.0117    0.0116   -1.3246 H   0  0  0  0  0  0  0  0  0  0  0  0
  2  1  1  0  0  0  0
  2  3  2  0  0  0  0
  4  2  1  0  0  0  0
  5  4  2  0  0  0  0
  5  6  1  0  0  0  0
  6  1  1  0  0  0  0
  7  6  2  0  0  0  0
  7  8  1  0  0  0  0
  8 13  1  0  0  0  0
  9  8  2  0  0  0  0
  9 10  1  0  0  0  0
 10 11  2  0  0  0  0
 11 12  1  0  0  0  0
 11 29  1  0  0  0  0
 12 30  1  0  0  0  0
 13 31  1  0  0  0  0
 13 12  2  0  0  0  0
 14  7  1  0  0  0  0
 15 16  2  0  0  0  0
 15 14  1  0  0  0  0
 17 15  1  0  0  0  0
 18 32  1  0  0  0  0
 18 17  2  0  0  0  0
 19 18  1  0  0  0  0
 20 19  2  0  0  0  0
 20 21  1  0  0  0  0
 21 22  2  0  0  0  0
 22 17  1  0  0  0  0
 22 36  1  0  0  0  0
 23  5  1  0  0  0  0
 24 23  2  0  0  0  0
 24 25  1  0  0  0  0
 25 26  2  0  0  0  0
 26  4  1  0  0  0  0
 26 40  1  0  0  0  0
 27  9  1  0  0  0  0
 28 10  1  0  0  0  0
 33 19  1  0  0  0  0
 34 20  1  0  0  0  0
 35 21  1  0  0  0  0
 37 23  1  0  0  0  0
 38 24  1  0  0  0  0
 39 25  1  0  0  0  0
M  END
$$$$
