rmsd140.gzmat
 OpenBabel08211713383D

 40 43  0  0  0  0  0  0  0  0999 V2000
    0.0000    0.0000    0.0000 O   0  0  0  0  0  0  0  0  0  0  0  0
    1.4161    0.0000    0.0000 C   0  0  0  0  0  0  0  0  0  0  0  0
    1.9823    0.0000    1.0484 O   0  0  0  0  0  0  0  0  0  0  0  0
    1.8571   -0.0061   -1.4056 C   0  0  0  0  0  0  0  0  0  0  0  0
    0.6970   -0.0219   -2.2158 C   0  0  0  0  0  0  0  0  0  0  0  0
   -0.4515   -0.0168   -1.3177 C   0  0  0  0  0  0  0  0  0  0  0  0
   -1.7768    0.0088   -1.5548 C   0  0  0  0  0  0  0  0  0  0  0  0
   -2.8644    0.0530   -0.5918 C   0  0  0  0  0  0  0  0  0  0  0  0
   -4.0447    0.7312   -0.9194 C   0  0  0  0  0  0  0  0  0  0  0  0
   -5.0817    0.8035    0.0049 C   0  0  0  0  0  0  0  0  0  0  0  0
   -4.9470    0.1991    1.2549 C   0  0  0  0  0  0  0  0  0  0  0  0
   -3.7776   -0.4865    1.5772 C   0  0  0  0  0  0  0  0  0  0  0  0
   -2.7347   -0.5631    0.6570 C   0  0  0  0  0  0  0  0  0  0  0  0
   -2.1398    0.1250   -2.8855 O   0  0  0  0  0  0  0  0  0  0  0  0
   -2.6592   -0.9952   -3.4987 C   0  0  0  0  0  0  0  0  0  0  0  0
   -2.7847   -2.0390   -2.9232 O   0  0  0  0  0  0  0  0  0  0  0  0
   -2.9726   -0.6807   -4.9022 C   0  0  0  0  0  0  0  0  0  0  0  0
   -3.4382   -1.7234   -5.7081 C   0  0  0  0  0  0  0  0  0  0  0  0
   -3.7368   -1.4781   -7.0455 C   0  0  0  0  0  0  0  0  0  0  0  0
   -3.5761   -0.1960   -7.5703 C   0  0  0  0  0  0  0  0  0  0  0  0
   -3.1138    0.8424   -6.7622 C   0  0  0  0  0  0  0  0  0  0  0  0
   -2.8110    0.6037   -5.4237 C   0  0  0  0  0  0  0  0  0  0  0  0
    0.7987   -0.0262   -3.5938 C   0  0  0  0  0  0  0  0  0  0  0  0
    2.0835   -0.0140   -4.1542 C   0  0  0  0  0  0  0  0  0  0  0  0
    3.2234    0.0038   -3.3537 C   0  0  0  0  0  0  0  0  0  0  0  0
    3.1216    0.0069   -1.9550 C   0  0  0  0  0  0  0  0  0  0  0  0
   -4.1451    1.2059   -1.8942 H   0  0  0  0  0  0  0  0  0  0  0  0
   -5.9975    1.3336   -0.2468 H   0  0  0  0  0  0  0  0  0  0  0  0
   -5.7573    0.2629    1.9785 H   0  0  0  0  0  0  0  0  0  0  0  0
   -3.6759   -0.9649    2.5501 H   0  0  0  0  0  0  0  0  0  0  0  0
   -1.8211   -1.1056    0.9103 H   0  0  0  0  0  0  0  0  0  0  0  0
   -3.5666   -2.7235   -5.2844 H   0  0  0  0  0  0  0  0  0  0  0  0
   -4.0958   -2.2864   -7.6805 H   0  0  0  0  0  0  0  0  0  0  0  0
   -3.8155   -0.0043   -8.6159 H   0  0  0  0  0  0  0  0  0  0  0  0
   -2.9905    1.8410   -7.1773 H   0  0  0  0  0  0  0  0  0  0  0  0
   -2.4534    1.4190   -4.7897 H   0  0  0  0  0  0  0  0  0  0  0  0
   -0.0865   -0.0348   -4.2271 H   0  0  0  0  0  0  0  0  0  0  0  0
    2.1875   -0.0174   -5.2398 H   0  0  0  0  0  0  0  0  0  0  0  0
    4.2087    0.0161   -3.8169 H   0  0  0  0  0  0  0  0  0  0  0  0
    4.0123    0.0199   -1.3270 H   0  0  0  0  0  0  0  0  0  0  0  0
  2  1  1  0  0  0  0
  2  3  2  0  0  0  0
  4  2  1  0  0  0  0
  5  4  2  0  0  0  0
  5  6  1  0  0  0  0
  6  1  1  0  0  0  0
  7  6  2  0  0  0  0
  7  8  1  0  0  0  0
  8 13  1  0  0  0  0
  9  8  2  0  0  0  0
  9 10  1  0  0  0  0
 10 11  2  0  0  0  0
 11 12  1  0  0  0  0
 11 29  1  0  0  0  0
 12 30  1  0  0  0  0
 13 31  1  0  0  0  0
 13 12  2  0  0  0  0
 14  7  1  0  0  0  0
 15 16  2  0  0  0  0
 15 14  1  0  0  0  0
 17 15  1  0  0  0  0
 18 32  1  0  0  0  0
 18 17  2  0  0  0  0
 19 18  1  0  0  0  0
 20 19  2  0  0  0  0
 20 21  1  0  0  0  0
 21 22  2  0  0  0  0
 22 17  1  0  0  0  0
 22 36  1  0  0  0  0
 23  5  1  0  0  0  0
 24 23  2  0  0  0  0
 24 25  1  0  0  0  0
 25 26  2  0  0  0  0
 26  4  1  0  0  0  0
 26 40  1  0  0  0  0
 27  9  1  0  0  0  0
 28 10  1  0  0  0  0
 33 19  1  0  0  0  0
 34 20  1  0  0  0  0
 35 21  1  0  0  0  0
 37 23  1  0  0  0  0
 38 24  1  0  0  0  0
 39 25  1  0  0  0  0
M  END
$$$$
