40
rmsd117.gzmat
O          0.00000        0.00000        0.00000
C          1.41610        0.00000        0.00000
O          1.98220        0.00000        1.04820
C          1.85680       -0.00270       -1.40550
C          0.69710       -0.01490       -2.21610
C         -0.45190        0.00180       -1.31700
C         -1.77750        0.01040       -1.55340
C         -2.87380        0.05640       -0.60000
C         -2.71890        0.69640        0.63360
C         -3.78450        0.74040        1.52970
C         -5.00280        0.15080        1.19920
C         -5.15800       -0.49010       -0.03010
C         -4.09790       -0.53920       -0.92930
O         -2.15240       -0.14040       -2.87830
C         -2.51280        1.00020       -3.56270
O         -2.46630        2.08770       -3.06090
C         -2.90490        0.64290       -4.93560
C         -3.03510       -0.68600       -5.34300
C         -3.41450       -0.96600       -6.65380
C         -3.66130        0.07590       -7.54730
C         -3.53150        1.40220       -7.13590
C         -3.15270        1.68960       -5.82760
C          0.80150       -0.03530       -3.59390
C          2.08700       -0.02550       -4.15330
C          3.22600       -0.00570       -3.35200
C          3.12190        0.00260       -1.95350
H         -1.76840        1.16710        0.89450
H         -3.66280        1.23890        2.48960
H         -5.83490        0.19060        1.89950
H         -6.10990       -0.95020       -0.28660
H         -4.21620       -1.04210       -1.88820
H         -2.84490       -1.50230       -4.64150
H         -3.52140       -1.99910       -6.97940
H         -3.95930       -0.14690       -8.57150
H         -3.72910        2.21230       -7.83560
H         -3.05150        2.72600       -5.49310
H         -0.08130       -0.06040       -4.22970
H          2.19120       -0.03100       -5.23880
H          4.21200        0.00510       -3.81390
H          4.01120        0.01520       -1.32350
