rmsd100.gzmat
 OpenBabel08211713383D

 40 43  0  0  0  0  0  0  0  0999 V2000
    0.0000    0.0000    0.0000 O   0  0  0  0  0  0  0  0  0  0  0  0
    1.4154    0.0000    0.0000 C   0  0  0  0  0  0  0  0  0  0  0  0
    1.9817    0.0000    1.0483 O   0  0  0  0  0  0  0  0  0  0  0  0
    1.8562    0.0010   -1.4058 C   0  0  0  0  0  0  0  0  0  0  0  0
    0.6963    0.0164   -2.2165 C   0  0  0  0  0  0  0  0  0  0  0  0
   -0.4525    0.0136   -1.3178 C   0  0  0  0  0  0  0  0  0  0  0  0
   -1.7792    0.0431   -1.5466 C   0  0  0  0  0  0  0  0  0  0  0  0
   -2.8654    0.0212   -0.5800 C   0  0  0  0  0  0  0  0  0  0  0  0
   -4.0613    0.6889   -0.8702 C   0  0  0  0  0  0  0  0  0  0  0  0
   -5.1072    0.6678    0.0467 C   0  0  0  0  0  0  0  0  0  0  0  0
   -4.9665   -0.0218    1.2511 C   0  0  0  0  0  0  0  0  0  0  0  0
   -3.7765   -0.6853    1.5418 C   0  0  0  0  0  0  0  0  0  0  0  0
   -2.7240   -0.6654    0.6297 C   0  0  0  0  0  0  0  0  0  0  0  0
   -2.1560    0.2154   -2.8673 O   0  0  0  0  0  0  0  0  0  0  0  0
   -2.6558   -0.8865   -3.5282 C   0  0  0  0  0  0  0  0  0  0  0  0
   -2.7115   -1.9677   -3.0138 O   0  0  0  0  0  0  0  0  0  0  0  0
   -3.0515   -0.5017   -4.8924 C   0  0  0  0  0  0  0  0  0  0  0  0
   -3.6467   -1.4812   -5.6920 C   0  0  0  0  0  0  0  0  0  0  0  0
   -4.0339   -1.1659   -6.9916 C   0  0  0  0  0  0  0  0  0  0  0  0
   -3.8273    0.1216   -7.4861 C   0  0  0  0  0  0  0  0  0  0  0  0
   -3.2345    1.0969   -6.6845 C   0  0  0  0  0  0  0  0  0  0  0  0
   -2.8445    0.7887   -5.3834 C   0  0  0  0  0  0  0  0  0  0  0  0
    0.8015    0.0295   -3.5943 C   0  0  0  0  0  0  0  0  0  0  0  0
    2.0874    0.0203   -4.1530 C   0  0  0  0  0  0  0  0  0  0  0  0
    3.2264    0.0011   -3.3516 C   0  0  0  0  0  0  0  0  0  0  0  0
    3.1216   -0.0079   -1.9531 C   0  0  0  0  0  0  0  0  0  0  0  0
   -4.1686    1.2275   -1.8110 H   0  0  0  0  0  0  0  0  0  0  0  0
   -6.0353    1.1904   -0.1742 H   0  0  0  0  0  0  0  0  0  0  0  0
   -5.7876   -0.0414    1.9647 H   0  0  0  0  0  0  0  0  0  0  0  0
   -3.6677   -1.2212    2.4832 H   0  0  0  0  0  0  0  0  0  0  0  0
   -1.7941   -1.1901    0.8590 H   0  0  0  0  0  0  0  0  0  0  0  0
   -3.8053   -2.4876   -5.2938 H   0  0  0  0  0  0  0  0  0  0  0  0
   -4.4992   -1.9233   -7.6200 H   0  0  0  0  0  0  0  0  0  0  0  0
   -4.1321    0.3668   -8.5034 H   0  0  0  0  0  0  0  0  0  0  0  0
   -3.0783    2.1006   -7.0754 H   0  0  0  0  0  0  0  0  0  0  0  0
   -2.3821    1.5537   -4.7546 H   0  0  0  0  0  0  0  0  0  0  0  0
   -0.0815    0.0479   -4.2297 H   0  0  0  0  0  0  0  0  0  0  0  0
    2.1930    0.0282   -5.2384 H   0  0  0  0  0  0  0  0  0  0  0  0
    4.2129   -0.0068   -3.8129 H   0  0  0  0  0  0  0  0  0  0  0  0
    4.0108   -0.0213   -1.3231 H   0  0  0  0  0  0  0  0  0  0  0  0
  2  1  1  0  0  0  0
  2  3  2  0  0  0  0
  4  2  1  0  0  0  0
  5  4  2  0  0  0  0
  5  6  1  0  0  0  0
  6  1  1  0  0  0  0
  7  6  2  0  0  0  0
  7  8  1  0  0  0  0
  8 13  1  0  0  0  0
  9  8  2  0  0  0  0
  9 10  1  0  0  0  0
 10 11  2  0  0  0  0
 11 12  1  0  0  0  0
 11 29  1  0  0  0  0
 12 30  1  0  0  0  0
 13 31  1  0  0  0  0
 13 12  2  0  0  0  0
 14  7  1  0  0  0  0
 15 16  2  0  0  0  0
 15 14  1  0  0  0  0
 17 15  1  0  0  0  0
 18 32  1  0  0  0  0
 18 17  2  0  0  0  0
 19 18  1  0  0  0  0
 20 19  2  0  0  0  0
 20 21  1  0  0  0  0
 21 22  2  0  0  0  0
 22 17  1  0  0  0  0
 22 36  1  0  0  0  0
 23  5  1  0  0  0  0
 24 23  2  0  0  0  0
 24 25  1  0  0  0  0
 25 26  2  0  0  0  0
 26  4  1  0  0  0  0
 26 40  1  0  0  0  0
 27  9  1  0  0  0  0
 28 10  1  0  0  0  0
 33 19  1  0  0  0  0
 34 20  1  0  0  0  0
 35 21  1  0  0  0  0
 37 23  1  0  0  0  0
 38 24  1  0  0  0  0
 39 25  1  0  0  0  0
M  END
$$$$
