
     RDKit          3D

 35 36  0  0  0  0  0  0  0  0999 V2000
   -0.0382   -0.0652   -0.0316 C   0  0  0  0  0  0  0  0  0  0  0  0
    1.3608   -0.1306    0.0409 C   0  0  0  0  0  0  0  0  0  0  0  0
    2.0008   -0.1861    1.2801 C   0  0  0  0  0  0  0  0  0  0  0  0
    1.2640   -0.1840    2.4753 C   0  0  0  0  0  0  0  0  0  0  0  0
   -0.1366   -0.1333    2.3927 C   0  0  0  0  0  0  0  0  0  0  0  0
   -0.7825   -0.0768    1.1574 C   0  0  0  0  0  0  0  0  0  0  0  0
   -1.2806   -0.1242    4.1769 I   0  0  0  0  0  0  0  0  0  0  0  0
    1.8901   -0.2612    3.6828 O   0  0  0  0  0  0  0  0  0  0  0  0
    2.2788    0.9038    4.3150 C   0  0  0  0  0  0  0  0  0  0  0  0
    2.9875    0.7472    5.5084 C   0  0  0  0  0  0  0  0  0  0  0  0
    3.4152    1.8711    6.2112 C   0  0  0  0  0  0  0  0  0  0  0  0
    3.1449    3.1675    5.7349 C   0  0  0  0  0  0  0  0  0  0  0  0
    2.4325    3.2953    4.5363 C   0  0  0  0  0  0  0  0  0  0  0  0
    1.9963    2.1774    3.8222 C   0  0  0  0  0  0  0  0  0  0  0  0
    3.5797    4.2354    6.4464 O   0  0  0  0  0  0  0  0  0  0  0  0
    4.4908    1.6286    8.0185 I   0  0  0  0  0  0  0  0  0  0  0  0
    4.1169   -0.2650    1.3670 I   0  0  0  0  0  0  0  0  0  0  0  0
   -0.7287    0.1182   -1.3607 C   0  0  0  0  0  0  0  0  0  0  0  0
   -0.8494    1.6158   -1.7442 C   0  0  1  0  0  0  0  0  0  0  0  0
   -1.4011    1.6562   -2.6981 H   0  0  0  0  0  0  0  0  0  0  0  0
   -1.7684    2.2877   -0.7175 C   0  0  0  0  0  0  0  0  0  0  0  0
   -2.9259    1.9932   -0.5482 O   0  0  0  0  0  0  0  0  0  0  0  0
   -1.1402    3.2249    0.0198 O   0  0  0  0  0  0  0  0  0  0  0  0
    0.4560    2.2132   -1.9343 N   0  0  0  0  0  0  0  0  0  0  0  0
    1.9493   -0.1202   -0.8773 H   0  0  0  0  0  0  0  0  0  0  0  0
   -1.8714   -0.0263    1.1146 H   0  0  0  0  0  0  0  0  0  0  0  0
    3.1955   -0.2599    5.8692 H   0  0  0  0  0  0  0  0  0  0  0  0
    2.2138    4.2966    4.1526 H   0  0  0  0  0  0  0  0  0  0  0  0
    1.4414    2.3051    2.8927 H   0  0  0  0  0  0  0  0  0  0  0  0
    3.3225    5.0496    5.9951 H   0  0  0  0  0  0  0  0  0  0  0  0
   -1.7393   -0.3121   -1.3281 H   0  0  0  0  0  0  0  0  0  0  0  0
   -0.1630   -0.3793   -2.1610 H   0  0  0  0  0  0  0  0  0  0  0  0
   -1.7926    3.5547    0.6626 H   0  0  0  0  0  0  0  0  0  0  0  0
    0.9333    2.3058   -1.0377 H   0  0  0  0  0  0  0  0  0  0  0  0
    0.3656    3.1588   -2.3031 H   0  0  0  0  0  0  0  0  0  0  0  0
  1  2  2  0
  1  6  1  0
  1 18  1  0
  2  3  1  0
  2 25  1  0
  3  4  2  0
  3 17  1  0
  4  5  1  0
  4  8  1  0
  5  6  2  0
  5  7  1  0
  6 26  1  0
  8  9  1  0
  9 10  2  0
  9 14  1  0
 10 11  1  0
 10 27  1  0
 11 12  2  0
 11 16  1  0
 12 13  1  0
 12 15  1  0
 13 14  2  0
 13 28  1  0
 14 29  1  0
 15 30  1  0
 18 19  1  0
 18 31  1  0
 18 32  1  0
 19 20  1  6
 19 21  1  0
 19 24  1  0
 21 22  2  0
 21 23  1  0
 23 33  1  0
 24 34  1  0
 24 35  1  0
M  END

