
     RDKit          3D

 35 36  0  0  0  0  0  0  0  0999 V2000
   -0.0329   -0.1105   -0.0289 C   0  0  0  0  0  0  0  0  0  0  0  0
    1.3694   -0.1008   -0.0508 C   0  0  0  0  0  0  0  0  0  0  0  0
    2.0915   -0.1376    1.1424 C   0  0  0  0  0  0  0  0  0  0  0  0
    1.4374   -0.1939    2.3840 C   0  0  0  0  0  0  0  0  0  0  0  0
    0.0344   -0.2229    2.3948 C   0  0  0  0  0  0  0  0  0  0  0  0
   -0.6932   -0.1821    1.2054 C   0  0  0  0  0  0  0  0  0  0  0  0
   -0.9894   -0.3021    4.2486 I   0  0  0  0  0  0  0  0  0  0  0  0
    2.1466   -0.2434    3.5464 O   0  0  0  0  0  0  0  0  0  0  0  0
    2.4966    0.9391    4.1705 C   0  0  0  0  0  0  0  0  0  0  0  0
    2.0937    2.1914    3.7031 C   0  0  0  0  0  0  0  0  0  0  0  0
    2.4889    3.3405    4.3918 C   0  0  0  0  0  0  0  0  0  0  0  0
    3.2825    3.2579    5.5469 C   0  0  0  0  0  0  0  0  0  0  0  0
    3.6701    1.9851    5.9938 C   0  0  0  0  0  0  0  0  0  0  0  0
    3.2851    0.8311    5.3161 C   0  0  0  0  0  0  0  0  0  0  0  0
    3.6446    4.3967    6.1860 O   0  0  0  0  0  0  0  0  0  0  0  0
    1.8770    5.2375    3.6772 I   0  0  0  0  0  0  0  0  0  0  0  0
    4.2096   -0.0890    1.0885 I   0  0  0  0  0  0  0  0  0  0  0  0
   -0.8204    0.0588   -1.3043 C   0  0  0  0  0  0  0  0  0  0  0  0
   -0.9641    1.5524   -1.7006 C   0  0  1  0  0  0  0  0  0  0  0  0
   -1.6163    1.5847   -2.5895 H   0  0  0  0  0  0  0  0  0  0  0  0
   -1.6854    2.3118   -0.5845 C   0  0  0  0  0  0  0  0  0  0  0  0
   -1.1933    3.1928    0.0734 O   0  0  0  0  0  0  0  0  0  0  0  0
   -2.9421    1.8635   -0.3855 O   0  0  0  0  0  0  0  0  0  0  0  0
    0.3199    2.1338   -2.0329 N   0  0  0  0  0  0  0  0  0  0  0  0
    1.8922   -0.0393   -1.0058 H   0  0  0  0  0  0  0  0  0  0  0  0
   -1.7834   -0.1879    1.2358 H   0  0  0  0  0  0  0  0  0  0  0  0
    1.4744    2.2796    2.8110 H   0  0  0  0  0  0  0  0  0  0  0  0
    4.2892    1.9032    6.8925 H   0  0  0  0  0  0  0  0  0  0  0  0
    3.5884   -0.1578    5.6614 H   0  0  0  0  0  0  0  0  0  0  0  0
    4.1853    4.1756    6.9552 H   0  0  0  0  0  0  0  0  0  0  0  0
   -1.8227   -0.3777   -1.1914 H   0  0  0  0  0  0  0  0  0  0  0  0
   -0.3156   -0.4464   -2.1398 H   0  0  0  0  0  0  0  0  0  0  0  0
   -3.3121    2.3759    0.3548 H   0  0  0  0  0  0  0  0  0  0  0  0
    0.8210    2.3503   -1.1693 H   0  0  0  0  0  0  0  0  0  0  0  0
    0.1833    3.0346   -2.4905 H   0  0  0  0  0  0  0  0  0  0  0  0
  1  2  2  0
  1  6  1  0
  1 18  1  0
  2  3  1  0
  2 25  1  0
  3  4  2  0
  3 17  1  0
  4  5  1  0
  4  8  1  0
  5  6  2  0
  5  7  1  0
  6 26  1  0
  8  9  1  0
  9 10  2  0
  9 14  1  0
 10 11  1  0
 10 27  1  0
 11 12  2  0
 11 16  1  0
 12 13  1  0
 12 15  1  0
 13 14  2  0
 13 28  1  0
 14 29  1  0
 15 30  1  0
 18 19  1  0
 18 31  1  0
 18 32  1  0
 19 20  1  6
 19 21  1  0
 19 24  1  0
 21 22  2  0
 21 23  1  0
 23 33  1  0
 24 34  1  0
 24 35  1  0
M  END

