rmsd176.gzmat
 OpenBabel08211713423D

 35 36  0  0  1  0  0  0  0  0999 V2000
    0.0000    0.0000    0.0000 C   0  0  0  0  0  0  0  0  0  0  0  0
    1.3959    0.0000    0.0000 C   0  0  0  0  0  0  0  0  0  0  0  0
    2.0886    0.0000    1.2071 C   0  0  0  0  0  0  0  0  0  0  0  0
    1.3841    0.0127    2.4141 C   0  0  0  0  0  0  0  0  0  0  0  0
   -0.0142   -0.0157    2.4131 C   0  0  0  0  0  0  0  0  0  0  0  0
   -0.7039   -0.0252    1.2064 C   0  0  0  0  0  0  0  0  0  0  0  0
   -1.1434   -0.0362    4.2005 I   0  0  0  0  0  0  0  0  0  0  0  0
    2.0846    0.1777    3.5927 O   0  0  0  0  0  0  0  0  0  0  0  0
    2.2294   -0.9618    4.3553 C   0  0  0  0  0  0  0  0  0  0  0  0
    2.1863   -2.2524    3.8359 C   0  0  0  0  0  0  0  0  0  0  0  0
    2.3894   -3.3270    4.6986 C   0  0  0  0  0  0  0  0  0  0  0  0
    2.6287   -3.0796    6.0543 C   0  0  0  0  0  0  0  0  0  0  0  0
    2.6757   -1.7723    6.5598 C   0  0  0  0  0  0  0  0  0  0  0  0
    2.4741   -0.6984    5.7070 C   0  0  0  0  0  0  0  0  0  0  0  0
    2.8107   -4.1452    6.8788 O   0  0  0  0  0  0  0  0  0  0  0  0
    2.3146   -5.2744    3.8850 I   0  0  0  0  0  0  0  0  0  0  0  0
    4.2020   -0.0273    1.1492 I   0  0  0  0  0  0  0  0  0  0  0  0
   -0.7526    0.0354   -1.2932 C   0  0  0  0  0  0  0  0  0  0  0  0
   -1.0395    1.4772   -1.7637 C   0  0  1  0  0  0  0  0  0  0  0  0
   -1.7046    1.4342   -2.6744 H   0  0  0  0  0  0  0  0  0  0  0  0
   -1.7813    2.2521   -0.6782 C   0  0  0  0  0  0  0  0  0  0  0  0
   -1.4740    3.3109   -0.2028 O   0  0  0  0  0  0  0  0  0  0  0  0
   -2.9111    1.6059   -0.3005 O   0  0  0  0  0  0  0  0  0  0  0  0
    0.2030    2.1540   -2.1481 N   0  0  0  0  0  0  0  0  0  0  0  0
    1.9231   -0.0028   -0.9587 H   0  0  0  0  0  0  0  0  0  0  0  0
   -1.7980   -0.0458    1.1751 H   0  0  0  0  0  0  0  0  0  0  0  0
    1.9974   -2.4031    2.7721 H   0  0  0  0  0  0  0  0  0  0  0  0
    2.8613   -1.6031    7.6178 H   0  0  0  0  0  0  0  0  0  0  0  0
    2.4965    0.3305    6.0666 H   0  0  0  0  0  0  0  0  0  0  0  0
    2.9912   -3.8647    7.8101 H   0  0  0  0  0  0  0  0  0  0  0  0
   -1.7164   -0.5136   -1.2036 H   0  0  0  0  0  0  0  0  0  0  0  0
   -0.1869   -0.4910   -2.0953 H   0  0  0  0  0  0  0  0  0  0  0  0
   -3.4325    2.0877    0.3902 H   0  0  0  0  0  0  0  0  0  0  0  0
    0.8769    2.1755   -1.3949 H   0  0  0  0  0  0  0  0  0  0  0  0
    0.0405    3.1024   -2.4578 H   0  0  0  0  0  0  0  0  0  0  0  0
  1  6  1  0  0  0  0
  2  1  2  0  0  0  0
  2  3  1  0  0  0  0
  3  4  2  0  0  0  0
  4  8  1  0  0  0  0
  5  4  1  0  0  0  0
  5  7  1  0  0  0  0
  6  5  2  0  0  0  0
  8  9  1  0  0  0  0
  9 14  1  0  0  0  0
 10  9  2  0  0  0  0
 10 11  1  0  0  0  0
 11 12  2  0  0  0  0
 12 13  1  0  0  0  0
 12 15  1  0  0  0  0
 13 28  1  0  0  0  0
 14 29  1  0  0  0  0
 14 13  2  0  0  0  0
 15 30  1  0  0  0  0
 16 11  1  0  0  0  0
 17  3  1  0  0  0  0
 18 31  1  0  0  0  0
 18  1  1  0  0  0  0
 19 20  1  6  0  0  0
 19 18  1  0  0  0  0
 19 21  1  0  0  0  0
 21 23  1  0  0  0  0
 21 22  2  0  0  0  0
 23 33  1  0  0  0  0
 24 19  1  0  0  0  0
 24 34  1  0  0  0  0
 25  2  1  0  0  0  0
 26  6  1  0  0  0  0
 27 10  1  0  0  0  0
 32 18  1  0  0  0  0
 35 24  1  0  0  0  0
M  END
$$$$
