35
rmsd178.gzmat
C          0.00000        0.00000        0.00000
C          1.39640        0.00000        0.00000
C          2.08840        0.00000        1.20680
C          1.38180        0.01420        2.41260
C         -0.01530       -0.04350        2.41210
C         -0.70510       -0.04930        1.20490
I         -1.13320       -0.11600        4.20420
O          2.05960        0.23280        3.59400
C          2.43370       -0.88850        4.29860
C          3.07250       -0.56750        5.50280
C          3.51690       -1.60110        6.31540
C          3.31610       -2.92860        5.90870
C          2.67440       -3.23020        4.70410
C          2.22420       -2.19950        3.88470
O          3.76520       -3.92020        6.72390
I          4.47250       -1.09540        8.13070
I          4.20130       -0.02080        1.15220
C         -0.74600        0.07650       -1.29510
C         -1.03500        1.53670       -1.70620
H         -1.65820        1.52950       -2.64680
C         -1.83880        2.24580       -0.61900
O         -1.58130        3.29320       -0.09130
O         -2.96100        1.55130       -0.31010
N          0.21190        2.24990       -1.99980
H          1.92310        0.00700       -0.95920
H         -1.79870       -0.08140        1.17280
H          3.19960        0.48690        5.76170
H          2.52650       -4.26560        4.40620
H          1.72220       -2.42390        2.94580
H          3.57610       -4.81730        6.35400
H         -1.70660       -0.48130       -1.23510
H         -0.17080       -0.41280       -2.11350
H         -3.52930        1.99230        0.37070
H          0.84710        2.25220       -1.21270
H          0.04730        3.20800       -2.27930
