rmsd231.gzmat
 OpenBabel08211713423D

 35 36  0  0  1  0  0  0  0  0999 V2000
    0.0000    0.0000    0.0000 C   0  0  0  0  0  0  0  0  0  0  0  0
    1.3963    0.0000    0.0000 C   0  0  0  0  0  0  0  0  0  0  0  0
    2.0878    0.0000    1.2070 C   0  0  0  0  0  0  0  0  0  0  0  0
    1.3814    0.0161    2.4127 C   0  0  0  0  0  0  0  0  0  0  0  0
   -0.0158   -0.0386    2.4122 C   0  0  0  0  0  0  0  0  0  0  0  0
   -0.7051   -0.0482    1.2047 C   0  0  0  0  0  0  0  0  0  0  0  0
   -1.1343   -0.0966    4.2050 I   0  0  0  0  0  0  0  0  0  0  0  0
    2.0615    0.2372    3.5926 O   0  0  0  0  0  0  0  0  0  0  0  0
    2.4306   -0.8816    4.3042 C   0  0  0  0  0  0  0  0  0  0  0  0
    3.1295   -0.5574    5.4737 C   0  0  0  0  0  0  0  0  0  0  0  0
    3.5663   -1.5878    6.2944 C   0  0  0  0  0  0  0  0  0  0  0  0
    3.2966   -2.9156    5.9310 C   0  0  0  0  0  0  0  0  0  0  0  0
    2.5947   -3.2203    4.7611 C   0  0  0  0  0  0  0  0  0  0  0  0
    2.1549   -2.1929    3.9324 C   0  0  0  0  0  0  0  0  0  0  0  0
    3.7414   -3.9045    6.7519 O   0  0  0  0  0  0  0  0  0  0  0  0
    4.6179   -1.0781    8.0550 I   0  0  0  0  0  0  0  0  0  0  0  0
    4.2007   -0.0195    1.1521 I   0  0  0  0  0  0  0  0  0  0  0  0
   -0.7434    0.0834   -1.2965 C   0  0  0  0  0  0  0  0  0  0  0  0
   -1.0413    1.5504   -1.6883 C   0  0  1  0  0  0  0  0  0  0  0  0
   -1.6689    1.5548   -2.6272 H   0  0  0  0  0  0  0  0  0  0  0  0
   -1.8885    2.1730   -0.5814 C   0  0  0  0  0  0  0  0  0  0  0  0
   -2.9146    1.7562   -0.1157 O   0  0  0  0  0  0  0  0  0  0  0  0
   -1.3405    3.3345   -0.1499 O   0  0  0  0  0  0  0  0  0  0  0  0
    0.2040    2.2637   -1.9860 N   0  0  0  0  0  0  0  0  0  0  0  0
    1.9232    0.0085   -0.9592 H   0  0  0  0  0  0  0  0  0  0  0  0
   -1.8007   -0.0785    1.1752 H   0  0  0  0  0  0  0  0  0  0  0  0
    3.3075    0.4967    5.7003 H   0  0  0  0  0  0  0  0  0  0  0  0
    2.3921   -4.2558    4.4972 H   0  0  0  0  0  0  0  0  0  0  0  0
    1.6101   -2.4202    3.0183 H   0  0  0  0  0  0  0  0  0  0  0  0
    3.4907   -4.8011    6.4192 H   0  0  0  0  0  0  0  0  0  0  0  0
   -1.6974   -0.4849   -1.2463 H   0  0  0  0  0  0  0  0  0  0  0  0
   -0.1620   -0.3886   -2.1205 H   0  0  0  0  0  0  0  0  0  0  0  0
   -1.8413    3.7653    0.5887 H   0  0  0  0  0  0  0  0  0  0  0  0
    0.8362    2.2705   -1.1966 H   0  0  0  0  0  0  0  0  0  0  0  0
    0.0337    3.2218   -2.2602 H   0  0  0  0  0  0  0  0  0  0  0  0
  1  6  1  0  0  0  0
  2  1  2  0  0  0  0
  2  3  1  0  0  0  0
  3  4  2  0  0  0  0
  4  8  1  0  0  0  0
  5  4  1  0  0  0  0
  5  7  1  0  0  0  0
  6  5  2  0  0  0  0
  8  9  1  0  0  0  0
  9 10  1  0  0  0  0
 10 27  1  0  0  0  0
 10 11  2  0  0  0  0
 11 16  1  0  0  0  0
 12 11  1  0  0  0  0
 12 15  1  0  0  0  0
 13 12  2  0  0  0  0
 14  9  2  0  0  0  0
 14 13  1  0  0  0  0
 17  3  1  0  0  0  0
 18 31  1  0  0  0  0
 18  1  1  0  0  0  0
 19 20  1  6  0  0  0
 19 18  1  0  0  0  0
 19 21  1  0  0  0  0
 21 23  1  0  0  0  0
 21 22  2  0  0  0  0
 23 33  1  0  0  0  0
 24 19  1  0  0  0  0
 24 34  1  0  0  0  0
 25  2  1  0  0  0  0
 26  6  1  0  0  0  0
 28 13  1  0  0  0  0
 29 14  1  0  0  0  0
 30 15  1  0  0  0  0
 32 18  1  0  0  0  0
 35 24  1  0  0  0  0
M  END
$$$$
