35
rmsd182.gzmat
C          0.00000        0.00000        0.00000
C          1.39650        0.00000        0.00000
C          2.08920        0.00000        1.20660
C          1.38340        0.00420        2.41300
C         -0.01460       -0.02020        2.41220
C         -0.70510       -0.01760        1.20540
I         -1.13120       -0.06930        4.20620
O          2.05970        0.15710        3.60740
C          2.46540       -1.00980        4.21680
C          3.21000       -0.77580        5.37960
C          3.68160       -1.86650        6.09790
C          3.40070       -3.16260        5.64140
C          2.65470       -3.37760        4.47900
C          2.17830       -2.29020        3.75440
O          3.87330       -4.21190        6.36580
I          4.80230       -1.49420        7.85030
I          4.20260       -0.01300        1.15130
C         -0.74950        0.01560       -1.29540
C         -1.02310        1.44690       -1.80340
H         -1.68190        1.38360       -2.71790
C         -1.76940        2.25450       -0.74490
O         -1.46280        3.32660       -0.29970
O         -2.90280        1.62140       -0.35550
N          0.22640        2.10570       -2.19790
H          1.92270       -0.00250       -0.95960
H         -1.79930       -0.02640        1.17430
H          3.39650        0.25730        5.68430
H          2.44590       -4.38980        4.14070
H          1.59560       -2.44860        2.84910
H          3.63120       -5.07960        5.95890
H         -1.71790       -0.52380       -1.19700
H         -0.18390       -0.53400       -2.08210
H         -3.42910        2.12580        0.31590
H          0.89270        2.15080       -1.43880
H          0.07030        3.04360       -2.54210
