35

C         -0.00920       -0.00770        0.01700
C          1.39150        0.03160        0.07660
C          2.04340        0.07620        1.30980
C          1.31850        0.08870        2.51250
C         -0.08300        0.04710        2.44300
C         -0.74040        0.00230        1.21320
I         -1.21310        0.05790        4.23590
O          1.95690        0.18130        3.71280
C          2.32450       -0.96800        4.38390
C          2.07480       -2.24870        3.88890
C          2.47860       -3.36220        4.62900
C          3.13210       -3.21580        5.86270
C          3.36970       -1.91540        6.33480
C          2.97230       -0.79660        5.60750
O          3.50780       -4.32160        6.54970
I          2.09730       -5.30400        3.87430
I          4.16100        0.12920        1.37620
C         -0.71980        0.01060       -1.31460
C         -0.94940        1.44690       -1.84580
H         -1.49680        1.34700       -2.79940
C         -1.86870        2.23010       -0.90410
O         -1.58420        3.27620       -0.37960
O         -3.05540        1.61540       -0.71250
N          0.30680        2.12120       -2.09540
H          1.96950        0.03730       -0.84810
H         -1.83020       -0.02090        1.18020
H          1.56940       -2.38360        2.93360
H          3.87810       -1.78350        7.29490
H          3.15700        0.21360        5.97420
H          3.94180       -4.05830        7.37130
H         -1.69110       -0.49610       -1.23070
H         -0.12100       -0.51870       -2.06910
H         -3.56930        2.17460       -0.10390
H          0.72670        2.38860       -1.20340
H          0.13500        3.00220       -2.57920
