35

C         -0.05200       -0.01290        0.00960
C          1.34870       -0.02890       -0.06240
C          2.11600       -0.00640        1.10330
C          1.50880        0.03800        2.36840
C          0.10590        0.05080        2.43090
C         -0.66790        0.02880        1.26980
I         -0.84680        0.11120        4.32370
O          2.26180        0.11020        3.50210
C          2.63720       -1.05000        4.14990
C          2.29760       -2.32180        3.68640
C          2.71740       -3.44750        4.39850
C          3.47610       -3.32220        5.57300
C          3.80270       -2.03050        6.01450
C          3.39030       -0.89970        5.31460
O          3.86390       -4.43940        6.23450
I          2.19900       -5.37550        3.69200
I          4.23140       -0.03640        0.96970
C         -0.87970        0.02680       -1.25310
C         -1.13230        1.46700       -1.75090
H         -1.71050        1.38060       -2.68920
C         -2.08520        2.18020       -0.78110
O         -3.05660        1.67170       -0.27620
O         -1.73930        3.46180       -0.55930
N          0.10960        2.15100       -2.05000
H          1.83790       -0.05080       -1.03690
H         -1.75590        0.05250        1.33710
H          1.70960       -2.44040        2.77720
H          4.39340       -1.91520        6.92850
H          3.64360        0.10390        5.65800
H          4.37340       -4.19010        7.01620
H         -1.85250       -0.45320       -1.08240
H         -0.36190       -0.51350       -2.05790
H         -2.40350        3.82870        0.05030
H          0.62600        2.33340       -1.18900
H         -0.07850        3.06380       -2.46130
