35

C         -0.03290       -0.11050       -0.02890
C          1.36940       -0.10080       -0.05080
C          2.09150       -0.13760        1.14240
C          1.43740       -0.19390        2.38400
C          0.03440       -0.22290        2.39480
C         -0.69320       -0.18210        1.20540
I         -0.98940       -0.30210        4.24860
O          2.14660       -0.24340        3.54640
C          2.49660        0.93910        4.17050
C          2.09370        2.19140        3.70310
C          2.48890        3.34050        4.39180
C          3.28250        3.25790        5.54690
C          3.67010        1.98510        5.99380
C          3.28510        0.83110        5.31610
O          3.64460        4.39670        6.18600
I          1.87700        5.23750        3.67720
I          4.20960       -0.08900        1.08850
C         -0.82040        0.05880       -1.30430
C         -0.96410        1.55240       -1.70060
H         -1.61630        1.58470       -2.58950
C         -1.68540        2.31180       -0.58450
O         -1.19330        3.19280        0.07340
O         -2.94210        1.86350       -0.38550
N          0.31990        2.13380       -2.03290
H          1.89220       -0.03930       -1.00580
H         -1.78340       -0.18790        1.23580
H          1.47440        2.27960        2.81100
H          4.28920        1.90320        6.89250
H          3.58840       -0.15780        5.66140
H          4.18530        4.17560        6.95520
H         -1.82270       -0.37770       -1.19140
H         -0.31560       -0.44640       -2.13980
H         -3.31210        2.37590        0.35480
H          0.82100        2.35030       -1.16930
H          0.18330        3.03460       -2.49050
