rmsd181.gzmat
 OpenBabel08211713423D

 35 36  0  0  1  0  0  0  0  0999 V2000
    0.0000    0.0000    0.0000 C   0  0  0  0  0  0  0  0  0  0  0  0
    1.3963    0.0000    0.0000 C   0  0  0  0  0  0  0  0  0  0  0  0
    2.0884    0.0000    1.2070 C   0  0  0  0  0  0  0  0  0  0  0  0
    1.3822    0.0167    2.4127 C   0  0  0  0  0  0  0  0  0  0  0  0
   -0.0155   -0.0167    2.4125 C   0  0  0  0  0  0  0  0  0  0  0  0
   -0.7055   -0.0261    1.2055 C   0  0  0  0  0  0  0  0  0  0  0  0
   -1.1361   -0.0611    4.2043 I   0  0  0  0  0  0  0  0  0  0  0  0
    2.0688    0.1841    3.5993 O   0  0  0  0  0  0  0  0  0  0  0  0
    2.3813   -0.9738    4.2752 C   0  0  0  0  0  0  0  0  0  0  0  0
    2.1191   -2.2562    3.8033 C   0  0  0  0  0  0  0  0  0  0  0  0
    2.4910   -3.3470    4.5866 C   0  0  0  0  0  0  0  0  0  0  0  0
    3.1159   -3.1238    5.8170 C   0  0  0  0  0  0  0  0  0  0  0  0
    3.3777   -1.8240    6.2756 C   0  0  0  0  0  0  0  0  0  0  0  0
    3.0091   -0.7345    5.5031 C   0  0  0  0  0  0  0  0  0  0  0  0
    3.4657   -4.2044    6.5648 O   0  0  0  0  0  0  0  0  0  0  0  0
    2.0733   -5.2796    3.8444 I   0  0  0  0  0  0  0  0  0  0  0  0
    4.2014   -0.0419    1.1526 I   0  0  0  0  0  0  0  0  0  0  0  0
   -0.7468    0.0296   -1.2968 C   0  0  0  0  0  0  0  0  0  0  0  0
   -1.0613    1.4675   -1.7599 C   0  0  1  0  0  0  0  0  0  0  0  0
   -1.6807    1.4142   -2.7025 H   0  0  0  0  0  0  0  0  0  0  0  0
   -1.8857    2.2068   -0.7093 C   0  0  0  0  0  0  0  0  0  0  0  0
   -1.6833    3.3059   -0.2706 O   0  0  0  0  0  0  0  0  0  0  0  0
   -2.9581    1.4755   -0.3196 O   0  0  0  0  0  0  0  0  0  0  0  0
    0.1729    2.1925   -2.0781 N   0  0  0  0  0  0  0  0  0  0  0  0
    1.9234   -0.0023   -0.9588 H   0  0  0  0  0  0  0  0  0  0  0  0
   -1.7994   -0.0508    1.1741 H   0  0  0  0  0  0  0  0  0  0  0  0
    1.6314   -2.3928    2.8374 H   0  0  0  0  0  0  0  0  0  0  0  0
    3.8679   -1.6731    7.2350 H   0  0  0  0  0  0  0  0  0  0  0  0
    3.1956    0.2887    5.8296 H   0  0  0  0  0  0  0  0  0  0  0  0
    3.8928   -3.9407    7.4167 H   0  0  0  0  0  0  0  0  0  0  0  0
   -1.6983   -0.5422   -1.2178 H   0  0  0  0  0  0  0  0  0  0  0  0
   -0.1633   -0.4783   -2.0982 H   0  0  0  0  0  0  0  0  0  0  0  0
   -3.5347    1.9357    0.3414 H   0  0  0  0  0  0  0  0  0  0  0  0
    0.8175    2.2128   -1.2995 H   0  0  0  0  0  0  0  0  0  0  0  0
   -0.0073    3.1444   -2.3691 H   0  0  0  0  0  0  0  0  0  0  0  0
  1  6  1  0  0  0  0
  2  1  2  0  0  0  0
  2  3  1  0  0  0  0
  3  4  2  0  0  0  0
  4  8  1  0  0  0  0
  5  4  1  0  0  0  0
  5  7  1  0  0  0  0
  6  5  2  0  0  0  0
  8  9  1  0  0  0  0
  9 14  1  0  0  0  0
 10  9  2  0  0  0  0
 10 11  1  0  0  0  0
 11 12  2  0  0  0  0
 12 13  1  0  0  0  0
 12 15  1  0  0  0  0
 13 28  1  0  0  0  0
 14 29  1  0  0  0  0
 14 13  2  0  0  0  0
 15 30  1  0  0  0  0
 16 11  1  0  0  0  0
 17  3  1  0  0  0  0
 18 31  1  0  0  0  0
 18  1  1  0  0  0  0
 19 20  1  6  0  0  0
 19 18  1  0  0  0  0
 19 21  1  0  0  0  0
 21 23  1  0  0  0  0
 21 22  2  0  0  0  0
 23 33  1  0  0  0  0
 24 19  1  0  0  0  0
 24 34  1  0  0  0  0
 25  2  1  0  0  0  0
 26  6  1  0  0  0  0
 27 10  1  0  0  0  0
 32 18  1  0  0  0  0
 35 24  1  0  0  0  0
M  END
$$$$
