rmsd189.gzmat
 OpenBabel08211713423D

 35 36  0  0  1  0  0  0  0  0999 V2000
    0.0000    0.0000    0.0000 C   0  0  0  0  0  0  0  0  0  0  0  0
    1.3961    0.0000    0.0000 C   0  0  0  0  0  0  0  0  0  0  0  0
    2.0878    0.0000    1.2073 C   0  0  0  0  0  0  0  0  0  0  0  0
    1.3813    0.0087    2.4129 C   0  0  0  0  0  0  0  0  0  0  0  0
   -0.0162   -0.0448    2.4120 C   0  0  0  0  0  0  0  0  0  0  0  0
   -0.7059   -0.0458    1.2049 C   0  0  0  0  0  0  0  0  0  0  0  0
   -1.1364   -0.1216    4.2030 I   0  0  0  0  0  0  0  0  0  0  0  0
    2.0709    0.2067    3.5922 O   0  0  0  0  0  0  0  0  0  0  0  0
    2.3127   -0.9213    4.3438 C   0  0  0  0  0  0  0  0  0  0  0  0
    2.2264   -2.2210    3.8546 C   0  0  0  0  0  0  0  0  0  0  0  0
    2.5411   -3.2779    4.7064 C   0  0  0  0  0  0  0  0  0  0  0  0
    2.9297   -3.0042    6.0217 C   0  0  0  0  0  0  0  0  0  0  0  0
    3.0095   -1.6876    6.4990 C   0  0  0  0  0  0  0  0  0  0  0  0
    2.6990   -0.6315    5.6574 C   0  0  0  0  0  0  0  0  0  0  0  0
    3.2296   -4.0523    6.8343 O   0  0  0  0  0  0  0  0  0  0  0  0
    2.4032   -5.2390    3.9356 I   0  0  0  0  0  0  0  0  0  0  0  0
    4.2009   -0.0185    1.1524 I   0  0  0  0  0  0  0  0  0  0  0  0
   -0.7465    0.0693   -1.2954 C   0  0  0  0  0  0  0  0  0  0  0  0
   -1.0033    1.5299   -1.7351 C   0  0  1  0  0  0  0  0  0  0  0  0
   -1.6760    1.5231   -2.6423 H   0  0  0  0  0  0  0  0  0  0  0  0
   -1.7664    2.2384   -0.6187 C   0  0  0  0  0  0  0  0  0  0  0  0
   -2.7793    1.8880   -0.0770 O   0  0  0  0  0  0  0  0  0  0  0  0
   -1.1534    3.3992   -0.2811 O   0  0  0  0  0  0  0  0  0  0  0  0
    0.2551    2.1740   -2.1220 N   0  0  0  0  0  0  0  0  0  0  0  0
    1.9231    0.0022   -0.9590 H   0  0  0  0  0  0  0  0  0  0  0  0
   -1.8018   -0.0684    1.1748 H   0  0  0  0  0  0  0  0  0  0  0  0
    1.9190   -2.3942    2.8225 H   0  0  0  0  0  0  0  0  0  0  0  0
    3.3108   -1.4977    7.5267 H   0  0  0  0  0  0  0  0  0  0  0  0
    2.7484    0.4036    5.9949 H   0  0  0  0  0  0  0  0  0  0  0  0
    3.4743   -3.7549    7.7452 H   0  0  0  0  0  0  0  0  0  0  0  0
   -1.7178   -0.4671   -1.2234 H   0  0  0  0  0  0  0  0  0  0  0  0
   -0.1830   -0.4474   -2.1052 H   0  0  0  0  0  0  0  0  0  0  0  0
   -1.6001    3.8904    0.4539 H   0  0  0  0  0  0  0  0  0  0  0  0
    0.9182    2.2009   -1.3588 H   0  0  0  0  0  0  0  0  0  0  0  0
    0.1109    3.1201   -2.4481 H   0  0  0  0  0  0  0  0  0  0  0  0
  1  6  1  0  0  0  0
  2  1  2  0  0  0  0
  2  3  1  0  0  0  0
  3  4  2  0  0  0  0
  4  8  1  0  0  0  0
  5  4  1  0  0  0  0
  5  7  1  0  0  0  0
  6  5  2  0  0  0  0
  8  9  1  0  0  0  0
  9 14  1  0  0  0  0
 10  9  2  0  0  0  0
 10 11  1  0  0  0  0
 11 12  2  0  0  0  0
 12 13  1  0  0  0  0
 12 15  1  0  0  0  0
 13 28  1  0  0  0  0
 14 29  1  0  0  0  0
 14 13  2  0  0  0  0
 15 30  1  0  0  0  0
 16 11  1  0  0  0  0
 17  3  1  0  0  0  0
 18 31  1  0  0  0  0
 18  1  1  0  0  0  0
 19 20  1  6  0  0  0
 19 18  1  0  0  0  0
 19 21  1  0  0  0  0
 21 23  1  0  0  0  0
 21 22  2  0  0  0  0
 23 33  1  0  0  0  0
 24 19  1  0  0  0  0
 24 34  1  0  0  0  0
 25  2  1  0  0  0  0
 26  6  1  0  0  0  0
 27 10  1  0  0  0  0
 32 18  1  0  0  0  0
 35 24  1  0  0  0  0
M  END
$$$$
