rmsd177.gzmat
 OpenBabel08211713423D

 35 36  0  0  1  0  0  0  0  0999 V2000
    0.0000    0.0000    0.0000 C   0  0  0  0  0  0  0  0  0  0  0  0
    1.3964    0.0000    0.0000 C   0  0  0  0  0  0  0  0  0  0  0  0
    2.0884    0.0000    1.2069 C   0  0  0  0  0  0  0  0  0  0  0  0
    1.3825    0.0116    2.4130 C   0  0  0  0  0  0  0  0  0  0  0  0
   -0.0154   -0.0212    2.4119 C   0  0  0  0  0  0  0  0  0  0  0  0
   -0.7055   -0.0254    1.2049 C   0  0  0  0  0  0  0  0  0  0  0  0
   -1.1368   -0.0691    4.2031 I   0  0  0  0  0  0  0  0  0  0  0  0
    2.0683    0.1783    3.6004 O   0  0  0  0  0  0  0  0  0  0  0  0
    2.3517   -0.9787    4.2917 C   0  0  0  0  0  0  0  0  0  0  0  0
    2.2444   -2.2590    3.7572 C   0  0  0  0  0  0  0  0  0  0  0  0
    2.5917   -3.3483    4.5539 C   0  0  0  0  0  0  0  0  0  0  0  0
    3.0339   -3.1258    5.8614 C   0  0  0  0  0  0  0  0  0  0  0  0
    3.1363   -1.8284    6.3851 C   0  0  0  0  0  0  0  0  0  0  0  0
    2.7959   -0.7402    5.5976 C   0  0  0  0  0  0  0  0  0  0  0  0
    3.3644   -4.2054    6.6194 O   0  0  0  0  0  0  0  0  0  0  0  0
    2.4202   -5.2790    3.7148 I   0  0  0  0  0  0  0  0  0  0  0  0
    4.2016   -0.0331    1.1506 I   0  0  0  0  0  0  0  0  0  0  0  0
   -0.7473    0.0287   -1.2961 C   0  0  0  0  0  0  0  0  0  0  0  0
   -1.0130    1.4670   -1.7882 C   0  0  1  0  0  0  0  0  0  0  0  0
   -1.6592    1.4165   -2.7124 H   0  0  0  0  0  0  0  0  0  0  0  0
   -1.7742    2.2657   -0.7329 C   0  0  0  0  0  0  0  0  0  0  0  0
   -1.5002    3.3575   -0.3145 O   0  0  0  0  0  0  0  0  0  0  0  0
   -2.8769    1.6002   -0.3114 O   0  0  0  0  0  0  0  0  0  0  0  0
    0.2431    2.1293   -2.1551 N   0  0  0  0  0  0  0  0  0  0  0  0
    1.9230   -0.0022   -0.9595 H   0  0  0  0  0  0  0  0  0  0  0  0
   -1.7998   -0.0446    1.1727 H   0  0  0  0  0  0  0  0  0  0  0  0
    1.8957   -2.3940    2.7327 H   0  0  0  0  0  0  0  0  0  0  0  0
    3.4790   -1.6787    7.4065 H   0  0  0  0  0  0  0  0  0  0  0  0
    2.8661    0.2813    5.9717 H   0  0  0  0  0  0  0  0  0  0  0  0
    3.6524   -3.9439    7.5283 H   0  0  0  0  0  0  0  0  0  0  0  0
   -1.7177   -0.5082   -1.2044 H   0  0  0  0  0  0  0  0  0  0  0  0
   -0.1820   -0.5146   -2.0875 H   0  0  0  0  0  0  0  0  0  0  0  0
   -3.4121    2.0987    0.3569 H   0  0  0  0  0  0  0  0  0  0  0  0
    0.8933    2.1744   -1.3818 H   0  0  0  0  0  0  0  0  0  0  0  0
    0.0928    3.0675   -2.5010 H   0  0  0  0  0  0  0  0  0  0  0  0
  1  6  1  0  0  0  0
  2  1  2  0  0  0  0
  2  3  1  0  0  0  0
  3  4  2  0  0  0  0
  4  8  1  0  0  0  0
  5  4  1  0  0  0  0
  5  7  1  0  0  0  0
  6  5  2  0  0  0  0
  8  9  1  0  0  0  0
  9 14  1  0  0  0  0
 10  9  2  0  0  0  0
 10 11  1  0  0  0  0
 11 12  2  0  0  0  0
 12 13  1  0  0  0  0
 12 15  1  0  0  0  0
 13 28  1  0  0  0  0
 14 29  1  0  0  0  0
 14 13  2  0  0  0  0
 15 30  1  0  0  0  0
 16 11  1  0  0  0  0
 17  3  1  0  0  0  0
 18 31  1  0  0  0  0
 18  1  1  0  0  0  0
 19 20  1  6  0  0  0
 19 18  1  0  0  0  0
 19 21  1  0  0  0  0
 21 22  2  0  0  0  0
 21 23  1  0  0  0  0
 23 33  1  0  0  0  0
 24 19  1  0  0  0  0
 24 34  1  0  0  0  0
 25  2  1  0  0  0  0
 26  6  1  0  0  0  0
 27 10  1  0  0  0  0
 32 18  1  0  0  0  0
 35 24  1  0  0  0  0
M  END
$$$$
