43
rmsd115.gzmat
O          0.00000        0.00000        0.00000
C          1.40760        0.00000        0.00000
C          1.91990        0.00000        1.45460
N          1.37560        1.22570        2.16960
H          1.74140        2.08940        1.69040
C         -0.14640        1.22460        2.06550
C         -0.54060        1.16560        0.57880
C          1.78590        1.24190        3.62360
C          3.30130        1.52330        3.79850
N          3.54780        1.89790        5.19060
C          4.13230        1.04880        6.09590
C          4.38590       -0.34650        5.87830
C          4.93620       -1.09230        6.88180
C          5.24730       -0.45880        8.14140
N          4.99690        0.83800        8.31700
N          4.47080        1.56400        7.32200
H          4.32710        2.55350        7.59740
C          5.84660       -1.18810        9.25410
C          6.77280       -0.55240       10.09270
C          7.33950       -1.25290       11.15390
C          6.98040       -2.57900       11.38720
C          6.05110       -3.21140       10.55620
C          5.48270       -2.52250        9.49230
H          1.81160        0.83300       -0.60460
H          1.65620       -0.95840       -0.51730
H          3.02900       -0.00560        1.48160
H          1.56650       -0.92280        1.97460
H         -0.55780        0.33510        2.60080
H         -0.56620        2.13070        2.55760
H         -1.64160        1.01560        0.45460
H         -0.25050        2.07020        0.01330
H          1.50820        0.27480        4.10780
H          1.18980        2.02340        4.16270
H          3.63470        2.36540        3.13520
H          3.91490        0.64200        3.49180
H          3.46180        2.89290        5.40180
H          4.14400       -0.79750        4.91410
H          5.16570       -2.16280        6.75620
H          7.05290        0.48850        9.91700
H          8.06520       -0.75730       11.80630
H          7.42460       -3.12760       12.22590
H          5.76900       -4.25090       10.74810
H          4.74430       -3.01730        8.86400
