rmsd109.gzmat
 OpenBabel08211713363D

 43 45  0  0  1  0  0  0  0  0999 V2000
    0.0000    0.0000    0.0000 O   0  0  0  0  0  0  0  0  0  0  0  0
    1.4079    0.0000    0.0000 C   0  0  0  0  0  0  0  0  0  0  0  0
    1.9184    0.0000    1.4538 C   0  0  0  0  0  0  0  0  0  0  0  0
    1.3814    1.2350    2.1615 N   0  0  0  0  0  0  0  0  0  0  0  0
    1.7436    2.0917    1.6707 H   0  0  0  0  0  0  0  0  0  0  0  0
   -0.1410    1.2308    2.0639 C   0  0  0  0  0  0  0  0  0  0  0  0
   -0.5420    1.1638    0.5795 C   0  0  0  0  0  0  0  0  0  0  0  0
    1.8002    1.2649    3.6129 C   0  0  0  0  0  0  0  0  0  0  0  0
    3.2919    1.6553    3.7822 C   0  0  0  0  0  0  0  0  0  0  0  0
    3.6437    1.5356    5.1969 N   0  0  0  0  0  0  0  0  0  0  0  0
    3.8395    2.6231    6.0098 C   0  0  1  0  0  0  0  0  0  0  0  0
    3.5129    3.9784    5.6711 C   0  0  0  0  0  0  0  0  0  0  0  0
    3.7378    4.9704    6.5828 C   0  0  0  0  0  0  0  0  0  0  0  0
    4.2934    4.6312    7.8714 C   0  0  0  0  0  0  0  0  0  0  0  0
    4.5704    3.3615    8.1658 N   0  0  0  0  0  0  0  0  0  0  0  0
    4.3514    2.3966    7.2631 N   0  0  0  0  0  0  0  0  0  0  0  0
    4.6125    1.4604    7.6247 H   0  0  0  0  0  0  0  0  0  0  0  0
    4.5694    5.6392    8.8895 C   0  0  0  0  0  0  0  0  0  0  0  0
    4.4047    5.3344   10.2476 C   0  0  0  0  0  0  0  0  0  0  0  0
    4.6862    6.2983   11.2116 C   0  0  0  0  0  0  0  0  0  0  0  0
    5.1383    7.5595   10.8278 C   0  0  0  0  0  0  0  0  0  0  0  0
    5.3082    7.8628    9.4742 C   0  0  0  0  0  0  0  0  0  0  0  0
    5.0249    6.9101    8.5040 C   0  0  0  0  0  0  0  0  0  0  0  0
    1.8124    0.8320   -0.6045 H   0  0  0  0  0  0  0  0  0  0  0  0
    1.6559   -0.9591   -0.5173 H   0  0  0  0  0  0  0  0  0  0  0  0
    3.0274   -0.0179    1.4856 H   0  0  0  0  0  0  0  0  0  0  0  0
    1.5550   -0.9190    1.9759 H   0  0  0  0  0  0  0  0  0  0  0  0
   -0.5476    0.3426    2.6062 H   0  0  0  0  0  0  0  0  0  0  0  0
   -0.5603    2.1374    2.5527 H   0  0  0  0  0  0  0  0  0  0  0  0
   -1.6429    1.0087    0.4615 H   0  0  0  0  0  0  0  0  0  0  0  0
   -0.2593    2.0675    0.0095 H   0  0  0  0  0  0  0  0  0  0  0  0
    1.6017    0.2685    4.0818 H   0  0  0  0  0  0  0  0  0  0  0  0
    1.1561    1.9874    4.1735 H   0  0  0  0  0  0  0  0  0  0  0  0
    3.4886    2.6809    3.3887 H   0  0  0  0  0  0  0  0  0  0  0  0
    3.9569    0.9727    3.1890 H   0  0  0  0  0  0  0  0  0  0  0  0
    3.9518    0.6093    5.4961 H   0  0  0  0  0  0  0  0  0  0  0  0
    3.0846    4.2043    4.6934 H   0  0  0  0  0  0  0  0  0  0  0  0
    3.4938    6.0238    6.3707 H   0  0  0  0  0  0  0  0  0  0  0  0
    4.0557    4.3456   10.5526 H   0  0  0  0  0  0  0  0  0  0  0  0
    4.5552    6.0611   12.2719 H   0  0  0  0  0  0  0  0  0  0  0  0
    5.3647    8.3157   11.5883 H   0  0  0  0  0  0  0  0  0  0  0  0
    5.6715    8.8522    9.1800 H   0  0  0  0  0  0  0  0  0  0  0  0
    5.1799    7.1507    7.4534 H   0  0  0  0  0  0  0  0  0  0  0  0
  1  7  1  0  0  0  0
  2  1  1  0  0  0  0
  2  3  1  0  0  0  0
  3 26  1  0  0  0  0
  3 27  1  0  0  0  0
  3  4  1  0  0  0  0
  4  8  1  0  0  0  0
  5  4  1  0  0  0  0
  6  4  1  0  0  0  0
  6 29  1  0  0  0  0
  6 28  1  0  0  0  0
  7  6  1  0  0  0  0
  8  9  1  0  0  0  0
  8 32  1  0  0  0  0
  8 33  1  0  0  0  0
  9 10  1  0  0  0  0
 10 36  1  0  0  0  0
 11 10  1  1  0  0  0
 11 16  1  0  0  0  0
 12 11  1  0  0  0  0
 12 13  2  0  0  0  0
 13 14  1  0  0  0  0
 14 15  2  0  0  0  0
 14 18  1  0  0  0  0
 16 17  1  0  0  0  0
 16 15  1  0  0  0  0
 18 19  1  0  0  0  0
 19 39  1  0  0  0  0
 19 20  2  0  0  0  0
 20 40  1  0  0  0  0
 21 20  1  0  0  0  0
 21 41  1  0  0  0  0
 22 21  2  0  0  0  0
 23 18  2  0  0  0  0
 23 22  1  0  0  0  0
 24  2  1  0  0  0  0
 25  2  1  0  0  0  0
 30  7  1  0  0  0  0
 31  7  1  0  0  0  0
 34  9  1  0  0  0  0
 35  9  1  0  0  0  0
 37 12  1  0  0  0  0
 38 13  1  0  0  0  0
 42 22  1  0  0  0  0
 43 23  1  0  0  0  0
M  RAD  1  11   2
M  END
$$$$
