43
rmsd92.gzmat
O          0.00000        0.00000        0.00000
C          1.40910        0.00000        0.00000
C          1.91710        0.00000        1.45210
N          1.37550        1.23600        2.16380
H          1.75570        2.09170        1.68150
C         -0.14060        1.24460        2.05740
C         -0.53970        1.16830        0.56980
C          1.82430        1.22650        3.60610
C          1.56520        2.58360        4.30950
N          2.32770        2.61410        5.55720
C          1.75130        2.38310        6.77970
C          0.41900        1.88990        6.98030
C         -0.03110        1.67410        8.25150
C          0.84970        1.94170        9.36310
N          2.08610        2.38500        9.14900
N          2.51700        2.59880        7.89850
H          3.49280        2.95020        7.87760
C          0.42810        1.73820       10.74630
C          1.30680        1.16980       11.67710
C          0.88870        0.97870       12.99160
C         -0.39290        1.36440       13.38030
C         -1.26260        1.94830       12.45500
C         -0.85870        2.13510       11.13890
H          1.81420        0.83180       -0.60550
H          1.65720       -0.95950       -0.51750
H          3.02970       -0.00730        1.48830
H          1.56160       -0.91990        1.97580
H         -0.55860        0.36400        2.60130
H         -0.55780        2.15780        2.53040
H         -1.64020        1.01670        0.45170
H         -0.25200        2.06810       -0.00390
H          2.91770        0.98310        3.64700
H          1.31700        0.39780        4.15610
H          0.47490        2.74760        4.48710
H          1.89590        3.44230        3.66710
H          3.26210        3.02040        5.49580
H         -0.22030        1.69070        6.11890
H         -1.04200        1.28710        8.45740
H          2.31420        0.87530       11.37780
H          1.57110        0.52870       13.71910
H         -0.72000        1.21320       14.41520
H         -2.26160        2.26350       12.77040
H         -1.53440        2.60860       10.42860
