43
rmsd178.gzmat
O          0.00000        0.00000        0.00000
C          1.40760        0.00000        0.00000
C          1.92030        0.00000        1.45420
N          1.37630        1.22610        2.16840
H          1.74530        2.08880        1.69000
C         -0.14520        1.23020        2.06140
C         -0.53990        1.16750        0.57520
C          1.78500        1.23790        3.62310
C          3.29230        1.55560        3.80450
N          3.51800        1.98660        5.18400
C          4.05670        1.16240        6.13920
C          4.26650       -0.24870        5.98810
C          4.76550       -0.96820        7.03620
C          5.06120       -0.29350        8.27820
N          4.85830        1.01910        8.38890
N          4.38850        1.71940        7.34840
H          4.27780        2.72520        7.57570
C          5.58530       -0.99890        9.44260
C          6.46930       -0.35490       10.31960
C          6.95930       -1.03460       11.43140
C          6.56590       -2.34870       11.67650
C          5.67860       -2.98950       10.80720
C          5.18710       -2.32140        9.69340
H          1.81220        0.83310       -0.60350
H          1.65540       -0.95880       -0.51630
H          3.02960       -0.00490        1.48280
H          1.56770       -0.92390        1.97230
H         -0.56110        0.34470        2.59930
H         -0.56210        2.13990        2.54850
H         -1.64130        1.01900        0.45290
H         -0.24990        2.06960        0.00590
H          1.52980        0.25910        4.09530
H          1.16970        1.99780        4.17140
H          3.61710        2.38010        3.11600
H          3.92700        0.67660        3.53590
H          3.45410        2.99160        5.34960
H          4.03230       -0.73260        5.03840
H          4.96350       -2.04940        6.95800
H          6.77780        0.67640       10.13360
H          7.65250       -0.53240       12.11350
H          6.94960       -2.88170       12.55390
H          5.36780       -4.01900       11.00790
H          4.48070       -2.82440        9.03580
