rmsd229.gzmat
 OpenBabel08211713363D

 43 45  0  0  1  0  0  0  0  0999 V2000
    0.0000    0.0000    0.0000 O   0  0  0  0  0  0  0  0  0  0  0  0
    1.4078    0.0000    0.0000 C   0  0  0  0  0  0  0  0  0  0  0  0
    1.9201    0.0000    1.4532 C   0  0  0  0  0  0  0  0  0  0  0  0
    1.3809    1.2297    2.1679 N   0  0  0  0  0  0  0  0  0  0  0  0
    1.7512    2.0899    1.6907 H   0  0  0  0  0  0  0  0  0  0  0  0
   -0.1413    1.2352    2.0618 C   0  0  0  0  0  0  0  0  0  0  0  0
   -0.5406    1.1656    0.5773 C   0  0  0  0  0  0  0  0  0  0  0  0
    1.7861    1.2400    3.6238 C   0  0  0  0  0  0  0  0  0  0  0  0
    3.2910    1.5634    3.8117 C   0  0  0  0  0  0  0  0  0  0  0  0
    3.5869    1.5357    5.2452 N   0  0  0  0  0  0  0  0  0  0  0  0
    3.9776    2.6499    5.9451 C   0  0  1  0  0  0  0  0  0  0  0  0
    3.8913    3.9991    5.4653 C   0  0  0  0  0  0  0  0  0  0  0  0
    4.2798    5.0257    6.2778 C   0  0  0  0  0  0  0  0  0  0  0  0
    4.7628    4.7298    7.6060 C   0  0  0  0  0  0  0  0  0  0  0  0
    4.8206    3.4683    8.0300 N   0  0  0  0  0  0  0  0  0  0  0  0
    4.4440    2.4677    7.2230 N   0  0  0  0  0  0  0  0  0  0  0  0
    4.5387    1.5431    7.6834 H   0  0  0  0  0  0  0  0  0  0  0  0
    5.1898    5.7782    8.5266 C   0  0  0  0  0  0  0  0  0  0  0  0
    4.9515    5.6528    9.9021 C   0  0  0  0  0  0  0  0  0  0  0  0
    5.3533    6.6662   10.7681 C   0  0  0  0  0  0  0  0  0  0  0  0
    6.0011    7.7954   10.2703 C   0  0  0  0  0  0  0  0  0  0  0  0
    6.2542    7.9131    8.9008 C   0  0  0  0  0  0  0  0  0  0  0  0
    5.8519    6.9106    8.0280 C   0  0  0  0  0  0  0  0  0  0  0  0
    1.8117    0.8320   -0.6049 H   0  0  0  0  0  0  0  0  0  0  0  0
    1.6562   -0.9595   -0.5166 H   0  0  0  0  0  0  0  0  0  0  0  0
    3.0296   -0.0118    1.4809 H   0  0  0  0  0  0  0  0  0  0  0  0
    1.5641   -0.9218    1.9751 H   0  0  0  0  0  0  0  0  0  0  0  0
   -0.5556    0.3526    2.6073 H   0  0  0  0  0  0  0  0  0  0  0  0
   -0.5563    2.1473    2.5446 H   0  0  0  0  0  0  0  0  0  0  0  0
   -1.6421    1.0117    0.4593 H   0  0  0  0  0  0  0  0  0  0  0  0
   -0.2576    2.0674    0.0046 H   0  0  0  0  0  0  0  0  0  0  0  0
    1.5382    0.2522    4.0874 H   0  0  0  0  0  0  0  0  0  0  0  0
    1.1675    1.9904    4.1775 H   0  0  0  0  0  0  0  0  0  0  0  0
    3.5539    2.5442    3.3501 H   0  0  0  0  0  0  0  0  0  0  0  0
    3.9343    0.8027    3.2949 H   0  0  0  0  0  0  0  0  0  0  0  0
    3.7391    0.6065    5.6404 H   0  0  0  0  0  0  0  0  0  0  0  0
    3.5105    4.1944    4.4610 H   0  0  0  0  0  0  0  0  0  0  0  0
    4.2213    6.0777    5.9552 H   0  0  0  0  0  0  0  0  0  0  0  0
    4.4513    4.7659   10.2965 H   0  0  0  0  0  0  0  0  0  0  0  0
    5.1628    6.5718   11.8419 H   0  0  0  0  0  0  0  0  0  0  0  0
    6.3172    8.5921   10.9534 H   0  0  0  0  0  0  0  0  0  0  0  0
    6.7757    8.7948    8.5169 H   0  0  0  0  0  0  0  0  0  0  0  0
    6.0729    7.0021    6.9660 H   0  0  0  0  0  0  0  0  0  0  0  0
  1  7  1  0  0  0  0
  2  1  1  0  0  0  0
  2  3  1  0  0  0  0
  3 26  1  0  0  0  0
  3 27  1  0  0  0  0
  3  4  1  0  0  0  0
  4  8  1  0  0  0  0
  5  4  1  0  0  0  0
  6  4  1  0  0  0  0
  6 29  1  0  0  0  0
  6 28  1  0  0  0  0
  7  6  1  0  0  0  0
  8  9  1  0  0  0  0
  8 32  1  0  0  0  0
  8 33  1  0  0  0  0
  9 10  1  0  0  0  0
 10 36  1  0  0  0  0
 11 10  1  1  0  0  0
 11 16  1  0  0  0  0
 12 11  1  0  0  0  0
 12 13  2  0  0  0  0
 13 14  1  0  0  0  0
 14 15  2  0  0  0  0
 14 18  1  0  0  0  0
 16 17  1  0  0  0  0
 16 15  1  0  0  0  0
 18 19  1  0  0  0  0
 19 39  1  0  0  0  0
 19 20  2  0  0  0  0
 20 40  1  0  0  0  0
 21 20  1  0  0  0  0
 21 41  1  0  0  0  0
 22 21  2  0  0  0  0
 23 18  2  0  0  0  0
 23 22  1  0  0  0  0
 24  2  1  0  0  0  0
 25  2  1  0  0  0  0
 30  7  1  0  0  0  0
 31  7  1  0  0  0  0
 34  9  1  0  0  0  0
 35  9  1  0  0  0  0
 37 12  1  0  0  0  0
 38 13  1  0  0  0  0
 42 22  1  0  0  0  0
 43 23  1  0  0  0  0
M  RAD  1  11   2
M  END
$$$$
