43
rmsd189.gzmat
O          0.00000        0.00000        0.00000
C          1.40910        0.00000        0.00000
C          1.91830        0.00000        1.45230
N          1.37130        1.23190        2.16690
H          1.74590        2.08970        1.68390
C         -0.14470        1.23200        2.06070
C         -0.53940        1.16800        0.57140
C          1.82090        1.22550        3.60980
C          1.58000        2.59300        4.30000
N          2.33110        2.61930        5.55540
C          1.72490        2.52280        6.78260
C          0.35680        2.14950        6.99910
C         -0.11980        2.06210        8.27580
C          0.76860        2.33720        9.38020
N          2.03820        2.66790        9.15030
N          2.49390        2.75950        7.89380
H          3.49480        3.02770        7.86240
C          0.32450        2.25750       10.76800
C          1.19310        1.78690       11.76180
C          0.75780        1.71500       13.08240
C         -0.53500        2.11580       13.41500
C         -1.39800        2.59630       12.42610
C         -0.97440        2.66950       11.10550
H          1.81270        0.83180       -0.60630
H          1.65610       -0.95990       -0.51790
H          3.03070       -0.00160        1.48810
H          1.56750       -0.92250        1.97480
H         -0.55710        0.34030        2.59150
H         -0.56880        2.13510        2.54510
H         -1.63980        1.02120        0.44840
H         -0.24650        2.07000        0.00300
H          2.91080        0.96710        3.65360
H          1.30200        0.40760        4.16560
H          0.49110        2.77730        4.46350
H          1.93380        3.43890        3.65240
H          3.29550        2.94670        5.48480
H         -0.28770        1.93290        6.14550
H         -1.16070        1.77240        8.49080
H          2.20770        1.47410       11.50620
H          1.43600        1.34710       13.85820
H         -0.87630        2.05920       14.45510
H         -2.40790        2.92040       12.69540
H         -1.64700        3.06650       10.34670
