34

S         -0.00360        0.26310       -0.02240
C          1.74140        0.04100        0.00810
N          2.23050       -0.03360        1.21380
C          1.27490        0.08970        2.19480
C         -0.01910        0.23280        1.71780
C         -1.31810        0.31660        2.46700
C         -1.79260        1.75450        2.59970
O         -1.57150        2.47970        3.53760
O         -2.46980        2.15330        1.50940
C          1.69990        0.00310        3.60680
C          1.06780        0.72200        4.63750
C          1.49920        0.60070        5.95980
C          2.57650       -0.23410        6.26040
C          3.23610       -0.93960        5.24900
C          2.79910       -0.81340        3.93350
Cl         3.11830       -0.38840        7.91480
C          2.54420       -0.03520       -1.21880
C          1.95790        0.00280       -2.49550
C          2.75030       -0.07430       -3.64040
C          4.13880       -0.19110       -3.52670
C          4.73010       -0.22940       -2.25910
C          3.94240       -0.15160       -1.11260
H         -1.18780       -0.09460        3.47570
H         -2.09420       -0.26190        1.94390
H         -2.68950        3.09310        1.63460
H          0.25430        1.41410        4.41690
H          1.01050        1.16510        6.75500
H          4.08360       -1.57960        5.49860
H          3.30930       -1.35140        3.13350
H          0.87330        0.09110       -2.59700
H          2.28110       -0.04400       -4.62650
H          4.75900       -0.25140       -4.42410
H          5.81490       -0.31900       -2.16470
H          4.38680       -0.17660       -0.11690
