34
rmsd156.gzmat
S          0.00000        0.00000        0.00000
C          1.78360        0.00000        0.00000
N          2.28900        0.00000        1.21350
C          1.30570       -0.00470        2.20680
C          0.00760        0.00850        1.74770
C         -1.23050        0.05020        2.54330
C         -1.99200       -1.23840        2.38820
O         -2.83420       -1.51570        1.57980
O         -1.60870       -2.12900        3.33900
C          1.75070       -0.01310        3.59850
C          2.70360        0.91940        4.02310
C          3.12490        0.92950        5.35050
C          2.58540       -0.01050        6.21910
C          1.65310       -0.95930        5.82070
C          1.23570       -0.95770        4.49200
Cl         3.09730       -0.00240        7.85420
C          2.57130       -0.04150       -1.21920
C          2.18850        0.67560       -2.35730
C          2.96250        0.60240       -3.51270
C          4.11570       -0.18070       -3.53680
C          4.50470       -0.88720       -2.39980
C          3.73820       -0.81620       -1.24030
H         -1.88990        0.90260        2.24300
H         -1.00250        0.23490        3.62530
H         -2.06670       -3.00390        3.27340
H          3.12100        1.62970        3.30600
H          3.86280        1.65630        5.68860
H          1.25400       -1.69250        6.52110
H          0.51370       -1.70300        4.14700
H          1.29770        1.30240       -2.34900
H          2.66670        1.15900       -4.40050
H          4.71410       -0.23830       -4.44450
H          5.40880       -1.49340       -2.41700
H          4.04360       -1.35590       -0.34020
