34
rmsd183.gzmat
S          0.00000        0.00000        0.00000
C          1.78540        0.00000        0.00000
N          2.29250        0.00000        1.21060
C          1.31010       -0.03380        2.20560
C          0.01190       -0.02940        1.74840
C         -1.22790       -0.04030        2.54210
C         -1.83370       -1.41750        2.50880
O         -1.46860       -2.41110        3.07640
O         -2.93180       -1.42440        1.71260
C          1.75660       -0.07370        3.59610
C          2.69620        0.85880        4.04910
C          3.11850        0.83260        5.37600
C          2.59120       -0.14100        6.21440
C          1.67390       -1.09180        5.78620
C          1.25620       -1.05480        4.45840
Cl         3.09970       -0.17400        7.85030
C          2.56210        0.01930       -1.22650
C          3.66170        0.87960       -1.32420
C          4.41520        0.91000       -2.49410
C          4.08050        0.07880       -3.56180
C          2.99300       -0.78760       -3.45940
C          2.23230       -0.82240       -2.29380
H         -1.96290        0.72370        2.18500
H         -1.02570        0.23950        3.60830
H         -3.36170       -2.31220        1.63250
H          3.10280        1.59730        3.35610
H          3.84870        1.55660        5.73590
H          1.28950       -1.85600        6.46190
H          0.54900       -1.80400        4.08720
H          3.92860        1.51390       -0.47690
H          5.26960        1.58000       -2.57280
H          4.67200        0.10180       -4.47550
H          2.73950       -1.44280       -4.29100
H          1.39640       -1.51740       -2.21690
