
     RDKit          3D

 34 36  0  0  0  0  0  0  0  0999 V2000
   -0.0036    0.2631   -0.0224 S   0  0  0  0  0  0  0  0  0  0  0  0
    1.7414    0.0410    0.0081 C   0  0  0  0  0  0  0  0  0  0  0  0
    2.2305   -0.0336    1.2138 N   0  0  0  0  0  0  0  0  0  0  0  0
    1.2749    0.0897    2.1948 C   0  0  0  0  0  0  0  0  0  0  0  0
   -0.0191    0.2328    1.7178 C   0  0  0  0  0  0  0  0  0  0  0  0
   -1.3181    0.3166    2.4670 C   0  0  0  0  0  0  0  0  0  0  0  0
   -1.7926    1.7545    2.5997 C   0  0  0  0  0  0  0  0  0  0  0  0
   -1.5715    2.4797    3.5376 O   0  0  0  0  0  0  0  0  0  0  0  0
   -2.4698    2.1533    1.5094 O   0  0  0  0  0  0  0  0  0  0  0  0
    1.6999    0.0031    3.6068 C   0  0  0  0  0  0  0  0  0  0  0  0
    1.0678    0.7220    4.6375 C   0  0  0  0  0  0  0  0  0  0  0  0
    1.4992    0.6007    5.9598 C   0  0  0  0  0  0  0  0  0  0  0  0
    2.5765   -0.2341    6.2604 C   0  0  0  0  0  0  0  0  0  0  0  0
    3.2361   -0.9396    5.2490 C   0  0  0  0  0  0  0  0  0  0  0  0
    2.7991   -0.8134    3.9335 C   0  0  0  0  0  0  0  0  0  0  0  0
    3.1183   -0.3884    7.9148 Cl  0  0  0  0  0  0  0  0  0  0  0  0
    2.5442   -0.0352   -1.2188 C   0  0  0  0  0  0  0  0  0  0  0  0
    1.9579    0.0028   -2.4955 C   0  0  0  0  0  0  0  0  0  0  0  0
    2.7503   -0.0743   -3.6404 C   0  0  0  0  0  0  0  0  0  0  0  0
    4.1388   -0.1911   -3.5267 C   0  0  0  0  0  0  0  0  0  0  0  0
    4.7301   -0.2294   -2.2591 C   0  0  0  0  0  0  0  0  0  0  0  0
    3.9424   -0.1516   -1.1126 C   0  0  0  0  0  0  0  0  0  0  0  0
   -1.1878   -0.0946    3.4757 H   0  0  0  0  0  0  0  0  0  0  0  0
   -2.0942   -0.2619    1.9439 H   0  0  0  0  0  0  0  0  0  0  0  0
   -2.6895    3.0931    1.6346 H   0  0  0  0  0  0  0  0  0  0  0  0
    0.2543    1.4141    4.4169 H   0  0  0  0  0  0  0  0  0  0  0  0
    1.0105    1.1651    6.7550 H   0  0  0  0  0  0  0  0  0  0  0  0
    4.0836   -1.5796    5.4986 H   0  0  0  0  0  0  0  0  0  0  0  0
    3.3093   -1.3514    3.1335 H   0  0  0  0  0  0  0  0  0  0  0  0
    0.8733    0.0911   -2.5970 H   0  0  0  0  0  0  0  0  0  0  0  0
    2.2811   -0.0440   -4.6265 H   0  0  0  0  0  0  0  0  0  0  0  0
    4.7590   -0.2514   -4.4241 H   0  0  0  0  0  0  0  0  0  0  0  0
    5.8149   -0.3190   -2.1647 H   0  0  0  0  0  0  0  0  0  0  0  0
    4.3868   -0.1766   -0.1169 H   0  0  0  0  0  0  0  0  0  0  0  0
  1  2  1  0
  1  5  1  0
  2  3  2  0
  2 17  1  0
  3  4  1  0
  4  5  2  0
  4 10  1  0
  5  6  1  0
  6  7  1  0
  6 23  1  0
  6 24  1  0
  7  8  2  0
  7  9  1  0
  9 25  1  0
 10 11  2  0
 10 15  1  0
 11 12  1  0
 11 26  1  0
 12 13  2  0
 12 27  1  0
 13 14  1  0
 13 16  1  0
 14 15  2  0
 14 28  1  0
 15 29  1  0
 17 18  2  0
 17 22  1  0
 18 19  1  0
 18 30  1  0
 19 20  2  0
 19 31  1  0
 20 21  1  0
 20 32  1  0
 21 22  2  0
 21 33  1  0
 22 34  1  0
M  END

