rmsd11.gzmat
 OpenBabel08211713403D

 34 36  0  0  1  0  0  0  0  0999 V2000
    0.0000    0.0000    0.0000 S   0  0  0  0  0  0  0  0  0  0  0  0
    1.7831    0.0000    0.0000 C   0  0  0  0  0  0  0  0  0  0  0  0
    2.2863    0.0000    1.2149 N   0  0  0  0  0  0  0  0  0  0  0  0
    1.3031    0.0045    2.2078 C   0  0  0  0  0  0  0  0  0  0  0  0
    0.0053    0.0229    1.7477 C   0  0  1  0  0  0  0  0  0  0  0  0
   -1.2344    0.0913    2.5390 C   0  0  0  0  0  0  0  0  0  0  0  0
   -2.0151   -1.1874    2.4001 C   0  0  0  0  0  0  0  0  0  0  0  0
   -2.8424   -1.4741    1.5796 O   0  0  0  0  0  0  0  0  0  0  0  0
   -1.6737   -2.0548    3.3874 O   0  0  0  0  0  0  0  0  0  0  0  0
    1.7536    0.0103    3.5974 C   0  0  0  0  0  0  0  0  0  0  0  0
    2.7495    0.9111    3.9928 C   0  0  0  0  0  0  0  0  0  0  0  0
    3.1764    0.9395    5.3178 C   0  0  0  0  0  0  0  0  0  0  0  0
    2.5994    0.0492    6.2140 C   0  0  0  0  0  0  0  0  0  0  0  0
    1.6268   -0.8705    5.8443 C   0  0  0  0  0  0  0  0  0  0  0  0
    1.2051   -0.8881    4.5170 C   0  0  0  0  0  0  0  0  0  0  0  0
    3.1136    0.0858    7.8479 Cl  0  0  0  0  0  0  0  0  0  0  0  0
    2.5835   -0.0194   -1.2114 C   0  0  0  0  0  0  0  0  0  0  0  0
    2.1619    0.6357   -2.3729 C   0  0  0  0  0  0  0  0  0  0  0  0
    2.9642    0.6112   -3.5111 C   0  0  0  0  0  0  0  0  0  0  0  0
    4.1852   -0.0616   -3.4962 C   0  0  0  0  0  0  0  0  0  0  0  0
    4.6069   -0.7157   -2.3398 C   0  0  0  0  0  0  0  0  0  0  0  0
    3.8118   -0.6938   -1.1979 C   0  0  0  0  0  0  0  0  0  0  0  0
   -1.8797    0.9501    2.2264 H   0  0  0  0  0  0  0  0  0  0  0  0
   -1.0071    0.2891    3.6191 H   0  0  0  0  0  0  0  0  0  0  0  0
   -2.1445   -2.9235    3.3363 H   0  0  0  0  0  0  0  0  0  0  0  0
    3.1957    1.5816    3.2543 H   0  0  0  0  0  0  0  0  0  0  0  0
    3.9477    1.6416    5.6327 H   0  0  0  0  0  0  0  0  0  0  0  0
    1.2020   -1.5686    6.5647 H   0  0  0  0  0  0  0  0  0  0  0  0
    0.4548   -1.6146    4.1936 H   0  0  0  0  0  0  0  0  0  0  0  0
    1.2176    1.1783   -2.3994 H   0  0  0  0  0  0  0  0  0  0  0  0
    2.6352    1.1222   -4.4140 H   0  0  0  0  0  0  0  0  0  0  0  0
    4.8117   -0.0738   -4.3866 H   0  0  0  0  0  0  0  0  0  0  0  0
    5.5600   -1.2419   -2.3276 H   0  0  0  0  0  0  0  0  0  0  0  0
    4.1443   -1.1923   -0.2836 H   0  0  0  0  0  0  0  0  0  0  0  0
  1  2  1  0  0  0  0
  1  5  1  0  0  0  0
  2  3  2  0  0  0  0
  3  4  2  0  0  0  0
  4 10  1  0  0  0  0
  5  4  1  0  0  0  0
  5  6  1  6  0  0  0
  6 24  1  0  0  0  0
  7  6  1  0  0  0  0
  7  9  1  0  0  0  0
  8  7  2  0  0  0  0
 10 11  2  0  0  0  0
 10 15  1  0  0  0  0
 11 12  1  0  0  0  0
 12 27  1  0  0  0  0
 12 13  2  0  0  0  0
 13 16  1  0  0  0  0
 14 13  1  0  0  0  0
 14 28  1  0  0  0  0
 15 14  2  0  0  0  0
 17 22  1  0  0  0  0
 17  2  1  0  0  0  0
 18 17  2  0  0  0  0
 19 20  2  0  0  0  0
 19 18  1  0  0  0  0
 20 21  1  0  0  0  0
 21 33  1  0  0  0  0
 21 22  2  0  0  0  0
 22 34  1  0  0  0  0
 23  6  1  0  0  0  0
 25  9  1  0  0  0  0
 26 11  1  0  0  0  0
 29 15  1  0  0  0  0
 30 18  1  0  0  0  0
 31 19  1  0  0  0  0
 32 20  1  0  0  0  0
M  RAD  1   5   2
M  END
$$$$
