
     RDKit          3D

 34 36  0  0  0  0  0  0  0  0999 V2000
   -0.0133    0.0818   -0.0041 S   0  0  0  0  0  0  0  0  0  0  0  0
    1.7424   -0.0292    0.0098 C   0  0  0  0  0  0  0  0  0  0  0  0
    2.2441   -0.1109    1.2099 N   0  0  0  0  0  0  0  0  0  0  0  0
    1.2885   -0.1038    2.1985 C   0  0  0  0  0  0  0  0  0  0  0  0
   -0.0122    0.0234    1.7355 C   0  0  0  0  0  0  0  0  0  0  0  0
   -1.2994    0.1450    2.4999 C   0  0  0  0  0  0  0  0  0  0  0  0
   -2.0337   -1.1841    2.5682 C   0  0  0  0  0  0  0  0  0  0  0  0
   -1.9487   -1.9842    3.4665 O   0  0  0  0  0  0  0  0  0  0  0  0
   -2.7773   -1.3940    1.4685 O   0  0  0  0  0  0  0  0  0  0  0  0
    1.7311   -0.1720    3.6061 C   0  0  0  0  0  0  0  0  0  0  0  0
    2.9666    0.4052    3.9554 C   0  0  0  0  0  0  0  0  0  0  0  0
    3.4279    0.3786    5.2684 C   0  0  0  0  0  0  0  0  0  0  0  0
    2.6535   -0.2416    6.2540 C   0  0  0  0  0  0  0  0  0  0  0  0
    1.4361   -0.8421    5.9295 C   0  0  0  0  0  0  0  0  0  0  0  0
    0.9812   -0.8116    4.6099 C   0  0  0  0  0  0  0  0  0  0  0  0
    3.2251   -0.2780    7.9050 Cl  0  0  0  0  0  0  0  0  0  0  0  0
    2.5375   -0.0416   -1.2242 C   0  0  0  0  0  0  0  0  0  0  0  0
    1.9469    0.1000   -2.4916 C   0  0  0  0  0  0  0  0  0  0  0  0
    2.7324    0.0857   -3.6438 C   0  0  0  0  0  0  0  0  0  0  0  0
    4.1185   -0.0694   -3.5467 C   0  0  0  0  0  0  0  0  0  0  0  0
    4.7140   -0.2110   -2.2884 C   0  0  0  0  0  0  0  0  0  0  0  0
    3.9330   -0.1984   -1.1348 C   0  0  0  0  0  0  0  0  0  0  0  0
   -1.9567    0.8842    2.0181 H   0  0  0  0  0  0  0  0  0  0  0  0
   -1.0885    0.4721    3.5256 H   0  0  0  0  0  0  0  0  0  0  0  0
   -3.1682   -2.2815    1.5502 H   0  0  0  0  0  0  0  0  0  0  0  0
    3.5640    0.8783    3.1751 H   0  0  0  0  0  0  0  0  0  0  0  0
    4.3825    0.8340    5.5359 H   0  0  0  0  0  0  0  0  0  0  0  0
    0.8548   -1.3449    6.7034 H   0  0  0  0  0  0  0  0  0  0  0  0
    0.0504   -1.3261    4.3683 H   0  0  0  0  0  0  0  0  0  0  0  0
    0.8647    0.2248   -2.5800 H   0  0  0  0  0  0  0  0  0  0  0  0
    2.2600    0.1972   -4.6224 H   0  0  0  0  0  0  0  0  0  0  0  0
    4.7332   -0.0805   -4.4497 H   0  0  0  0  0  0  0  0  0  0  0  0
    5.7966   -0.3341   -2.2071 H   0  0  0  0  0  0  0  0  0  0  0  0
    4.3801   -0.3110   -0.1465 H   0  0  0  0  0  0  0  0  0  0  0  0
  1  2  1  0
  1  5  1  0
  2  3  2  0
  2 17  1  0
  3  4  1  0
  4  5  2  0
  4 10  1  0
  5  6  1  0
  6  7  1  0
  6 23  1  0
  6 24  1  0
  7  8  2  0
  7  9  1  0
  9 25  1  0
 10 11  2  0
 10 15  1  0
 11 12  1  0
 11 26  1  0
 12 13  2  0
 12 27  1  0
 13 14  1  0
 13 16  1  0
 14 15  2  0
 14 28  1  0
 15 29  1  0
 17 18  2  0
 17 22  1  0
 18 19  1  0
 18 30  1  0
 19 20  2  0
 19 31  1  0
 20 21  1  0
 20 32  1  0
 21 22  2  0
 21 33  1  0
 22 34  1  0
M  END

