34
rmsd210.gzmat
S          0.00000        0.00000        0.00000
C          1.78530        0.00000        0.00000
N          2.29000        0.00000        1.21310
C          1.30690        0.01150        2.20590
C          0.00880        0.00040        1.74770
C         -1.22870       -0.01320        2.54490
C         -1.85170        1.35680        2.53260
O         -1.49470        2.34700        3.11120
O         -2.95580        1.35910        1.74540
C          1.74910        0.03430        3.59800
C          1.25370        1.01140        4.46710
C          1.66540        1.03110        5.79730
C          2.57220        0.06760        6.21980
C          3.09230       -0.90400        5.37490
C          2.67660       -0.91240        4.04560
Cl         3.07850        0.08450        7.85650
C          2.57470        0.04950       -1.21730
C          3.74040        0.82640       -1.22800
C          4.50900        0.91030       -2.38500
C          4.12230        0.21620       -3.53030
C          2.97060       -0.56940       -3.51610
C          2.19610       -0.65800       -2.36210
H         -1.01790       -0.30230        3.60750
H         -1.95550       -0.78180        2.18180
H         -3.40010        2.24160        1.68390
H          0.55570        1.77040        4.09850
H          1.28480        1.79200        6.47850
H          3.81180       -1.64070        5.73030
H          3.07940       -1.64760        3.34630
H          4.04310        1.35730       -0.32140
H          5.41310        1.51690       -2.39250
H          4.72240        0.28430       -4.43610
H          2.67540       -1.11750       -4.40890
H          1.30830       -1.28880       -2.36150
