34
rmsd238.gzmat
S          0.00000        0.00000        0.00000
C          1.78530        0.00000        0.00000
N          2.28940        0.00000        1.21390
C          1.30550       -0.00990        2.20680
C          0.00800        0.00550        1.74670
C         -1.23230        0.03530        2.53880
C         -1.86980       -1.32790        2.53500
O         -1.53260       -2.31370        3.13220
O         -2.96170       -1.32830        1.73090
C          1.74510       -0.04110        3.59990
C          2.68220        0.89360        4.05310
C          3.10420        0.86910        5.38030
C          2.58200       -0.10760        6.21800
C          1.66060       -1.05520        5.79180
C          1.24080       -1.01790        4.46450
Cl         3.10670       -0.15190        7.84810
C          2.56800       -0.05010       -1.22140
C          2.13510        0.58350       -2.39090
C          2.89370        0.48210       -3.55410
C          4.08540       -0.24170       -3.55390
C          4.53030       -0.85500       -2.38390
C          3.77710       -0.75880       -1.21760
H         -1.94940        0.80880        2.16630
H         -1.02310        0.33220        3.59890
H         -3.41360       -2.20690        1.66770
H          3.08800        1.63230        3.35940
H          3.83070        1.59650        5.74070
H          1.27500       -1.81810        6.46780
H          0.52840       -1.76400        4.09680
H          1.21430        1.16540       -2.40450
H          2.55340        0.96950       -4.46610
H          4.66950       -0.32670       -4.46840
H          5.46730       -1.40970       -2.38130
H          4.12360       -1.22910       -0.29320
