34
rmsd113.gzmat
S          0.00000        0.00000        0.00000
C          1.78560        0.00000        0.00000
N          2.29160        0.00000        1.21150
C          1.30850       -0.02680        2.20610
C          0.01010       -0.01870        1.74830
C         -1.22760       -0.00550        2.54590
C         -1.85320       -1.37460        2.53310
O         -1.54600       -2.34330        3.17300
O         -2.89120       -1.40500        1.66090
C          1.75010       -0.05360        3.59850
C          2.70230        0.87270        4.03880
C          3.11760        0.86570        5.36810
C          2.57320       -0.08410        6.22270
C          1.64360       -1.02820        5.80820
C          1.23200       -1.01030        4.47770
Cl         3.07680       -0.09460        7.86030
C          2.56420        0.03320       -1.22600
C          3.65930        0.90120       -1.31120
C          4.41180        0.95670       -2.48090
C          4.08080        0.14290       -3.56310
C          3.00040       -0.73360       -3.47300
C          2.24120       -0.79290       -2.30710
H         -1.95430        0.76310        2.18240
H         -1.01630        0.28390        3.60840
H         -3.32890       -2.28960        1.58960
H          3.12470        1.59060        3.33340
H          3.85540        1.58620        5.71780
H          1.24420       -1.77390        6.49520
H          0.51480       -1.75660        4.12040
H          3.92410        1.52350       -0.45450
H          5.26190        1.63350       -2.54790
H          4.66930        0.18830       -4.47800
H          2.75050       -1.37730       -4.31490
H          1.41080       -1.49500       -2.24250
