34

S         -0.01330        0.08180       -0.00410
C          1.74240       -0.02920        0.00980
N          2.24410       -0.11090        1.20990
C          1.28850       -0.10380        2.19850
C         -0.01220        0.02340        1.73550
C         -1.29940        0.14500        2.49990
C         -2.03370       -1.18410        2.56820
O         -1.94870       -1.98420        3.46650
O         -2.77730       -1.39400        1.46850
C          1.73110       -0.17200        3.60610
C          2.96660        0.40520        3.95540
C          3.42790        0.37860        5.26840
C          2.65350       -0.24160        6.25400
C          1.43610       -0.84210        5.92950
C          0.98120       -0.81160        4.60990
Cl         3.22510       -0.27800        7.90500
C          2.53750       -0.04160       -1.22420
C          1.94690        0.10000       -2.49160
C          2.73240        0.08570       -3.64380
C          4.11850       -0.06940       -3.54670
C          4.71400       -0.21100       -2.28840
C          3.93300       -0.19840       -1.13480
H         -1.95670        0.88420        2.01810
H         -1.08850        0.47210        3.52560
H         -3.16820       -2.28150        1.55020
H          3.56400        0.87830        3.17510
H          4.38250        0.83400        5.53590
H          0.85480       -1.34490        6.70340
H          0.05040       -1.32610        4.36830
H          0.86470        0.22480       -2.58000
H          2.26000        0.19720       -4.62240
H          4.73320       -0.08050       -4.44970
H          5.79660       -0.33410       -2.20710
H          4.38010       -0.31100       -0.14650
