rmsd49.gzmat
 OpenBabel08211713393D

 43 45  0  0  0  0  0  0  0  0999 V2000
    0.0000    0.0000    0.0000 Cl  0  0  0  0  0  0  0  0  0  0  0  0
    1.7164    0.0000    0.0000 C   0  0  0  0  0  0  0  0  0  0  0  0
    2.3785    0.0000    1.2159 C   0  0  0  0  0  0  0  0  0  0  0  0
    3.7755    0.0056    1.1896 C   0  0  0  0  0  0  0  0  0  0  0  0
    4.4687    0.0135   -0.0125 C   0  0  0  0  0  0  0  0  0  0  0  0
    3.7697    0.0117   -1.2365 C   0  0  0  0  0  0  0  0  0  0  0  0
    2.3613    0.0024   -1.2268 C   0  0  0  0  0  0  0  0  0  0  0  0
    4.4516    0.0659   -2.4546 N   0  0  0  0  0  0  0  0  0  0  0  0
    3.7359    0.0320   -3.7494 C   0  0  0  0  0  0  0  0  0  0  0  0
    4.8715   -0.0422   -4.8086 C   0  0  0  0  0  0  0  0  0  0  0  0
    6.0981   -0.3053   -4.0210 N   0  0  0  0  0  0  0  0  0  0  0  0
    5.8419   -0.1038   -2.6454 C   0  0  0  0  0  0  0  0  0  0  0  0
    6.6801   -0.1152   -1.7759 O   0  0  0  0  0  0  0  0  0  0  0  0
    7.3636    0.2244   -4.5383 C   0  0  0  0  0  0  0  0  0  0  0  0
    7.5431    1.7514   -4.3432 C   0  0  0  0  0  0  0  0  0  0  0  0
    6.7288    2.4599   -5.3398 N   0  0  0  0  0  0  0  0  0  0  0  0
    6.5542    3.9320   -5.0689 C   0  0  0  0  0  0  0  0  0  0  0  0
    7.2084    4.2889   -6.4484 C   0  0  0  0  0  0  0  0  0  0  0  0
    7.4233    2.7477   -6.6461 C   0  0  0  0  0  0  0  0  0  0  0  0
    8.4967    5.0798   -6.3307 C   0  0  0  0  0  0  0  0  0  0  0  0
    6.2527    4.9148   -7.4433 C   0  0  0  0  0  0  0  0  0  0  0  0
    1.8416   -0.0034    2.1606 H   0  0  0  0  0  0  0  0  0  0  0  0
    4.3312    0.0086    2.1292 H   0  0  0  0  0  0  0  0  0  0  0  0
    5.5623    0.0237   -0.0004 H   0  0  0  0  0  0  0  0  0  0  0  0
    1.7879    0.0000   -2.1481 H   0  0  0  0  0  0  0  0  0  0  0  0
    3.1260    0.9516   -3.8685 H   0  0  0  0  0  0  0  0  0  0  0  0
    3.0663   -0.8505   -3.8148 H   0  0  0  0  0  0  0  0  0  0  0  0
    4.7242   -0.8817   -5.5166 H   0  0  0  0  0  0  0  0  0  0  0  0
    4.9423    0.8996   -5.3984 H   0  0  0  0  0  0  0  0  0  0  0  0
    7.4367   -0.0407   -5.6162 H   0  0  0  0  0  0  0  0  0  0  0  0
    8.1854   -0.3127   -4.0033 H   0  0  0  0  0  0  0  0  0  0  0  0
    8.6232    2.0049   -4.3858 H   0  0  0  0  0  0  0  0  0  0  0  0
    7.2000    2.0371   -3.3212 H   0  0  0  0  0  0  0  0  0  0  0  0
    7.0787    4.3279   -4.1933 H   0  0  0  0  0  0  0  0  0  0  0  0
    5.4851    4.1720   -4.9819 H   0  0  0  0  0  0  0  0  0  0  0  0
    6.8607    2.3027   -7.4774 H   0  0  0  0  0  0  0  0  0  0  0  0
    8.4690    2.4338   -6.7169 H   0  0  0  0  0  0  0  0  0  0  0  0
    9.1982    4.6243   -5.6220 H   0  0  0  0  0  0  0  0  0  0  0  0
    8.3045    6.1035   -5.9857 H   0  0  0  0  0  0  0  0  0  0  0  0
    9.0107    5.1528   -7.2970 H   0  0  0  0  0  0  0  0  0  0  0  0
    5.3356    4.3222   -7.5539 H   0  0  0  0  0  0  0  0  0  0  0  0
    6.7080    5.0005   -8.4372 H   0  0  0  0  0  0  0  0  0  0  0  0
    5.9533    5.9226   -7.1303 H   0  0  0  0  0  0  0  0  0  0  0  0
  1  2  1  0  0  0  0
  2  3  2  0  0  0  0
  3 22  1  0  0  0  0
  4  3  1  0  0  0  0
  4 23  1  0  0  0  0
  5 24  1  0  0  0  0
  5  4  2  0  0  0  0
  6  7  2  0  0  0  0
  6  5  1  0  0  0  0
  7  2  1  0  0  0  0
  8  6  1  0  0  0  0
  9  8  1  0  0  0  0
 10 11  1  0  0  0  0
 10  9  1  0  0  0  0
 11 12  1  0  0  0  0
 12  8  1  0  0  0  0
 12 13  2  0  0  0  0
 14 15  1  0  0  0  0
 14 11  1  0  0  0  0
 14 31  1  0  0  0  0
 15 33  1  0  0  0  0
 16 17  1  0  0  0  0
 16 15  1  0  0  0  0
 17 35  1  0  0  0  0
 17 34  1  0  0  0  0
 18 20  1  0  0  0  0
 18 17  1  0  0  0  0
 19 18  1  0  0  0  0
 19 16  1  0  0  0  0
 20 39  1  0  0  0  0
 20 38  1  0  0  0  0
 21 43  1  0  0  0  0
 21 18  1  0  0  0  0
 25  7  1  0  0  0  0
 26  9  1  0  0  0  0
 27  9  1  0  0  0  0
 28 10  1  0  0  0  0
 29 10  1  0  0  0  0
 30 14  1  0  0  0  0
 32 15  1  0  0  0  0
 36 19  1  0  0  0  0
 37 19  1  0  0  0  0
 40 20  1  0  0  0  0
 41 21  1  0  0  0  0
 42 21  1  0  0  0  0
M  END
$$$$
