
     RDKit          3D

 43 45  0  0  0  0  0  0  0  0999 V2000
    0.4259    0.9363    0.3266 Cl  0  0  0  0  0  0  0  0  0  0  0  0
    2.1004    0.4473    0.1735 C   0  0  0  0  0  0  0  0  0  0  0  0
    2.8186    0.1193    1.3271 C   0  0  0  0  0  0  0  0  0  0  0  0
    4.1495   -0.2673    1.1784 C   0  0  0  0  0  0  0  0  0  0  0  0
    4.7500   -0.3267   -0.0801 C   0  0  0  0  0  0  0  0  0  0  0  0
    4.0159    0.0104   -1.2348 C   0  0  0  0  0  0  0  0  0  0  0  0
    2.6685    0.4027   -1.0964 C   0  0  0  0  0  0  0  0  0  0  0  0
    4.6399   -0.0335   -2.4881 N   0  0  0  0  0  0  0  0  0  0  0  0
    6.0412   -0.4029   -2.6479 C   0  0  0  0  0  0  0  0  0  0  0  0
    6.2974   -0.1512   -4.1408 C   0  0  0  0  0  0  0  0  0  0  0  0
    4.9583   -0.2204   -4.6962 N   0  0  0  0  0  0  0  0  0  0  0  0
    3.9993    0.0098   -3.7356 C   0  0  0  0  0  0  0  0  0  0  0  0
    2.8192    0.2125   -3.9529 O   0  0  0  0  0  0  0  0  0  0  0  0
    4.6576    0.0235   -6.0916 C   0  0  0  0  0  0  0  0  0  0  0  0
    4.5990    1.5055   -6.4670 C   0  0  0  0  0  0  0  0  0  0  0  0
    5.8627    2.1731   -6.2684 N   0  0  0  0  0  0  0  0  0  0  0  0
    6.9786    1.9116   -7.1865 C   0  0  0  0  0  0  0  0  0  0  0  0
    7.3943    3.4066   -7.0744 C   0  0  0  0  0  0  0  0  0  0  0  0
    5.9625    3.6181   -6.5027 C   0  0  0  0  0  0  0  0  0  0  0  0
    7.7201    4.1218   -8.3777 C   0  0  0  0  0  0  0  0  0  0  0  0
    8.4784    3.6297   -6.0220 C   0  0  0  0  0  0  0  0  0  0  0  0
    2.3412    0.1670    2.3059 H   0  0  0  0  0  0  0  0  0  0  0  0
    4.7354   -0.5325    2.0617 H   0  0  0  0  0  0  0  0  0  0  0  0
    5.7899   -0.6409   -0.1541 H   0  0  0  0  0  0  0  0  0  0  0  0
    2.0848    0.6544   -1.9769 H   0  0  0  0  0  0  0  0  0  0  0  0
    6.1992   -1.4626   -2.3746 H   0  0  0  0  0  0  0  0  0  0  0  0
    6.6915    0.2129   -2.0098 H   0  0  0  0  0  0  0  0  0  0  0  0
    6.7372    0.8441   -4.3209 H   0  0  0  0  0  0  0  0  0  0  0  0
    6.9592   -0.9130   -4.5823 H   0  0  0  0  0  0  0  0  0  0  0  0
    3.6812   -0.4334   -6.3093 H   0  0  0  0  0  0  0  0  0  0  0  0
    5.4136   -0.5000   -6.6999 H   0  0  0  0  0  0  0  0  0  0  0  0
    3.8379    1.9925   -5.8367 H   0  0  0  0  0  0  0  0  0  0  0  0
    4.2465    1.5879   -7.5235 H   0  0  0  0  0  0  0  0  0  0  0  0
    6.6460    1.6458   -8.2122 H   0  0  0  0  0  0  0  0  0  0  0  0
    7.7082    1.1550   -6.8459 H   0  0  0  0  0  0  0  0  0  0  0  0
    5.8572    4.2491   -5.6029 H   0  0  0  0  0  0  0  0  0  0  0  0
    5.2570    3.9834   -7.2775 H   0  0  0  0  0  0  0  0  0  0  0  0
    6.9378    3.9592   -9.1354 H   0  0  0  0  0  0  0  0  0  0  0  0
    8.6759    3.7635   -8.7950 H   0  0  0  0  0  0  0  0  0  0  0  0
    7.8144    5.2085   -8.2162 H   0  0  0  0  0  0  0  0  0  0  0  0
    8.2286    3.1122   -5.0830 H   0  0  0  0  0  0  0  0  0  0  0  0
    8.5940    4.7032   -5.7992 H   0  0  0  0  0  0  0  0  0  0  0  0
    9.4522    3.2511   -6.3742 H   0  0  0  0  0  0  0  0  0  0  0  0
  1  2  1  0
  2  3  2  0
  2  7  1  0
  3  4  1  0
  3 22  1  0
  4  5  2  0
  4 23  1  0
  5  6  1  0
  5 24  1  0
  6  7  2  0
  6  8  1  0
  7 25  1  0
  8  9  1  0
  8 12  1  0
  9 10  1  0
  9 26  1  0
  9 27  1  0
 10 11  1  0
 10 28  1  0
 10 29  1  0
 11 12  1  0
 11 14  1  0
 12 13  2  0
 14 15  1  0
 14 30  1  0
 14 31  1  0
 15 16  1  0
 15 32  1  0
 15 33  1  0
 16 17  1  0
 16 19  1  0
 17 18  1  0
 17 34  1  0
 17 35  1  0
 18 19  1  0
 18 20  1  0
 18 21  1  0
 19 36  1  0
 19 37  1  0
 20 38  1  0
 20 39  1  0
 20 40  1  0
 21 41  1  0
 21 42  1  0
 21 43  1  0
M  END

