
     RDKit          3D

 43 45  0  0  0  0  0  0  0  0999 V2000
   -0.0895    1.1835   -0.3117 Cl  0  0  0  0  0  0  0  0  0  0  0  0
    1.5449    0.5588   -0.2229 C   0  0  0  0  0  0  0  0  0  0  0  0
    2.0584    0.1462    1.0047 C   0  0  0  0  0  0  0  0  0  0  0  0
    3.3680   -0.3433    1.0328 C   0  0  0  0  0  0  0  0  0  0  0  0
    4.1471   -0.4272   -0.1182 C   0  0  0  0  0  0  0  0  0  0  0  0
    3.6149   -0.0061   -1.3555 C   0  0  0  0  0  0  0  0  0  0  0  0
    2.2988    0.4934   -1.3954 C   0  0  0  0  0  0  0  0  0  0  0  0
    4.3480   -0.0849   -2.5463 N   0  0  0  0  0  0  0  0  0  0  0  0
    3.7895    0.3154   -3.8324 C   0  0  0  0  0  0  0  0  0  0  0  0
    4.8846   -0.0935   -4.8278 C   0  0  0  0  0  0  0  0  0  0  0  0
    6.0639   -0.1377   -3.9828 N   0  0  0  0  0  0  0  0  0  0  0  0
    5.7315   -0.2918   -2.6557 C   0  0  0  0  0  0  0  0  0  0  0  0
    6.5117   -0.5595   -1.7609 O   0  0  0  0  0  0  0  0  0  0  0  0
    7.3705   -0.5465   -4.4542 C   0  0  0  0  0  0  0  0  0  0  0  0
    7.5483   -2.0623   -4.5620 C   0  0  0  0  0  0  0  0  0  0  0  0
    6.6402   -2.6558   -5.5131 N   0  0  0  0  0  0  0  0  0  0  0  0
    6.8560   -2.4554   -6.9519 C   0  0  0  0  0  0  0  0  0  0  0  0
    6.3728   -3.9122   -7.2064 C   0  0  0  0  0  0  0  0  0  0  0  0
    6.6207   -4.1129   -5.6833 C   0  0  0  0  0  0  0  0  0  0  0  0
    7.2185   -4.7542   -8.1510 C   0  0  0  0  0  0  0  0  0  0  0  0
    4.8902   -3.9768   -7.5670 C   0  0  0  0  0  0  0  0  0  0  0  0
    1.4492    0.2081    1.9065 H   0  0  0  0  0  0  0  0  0  0  0  0
    3.7942   -0.6725    1.9837 H   0  0  0  0  0  0  0  0  0  0  0  0
    5.1657   -0.8029   -0.0806 H   0  0  0  0  0  0  0  0  0  0  0  0
    1.8461    0.8379   -2.3224 H   0  0  0  0  0  0  0  0  0  0  0  0
    3.5981    1.4042   -3.8526 H   0  0  0  0  0  0  0  0  0  0  0  0
    2.8387   -0.1998   -4.0320 H   0  0  0  0  0  0  0  0  0  0  0  0
    4.6902   -1.0855   -5.2688 H   0  0  0  0  0  0  0  0  0  0  0  0
    4.9978    0.6379   -5.6435 H   0  0  0  0  0  0  0  0  0  0  0  0
    8.1192   -0.1537   -3.7509 H   0  0  0  0  0  0  0  0  0  0  0  0
    7.5464   -0.0662   -5.4309 H   0  0  0  0  0  0  0  0  0  0  0  0
    7.3615   -2.5043   -3.5703 H   0  0  0  0  0  0  0  0  0  0  0  0
    8.6148   -2.2750   -4.8165 H   0  0  0  0  0  0  0  0  0  0  0  0
    7.9255   -2.3169   -7.2171 H   0  0  0  0  0  0  0  0  0  0  0  0
    6.2707   -1.6391   -7.4120 H   0  0  0  0  0  0  0  0  0  0  0  0
    5.8460   -4.6442   -5.1030 H   0  0  0  0  0  0  0  0  0  0  0  0
    7.6033   -4.5880   -5.4828 H   0  0  0  0  0  0  0  0  0  0  0  0
    8.2871   -4.7060   -7.8899 H   0  0  0  0  0  0  0  0  0  0  0  0
    7.1080   -4.4084   -9.1923 H   0  0  0  0  0  0  0  0  0  0  0  0
    6.9091   -5.8121   -8.1174 H   0  0  0  0  0  0  0  0  0  0  0  0
    4.2888   -3.3687   -6.8737 H   0  0  0  0  0  0  0  0  0  0  0  0
    4.5197   -5.0140   -7.5199 H   0  0  0  0  0  0  0  0  0  0  0  0
    4.7177   -3.6028   -8.5897 H   0  0  0  0  0  0  0  0  0  0  0  0
  1  2  1  0
  2  3  2  0
  2  7  1  0
  3  4  1  0
  3 22  1  0
  4  5  2  0
  4 23  1  0
  5  6  1  0
  5 24  1  0
  6  7  2  0
  6  8  1  0
  7 25  1  0
  8  9  1  0
  8 12  1  0
  9 10  1  0
  9 26  1  0
  9 27  1  0
 10 11  1  0
 10 28  1  0
 10 29  1  0
 11 12  1  0
 11 14  1  0
 12 13  2  0
 14 15  1  0
 14 30  1  0
 14 31  1  0
 15 16  1  0
 15 32  1  0
 15 33  1  0
 16 17  1  0
 16 19  1  0
 17 18  1  0
 17 34  1  0
 17 35  1  0
 18 19  1  0
 18 20  1  0
 18 21  1  0
 19 36  1  0
 19 37  1  0
 20 38  1  0
 20 39  1  0
 20 40  1  0
 21 41  1  0
 21 42  1  0
 21 43  1  0
M  END

