rmsd206.gzmat
 OpenBabel08211713393D

 43 44  0  0  0  0  0  0  0  0999 V2000
    0.0000    0.0000    0.0000 Cl  0  0  0  0  0  0  0  0  0  0  0  0
    1.7168    0.0000    0.0000 C   0  0  0  0  0  0  0  0  0  0  0  0
    2.3776    0.0000    1.2166 C   0  0  0  0  0  0  0  0  0  0  0  0
    3.7748    0.0026    1.1925 C   0  0  0  0  0  0  0  0  0  0  0  0
    4.4690    0.0040   -0.0088 C   0  0  0  0  0  0  0  0  0  0  0  0
    3.7712   -0.0009   -1.2337 C   0  0  0  0  0  0  0  0  0  0  0  0
    2.3624   -0.0021   -1.2265 C   0  0  0  0  0  0  0  0  0  0  0  0
    4.4542    0.0332   -2.4512 N   0  0  0  0  0  0  0  0  0  0  0  0
    3.7410   -0.0498   -3.7449 C   0  0  0  0  0  0  0  0  0  0  0  0
    4.8795   -0.1307   -4.8004 C   0  0  0  0  0  0  0  0  0  0  0  0
    6.1130   -0.3378   -4.0057 N   0  0  0  0  0  0  0  0  0  0  0  0
    5.8490   -0.1040   -2.6368 C   0  0  0  0  0  0  0  0  0  0  0  0
    6.6860   -0.0688   -1.7664 O   0  0  0  0  0  0  0  0  0  0  0  0
    7.3630    0.2176   -4.5357 C   0  0  0  0  0  0  0  0  0  0  0  0
    7.5311    1.7437   -4.3166 C   0  0  0  0  0  0  0  0  0  0  0  0
    6.5781    2.4512   -5.1798 N   0  0  0  0  0  0  0  0  0  0  0  0
    6.2606    3.8609   -4.7562 C   0  0  0  0  0  0  0  0  0  0  0  0
    6.7145    4.4058   -6.1546 C   0  0  0  0  0  0  0  0  0  0  0  0
    7.1216    2.9308   -6.4994 C   0  0  0  0  0  0  0  0  0  0  0  0
    7.8788    5.3731   -6.0898 C   0  0  0  0  0  0  0  0  0  0  0  0
    5.5816    4.9432   -7.0049 C   0  0  0  0  0  0  0  0  0  0  0  0
    1.8398   -0.0021    2.1607 H   0  0  0  0  0  0  0  0  0  0  0  0
    4.3285    0.0030    2.1331 H   0  0  0  0  0  0  0  0  0  0  0  0
    5.5626    0.0094    0.0043 H   0  0  0  0  0  0  0  0  0  0  0  0
    1.7890   -0.0026   -2.1481 H   0  0  0  0  0  0  0  0  0  0  0  0
    3.1140    0.8546   -3.8908 H   0  0  0  0  0  0  0  0  0  0  0  0
    3.0887   -0.9466   -3.7852 H   0  0  0  0  0  0  0  0  0  0  0  0
    4.7538   -0.9951   -5.4817 H   0  0  0  0  0  0  0  0  0  0  0  0
    4.9256    0.7951   -5.4166 H   0  0  0  0  0  0  0  0  0  0  0  0
    7.4224   -0.0265   -5.6187 H   0  0  0  0  0  0  0  0  0  0  0  0
    8.1994   -0.3173   -4.0211 H   0  0  0  0  0  0  0  0  0  0  0  0
    8.5898    2.0263   -4.4932 H   0  0  0  0  0  0  0  0  0  0  0  0
    7.3204    1.9862   -3.2485 H   0  0  0  0  0  0  0  0  0  0  0  0
    6.8300    4.2497   -3.9056 H   0  0  0  0  0  0  0  0  0  0  0  0
    5.1876    3.9557   -4.5394 H   0  0  0  0  0  0  0  0  0  0  0  0
    6.5624    2.4743   -7.3266 H   0  0  0  0  0  0  0  0  0  0  0  0
    8.1917    2.7772   -6.6675 H   0  0  0  0  0  0  0  0  0  0  0  0
    8.7046    4.9853   -5.4824 H   0  0  0  0  0  0  0  0  0  0  0  0
    7.5746    6.3323   -5.6516 H   0  0  0  0  0  0  0  0  0  0  0  0
    8.2787    5.5844   -7.0887 H   0  0  0  0  0  0  0  0  0  0  0  0
    4.7288    4.2518   -7.0239 H   0  0  0  0  0  0  0  0  0  0  0  0
    5.8989    5.1012   -8.0425 H   0  0  0  0  0  0  0  0  0  0  0  0
    5.2146    5.9037   -6.6231 H   0  0  0  0  0  0  0  0  0  0  0  0
  1  2  1  0  0  0  0
  2  3  2  0  0  0  0
  3 22  1  0  0  0  0
  4  3  1  0  0  0  0
  4 23  1  0  0  0  0
  5 24  1  0  0  0  0
  5  4  2  0  0  0  0
  6  7  2  0  0  0  0
  6  5  1  0  0  0  0
  7  2  1  0  0  0  0
  8  6  1  0  0  0  0
  9  8  1  0  0  0  0
 10 11  1  0  0  0  0
 10  9  1  0  0  0  0
 11 12  1  0  0  0  0
 12  8  1  0  0  0  0
 12 13  2  0  0  0  0
 14 15  1  0  0  0  0
 14 31  1  0  0  0  0
 14 11  1  0  0  0  0
 15 33  1  0  0  0  0
 16 17  1  0  0  0  0
 16 15  1  0  0  0  0
 17 35  1  0  0  0  0
 17 34  1  0  0  0  0
 18 20  1  0  0  0  0
 18 17  1  0  0  0  0
 19 18  1  0  0  0  0
 19 16  1  0  0  0  0
 20 39  1  0  0  0  0
 20 38  1  0  0  0  0
 21 43  1  0  0  0  0
 21 18  1  0  0  0  0
 25  7  1  0  0  0  0
 26  9  1  0  0  0  0
 27  9  1  0  0  0  0
 28 10  1  0  0  0  0
 29 10  1  0  0  0  0
 32 15  1  0  0  0  0
 36 19  1  0  0  0  0
 37 19  1  0  0  0  0
 40 20  1  0  0  0  0
 41 21  1  0  0  0  0
 42 21  1  0  0  0  0
M  RAD  2  14   2  30   2
M  END
$$$$
