43
rmsd211.gzmat
Cl         0.00000        0.00000        0.00000
C          1.71660        0.00000        0.00000
C          2.37870        0.00000        1.21580
C          3.77570       -0.00780        1.19020
C          4.46880       -0.01090       -0.01210
C          3.76960       -0.00360       -1.23600
C          2.36130       -0.00240       -1.22690
N          4.45020       -0.04400       -2.45640
C          3.73060        0.06780       -3.74550
C          4.85980        0.24040       -4.79930
N          6.08770        0.44900       -3.99820
C          5.84000        0.14310       -2.64170
O          6.68430        0.08840       -1.77950
C          7.35890       -0.01690       -4.55810
C          7.54210       -1.55530       -4.54850
N          6.71200       -2.15060       -5.60430
C          7.32520       -2.14520       -6.98090
C          7.24530       -3.71010       -7.04840
C          6.67280       -3.65680       -5.58950
C          8.59700       -4.38780       -7.15600
C          6.26690       -4.23810       -8.07710
H          1.84150        0.00290        2.16030
H          4.33010       -0.01250        2.13030
H          5.56260       -0.01980       -0.00030
H          1.78710       -0.00890       -2.14830
H          3.04010        0.93600       -3.74920
H          3.14180       -0.85620       -3.92600
H          4.93420       -0.65020       -5.46350
H          4.70140        1.13330       -5.43560
H          8.17370        0.45130       -3.95110
H          7.44490        0.37750       -5.59490
H          7.21120       -1.96340       -3.56430
H          8.62200       -1.79720       -4.63940
H          8.33510       -1.73170       -7.05860
H          6.66750       -1.61740       -7.68430
H          5.63460       -4.00200       -5.48240
H          7.29080       -4.14940       -4.83230
H          9.31880       -3.98450       -6.43640
H          9.02880       -4.26030       -8.15650
H          8.51810       -5.46600       -6.96870
H          5.28380       -3.75870       -7.98540
H          6.11370       -5.31860       -7.96670
H          6.62290       -4.05940       -9.09860
