rmsd43.gzmat
 OpenBabel08211713393D

 43 45  0  0  0  0  0  0  0  0999 V2000
    0.0000    0.0000    0.0000 Cl  0  0  0  0  0  0  0  0  0  0  0  0
    1.7168    0.0000    0.0000 C   0  0  0  0  0  0  0  0  0  0  0  0
    2.3764    0.0000    1.2173 C   0  0  0  0  0  0  0  0  0  0  0  0
    3.7733   -0.0048    1.1941 C   0  0  0  0  0  0  0  0  0  0  0  0
    4.4690   -0.0033   -0.0065 C   0  0  0  0  0  0  0  0  0  0  0  0
    3.7727    0.0016   -1.2319 C   0  0  0  0  0  0  0  0  0  0  0  0
    2.3636    0.0000   -1.2257 C   0  0  0  0  0  0  0  0  0  0  0  0
    4.4542   -0.0321   -2.4511 N   0  0  0  0  0  0  0  0  0  0  0  0
    3.7432    0.1285   -3.7391 C   0  0  0  0  0  0  0  0  0  0  0  0
    4.8809    0.2832   -4.7868 C   0  0  0  0  0  0  0  0  0  0  0  0
    6.1221    0.3878   -3.9847 N   0  0  0  0  0  0  0  0  0  0  0  0
    5.8525    0.0775   -2.6329 C   0  0  0  0  0  0  0  0  0  0  0  0
    6.6890   -0.0383   -1.7692 O   0  0  0  0  0  0  0  0  0  0  0  0
    7.3504   -0.1721   -4.5578 C   0  0  0  0  0  0  0  0  0  0  0  0
    7.4425   -1.7190   -4.4912 C   0  0  0  0  0  0  0  0  0  0  0  0
    6.4910   -2.2887   -5.4528 N   0  0  0  0  0  0  0  0  0  0  0  0
    7.0594   -2.6540   -6.7985 C   0  0  0  0  0  0  0  0  0  0  0  0
    6.5815   -4.1377   -6.6203 C   0  0  0  0  0  0  0  0  0  0  0  0
    6.0964   -3.7179   -5.1895 C   0  0  0  0  0  0  0  0  0  0  0  0
    7.7069   -5.1529   -6.6207 C   0  0  0  0  0  0  0  0  0  0  0  0
    5.4588   -4.5393   -7.5552 C   0  0  0  0  0  0  0  0  0  0  0  0
    1.8360    0.0032    2.1600 H   0  0  0  0  0  0  0  0  0  0  0  0
    4.3254   -0.0077    2.1357 H   0  0  0  0  0  0  0  0  0  0  0  0
    5.5629   -0.0063    0.0082 H   0  0  0  0  0  0  0  0  0  0  0  0
    1.7919   -0.0087   -2.1485 H   0  0  0  0  0  0  0  0  0  0  0  0
    3.0823    1.0194   -3.7264 H   0  0  0  0  0  0  0  0  0  0  0  0
    3.1241   -0.7712   -3.9405 H   0  0  0  0  0  0  0  0  0  0  0  0
    4.9043   -0.5795   -5.4897 H   0  0  0  0  0  0  0  0  0  0  0  0
    4.7732    1.2115   -5.3825 H   0  0  0  0  0  0  0  0  0  0  0  0
    8.2066    0.2685   -3.9894 H   0  0  0  0  0  0  0  0  0  0  0  0
    7.4318    0.1746   -5.6112 H   0  0  0  0  0  0  0  0  0  0  0  0
    7.1820   -2.0576   -3.4611 H   0  0  0  0  0  0  0  0  0  0  0  0
    8.4932   -2.0332   -4.6632 H   0  0  0  0  0  0  0  0  0  0  0  0
    8.1403   -2.5305   -6.9176 H   0  0  0  0  0  0  0  0  0  0  0  0
    6.5471   -2.0924   -7.5910 H   0  0  0  0  0  0  0  0  0  0  0  0
    5.0111   -3.7822   -5.0271 H   0  0  0  0  0  0  0  0  0  0  0  0
    6.6107   -4.2184   -4.3627 H   0  0  0  0  0  0  0  0  0  0  0  0
    8.5251   -4.8628   -5.9508 H   0  0  0  0  0  0  0  0  0  0  0  0
    8.1335   -5.2747   -7.6238 H   0  0  0  0  0  0  0  0  0  0  0  0
    7.3538   -6.1394   -6.2939 H   0  0  0  0  0  0  0  0  0  0  0  0
    4.6418   -3.8058   -7.5461 H   0  0  0  0  0  0  0  0  0  0  0  0
    5.0298   -5.5085   -7.2726 H   0  0  0  0  0  0  0  0  0  0  0  0
    5.8098   -4.6238   -8.5903 H   0  0  0  0  0  0  0  0  0  0  0  0
  1  2  1  0  0  0  0
  2  3  2  0  0  0  0
  3 22  1  0  0  0  0
  4  3  1  0  0  0  0
  4 23  1  0  0  0  0
  5 24  1  0  0  0  0
  5  4  2  0  0  0  0
  6  7  2  0  0  0  0
  6  5  1  0  0  0  0
  7  2  1  0  0  0  0
  8  6  1  0  0  0  0
  9 26  1  0  0  0  0
  9  8  1  0  0  0  0
 10 11  1  0  0  0  0
 10  9  1  0  0  0  0
 11 12  1  0  0  0  0
 12  8  1  0  0  0  0
 12 13  2  0  0  0  0
 14 15  1  0  0  0  0
 14 30  1  0  0  0  0
 14 11  1  0  0  0  0
 15 32  1  0  0  0  0
 16 19  1  0  0  0  0
 16 15  1  0  0  0  0
 17 18  1  0  0  0  0
 17 16  1  0  0  0  0
 18 19  1  0  0  0  0
 19 36  1  0  0  0  0
 19 37  1  0  0  0  0
 20 18  1  0  0  0  0
 20 40  1  0  0  0  0
 20 38  1  0  0  0  0
 21 41  1  0  0  0  0
 21 42  1  0  0  0  0
 21 18  1  0  0  0  0
 25  7  1  0  0  0  0
 27  9  1  0  0  0  0
 28 10  1  0  0  0  0
 29 10  1  0  0  0  0
 31 14  1  0  0  0  0
 33 15  1  0  0  0  0
 34 17  1  0  0  0  0
 35 17  1  0  0  0  0
 39 20  1  0  0  0  0
 43 21  1  0  0  0  0
M  END
$$$$
