43
rmsd206.gzmat
Cl         0.00000        0.00000        0.00000
C          1.71680        0.00000        0.00000
C          2.37760        0.00000        1.21660
C          3.77480        0.00260        1.19250
C          4.46900        0.00400       -0.00880
C          3.77120       -0.00090       -1.23370
C          2.36240       -0.00210       -1.22650
N          4.45420        0.03320       -2.45120
C          3.74100       -0.04980       -3.74490
C          4.87950       -0.13070       -4.80040
N          6.11300       -0.33780       -4.00570
C          5.84900       -0.10400       -2.63680
O          6.68600       -0.06880       -1.76640
C          7.36300        0.21760       -4.53570
C          7.53110        1.74370       -4.31660
N          6.57810        2.45120       -5.17980
C          6.26060        3.86090       -4.75620
C          6.71450        4.40580       -6.15460
C          7.12160        2.93080       -6.49940
C          7.87880        5.37310       -6.08980
C          5.58160        4.94320       -7.00490
H          1.83980       -0.00210        2.16070
H          4.32850        0.00300        2.13310
H          5.56260        0.00940        0.00430
H          1.78900       -0.00260       -2.14810
H          3.11400        0.85460       -3.89080
H          3.08870       -0.94660       -3.78520
H          4.75380       -0.99510       -5.48170
H          4.92560        0.79510       -5.41660
H          7.42240       -0.02650       -5.61870
H          8.19940       -0.31730       -4.02110
H          8.58980        2.02630       -4.49320
H          7.32040        1.98620       -3.24850
H          6.83000        4.24970       -3.90560
H          5.18760        3.95570       -4.53940
H          6.56240        2.47430       -7.32660
H          8.19170        2.77720       -6.66750
H          8.70460        4.98530       -5.48240
H          7.57460        6.33230       -5.65160
H          8.27870        5.58440       -7.08870
H          4.72880        4.25180       -7.02390
H          5.89890        5.10120       -8.04250
H          5.21460        5.90370       -6.62310
