43
rmsd244.gzmat
Cl         0.00000        0.00000        0.00000
C          1.71630        0.00000        0.00000
C          2.37790        0.00000        1.21650
C          3.77490       -0.00520        1.19240
C          4.46910       -0.00660       -0.00950
C          3.77040       -0.00300       -1.23310
C          2.36150        0.00000       -1.22630
N          4.44700       -0.03500       -2.45500
C          3.75600        0.25130       -3.73110
C          4.90570        0.35840       -4.77190
N          6.15290        0.22770       -3.98330
C          5.84620       -0.09380       -2.63950
O          6.66140       -0.34820       -1.78570
C          7.26110       -0.51830       -4.58870
C          7.01950       -2.04650       -4.68560
N          6.16200       -2.32210       -5.84690
C          6.89460       -2.49210       -7.15290
C          6.33020       -3.94720       -7.30780
C          5.63970       -3.73400       -5.91610
C          7.39650       -5.02490       -7.30320
C          5.36240       -4.11630       -8.46050
H          1.83930        0.00260        2.16040
H          4.32820       -0.00680        2.13320
H          5.56260       -0.01290        0.00270
H          1.79060       -0.00900       -2.14960
H          3.17410        1.19330       -3.66930
H          3.06120       -0.57890       -3.97880
H          4.81660       -0.42440       -5.55840
H          4.91910        1.34720       -5.27300
H          8.16790       -0.32540       -3.96390
H          7.45430       -0.09080       -5.59790
H          6.50170       -2.40180       -3.76470
H          7.99480       -2.57590       -4.71460
H          7.98560       -2.42240       -7.10740
H          6.52100       -1.76900       -7.89030
H          4.54080       -3.72530       -5.93700
H          5.97430       -4.41350       -5.12610
H          8.10060       -4.90570       -6.47120
H          7.98160       -5.01170       -8.23090
H          6.95220       -6.02410       -7.21240
H          4.58350       -3.34270       -8.45220
H          4.85650       -5.08870       -8.41950
H          5.87510       -4.05290       -9.42780
