31
rmsd233.gzmat
S          0.00000        0.00000        0.00000
C          1.61020        0.00000        0.00000
O          2.29550        0.00000        1.20430
C          3.65680       -0.00050        0.93230
C          3.85990        0.00160       -0.46860
N          2.55660        0.00490       -1.04080
C          2.33420       -0.00430       -2.43490
O          3.23120        0.02250       -3.23650
O          1.00640       -0.01850       -2.68460
C          0.65320       -0.21090       -4.06630
C          0.75720       -1.66190       -4.41060
C          0.29330       -2.61600       -3.50330
C          0.40330       -3.97080       -3.80540
C          0.96140       -4.37160       -5.01840
C          1.41520       -3.41720       -5.92750
C          1.31880       -2.06090       -5.62320
C          5.13740       -0.00280       -0.99820
C          6.19600       -0.00810       -0.08120
C          5.98050       -0.00840        1.29800
C          4.68920       -0.00430        1.84240
H          1.26620        0.44480       -4.71180
H         -0.39890        0.14890       -4.05730
H         -0.14880       -2.29910       -2.55720
H          0.05380       -4.71600       -3.09280
H          1.04520       -5.43010       -5.25620
H          1.85080       -3.73160       -6.87370
H          1.69050       -1.32010       -6.32880
H          5.31220       -0.00420       -2.07550
H          7.21850       -0.01250       -0.46130
H          6.83680       -0.01330        1.97300
H          4.51520       -0.00430        2.91440
