rmsd85.gzmat
 OpenBabel08211713383D

 31 33  0  0  0  0  0  0  0  0999 V2000
    0.0000    0.0000    0.0000 S   0  0  0  0  0  0  0  0  0  0  0  0
    1.6104    0.0000    0.0000 C   0  0  0  0  0  0  0  0  0  0  0  0
    2.2960    0.0000    1.2044 O   0  0  0  0  0  0  0  0  0  0  0  0
    3.6575    0.0009    0.9319 C   0  0  0  0  0  0  0  0  0  0  0  0
    3.8601    0.0013   -0.4691 C   0  0  0  0  0  0  0  0  0  0  0  0
    2.5568    0.0036   -1.0412 N   0  0  0  0  0  0  0  0  0  0  0  0
    2.3370   -0.0024   -2.4353 C   0  0  0  0  0  0  0  0  0  0  0  0
    3.2372   -0.0032   -3.2342 O   0  0  0  0  0  0  0  0  0  0  0  0
    1.0113    0.0249   -2.6909 O   0  0  0  0  0  0  0  0  0  0  0  0
    0.6596   -0.1577   -4.0753 C   0  0  0  0  0  0  0  0  0  0  0  0
    0.6897   -1.6161   -4.4005 C   0  0  0  0  0  0  0  0  0  0  0  0
    1.3633   -2.0769   -5.5315 C   0  0  0  0  0  0  0  0  0  0  0  0
    1.3815   -3.4407   -5.8180 C   0  0  0  0  0  0  0  0  0  0  0  0
    0.7454   -4.3425   -4.9661 C   0  0  0  0  0  0  0  0  0  0  0  0
    0.0769   -3.8804   -3.8332 C   0  0  0  0  0  0  0  0  0  0  0  0
    0.0419   -2.5168   -3.5532 C   0  0  0  0  0  0  0  0  0  0  0  0
    5.1370   -0.0015   -1.0004 C   0  0  0  0  0  0  0  0  0  0  0  0
    6.1959    0.0003   -0.0838 C   0  0  0  0  0  0  0  0  0  0  0  0
    5.9813    0.0017    1.2960 C   0  0  0  0  0  0  0  0  0  0  0  0
    4.6903    0.0010    1.8415 C   0  0  0  0  0  0  0  0  0  0  0  0
    1.3116    0.4582   -4.7215 H   0  0  0  0  0  0  0  0  0  0  0  0
   -0.3706    0.2592   -4.0785 H   0  0  0  0  0  0  0  0  0  0  0  0
    1.8841   -1.3793   -6.1848 H   0  0  0  0  0  0  0  0  0  0  0  0
    1.8969   -3.8030   -6.7057 H   0  0  0  0  0  0  0  0  0  0  0  0
    0.7717   -5.4081   -5.1854 H   0  0  0  0  0  0  0  0  0  0  0  0
   -0.4190   -4.5843   -3.1676 H   0  0  0  0  0  0  0  0  0  0  0  0
   -0.4836   -2.1508   -2.6696 H   0  0  0  0  0  0  0  0  0  0  0  0
    5.3108   -0.0069   -2.0780 H   0  0  0  0  0  0  0  0  0  0  0  0
    7.2180    0.0007   -0.4641 H   0  0  0  0  0  0  0  0  0  0  0  0
    6.8380    0.0034    1.9704 H   0  0  0  0  0  0  0  0  0  0  0  0
    4.5172    0.0001    2.9139 H   0  0  0  0  0  0  0  0  0  0  0  0
  1  2  2  0  0  0  0
  2  3  1  0  0  0  0
  4  3  1  0  0  0  0
  4 20  2  0  0  0  0
  5  4  1  0  0  0  0
  6  5  1  0  0  0  0
  6  2  1  0  0  0  0
  7  6  1  0  0  0  0
  8  7  2  0  0  0  0
  9  7  1  0  0  0  0
 10  9  1  0  0  0  0
 11 10  1  0  0  0  0
 11 16  2  0  0  0  0
 12 11  1  0  0  0  0
 13 12  2  0  0  0  0
 13 14  1  0  0  0  0
 14 15  2  0  0  0  0
 15 16  1  0  0  0  0
 15 26  1  0  0  0  0
 16 27  1  0  0  0  0
 17  5  2  0  0  0  0
 17 18  1  0  0  0  0
 18 19  2  0  0  0  0
 19 20  1  0  0  0  0
 19 30  1  0  0  0  0
 20 31  1  0  0  0  0
 21 10  1  0  0  0  0
 22 10  1  0  0  0  0
 23 12  1  0  0  0  0
 24 13  1  0  0  0  0
 25 14  1  0  0  0  0
 28 17  1  0  0  0  0
 29 18  1  0  0  0  0
M  END
$$$$
