31
rmsd201.gzmat
S          0.00000        0.00000        0.00000
C          1.61020        0.00000        0.00000
O          2.29800        0.00000        1.20290
C          3.65910       -0.00180        0.92750
C          3.85860       -0.00730       -0.47410
N          2.55450       -0.00710       -1.04290
C          2.33120        0.02110       -2.43640
O          3.22780       -0.00070       -3.23890
O          1.00370        0.04680       -2.68540
C          0.65420        0.26120       -4.06480
C          0.80080        1.71120       -4.39740
C          0.27770        2.66920       -3.52760
C          0.41320        4.02270       -3.82550
C          1.06140        4.41810       -4.99500
C          1.58240        3.45990       -5.86290
C          1.45750        2.10510       -5.56320
C          5.13420       -0.00880       -1.00870
C          6.19550       -0.00190       -0.09490
C          5.98380        0.00390        1.28540
C          4.69440        0.00360        1.83440
H         -0.40810       -0.06750       -4.05560
H          1.24700       -0.40840       -4.71540
H         -0.23000        2.35540       -2.61410
H          0.01240        4.77160       -3.14480
H          1.16250        5.47590       -5.23000
H          2.09170        3.76950       -6.77320
H          1.88030        1.36030       -6.23510
H          5.30480       -0.01370       -2.08690
H          7.21690        0.00070       -0.47740
H          6.84190        0.00920        1.95760
H          4.52480        0.00900        2.90740
