31
rmsd112.gzmat
S          0.00000        0.00000        0.00000
C          1.60980        0.00000        0.00000
O          2.29630        0.00000        1.20410
C          3.65760       -0.00530        0.93090
C          3.85970       -0.01130       -0.47000
N          2.55650       -0.00140       -1.04110
C          2.33750        0.00010       -2.43460
O          3.23770       -0.03930       -3.23360
O          1.01590        0.08520       -2.69320
C          0.66040       -0.10640       -4.07670
C          0.60300       -1.57430       -4.35120
C         -0.31980       -2.36130       -3.65960
C         -0.37250       -3.73340       -3.89210
C          0.49380       -4.31850       -4.81510
C          1.42100       -3.53250       -5.49760
C          1.48070       -2.16020       -5.26280
C          5.13610       -0.02170       -1.00210
C          6.19560       -0.02100       -0.08620
C          5.98160       -0.01030        1.29340
C          4.69100       -0.00170        1.83970
H          1.35630        0.44610       -4.73500
H         -0.33660        0.38250       -4.09910
H         -0.98670       -1.90060       -2.92920
H         -1.08870       -4.34940       -3.35140
H          0.44890       -5.39060       -4.99970
H          2.10420       -3.99060       -6.20960
H          2.22220       -1.55200       -5.78060
H          5.30880       -0.03120       -2.07970
H          7.21740       -0.02910       -0.46720
H          6.83850       -0.00950        1.96740
H          4.51830        0.00790        2.91200
