39
rmsd36.gzmat
O          0.00000        0.00000        0.00000
C          1.44380        0.00000        0.00000
H          1.73750        0.00000        1.07420
C          1.83520       -1.25550       -0.73450
C          0.65900       -1.88530       -1.18000
C         -0.49290       -1.08280       -0.72130
O         -1.67250       -1.21600       -0.85120
C          0.69740       -3.06020       -1.90330
C          1.95550       -3.61320       -2.17880
C          3.12050       -2.99720       -1.72640
C          3.07430       -1.80440       -0.99100
C          1.86330        1.28060       -0.73280
C          3.30950        1.55960       -0.49020
O          3.95010        0.95950        0.34510
N          4.02680        2.52560       -1.25520
C          5.52000        2.47970       -1.08140
H          5.71970        2.42820        0.02820
C          6.13210        3.76480       -1.64770
S          4.83260        4.60360       -2.61580
C          3.52750        3.50050       -2.08440
S          1.99970        3.75690       -2.57620
C          6.08620        1.18440       -1.72920
C          5.90050        1.13030       -3.24390
C          7.56570        1.04270       -1.36110
H         -0.21780       -3.54260       -2.24680
H          2.01850       -4.53810       -2.75020
H          4.08820       -3.45010       -1.94370
H          3.98840       -1.33570       -0.62800
H          1.21980        2.12510       -0.37330
H          1.62370        1.18620       -1.81790
H          6.49290        4.43240       -0.84340
H          7.00630        3.55810       -2.29340
H          5.53610        0.31610       -1.27760
H          6.48400        1.89650       -3.76510
H          4.85060        1.26200       -3.53180
H          6.22180        0.15910       -3.64140
H          8.17930        1.84710       -1.77890
H          7.97180        0.09830       -1.74560
H          7.71310        1.03720       -0.27450
