rmsd89.gzmat
 OpenBabel08211713403D

 39 41  0  0  1  0  0  0  0  0999 V2000
    0.0000    0.0000    0.0000 O   0  0  0  0  0  0  0  0  0  0  0  0
    1.4451    0.0000    0.0000 C   0  0  1  0  0  0  0  0  0  0  0  0
    1.7260    0.0000    1.0782 H   0  0  0  0  0  0  0  0  0  0  0  0
    1.8367   -1.2766   -0.6949 C   0  0  0  0  0  0  0  0  0  0  0  0
    0.6598   -1.9509   -1.0664 C   0  0  0  0  0  0  0  0  0  0  0  0
   -0.4938   -1.1366   -0.6336 C   0  0  0  0  0  0  0  0  0  0  0  0
   -1.6744   -1.2903   -0.7258 O   0  0  0  0  0  0  0  0  0  0  0  0
    0.7016   -3.1694   -1.7136 C   0  0  0  0  0  0  0  0  0  0  0  0
    1.9622   -3.7170   -1.9890 C   0  0  0  0  0  0  0  0  0  0  0  0
    3.1273   -3.0496   -1.6184 C   0  0  0  0  0  0  0  0  0  0  0  0
    3.0792   -1.8120   -0.9607 C   0  0  0  0  0  0  0  0  0  0  0  0
    1.8893    1.2482   -0.7524 C   0  0  0  0  0  0  0  0  0  0  0  0
    1.5780    2.5111   -0.0061 C   0  0  0  0  0  0  0  0  0  0  0  0
    1.0092    3.4490   -0.4970 O   0  0  0  0  0  0  0  0  0  0  0  0
    1.9066    2.6199    1.3992 N   0  0  0  0  0  0  0  0  0  0  0  0
    0.8754    3.3241    2.2295 C   0  0  2  0  0  0  0  0  0  0  0  0
    0.6124    4.2793    1.6891 H   0  0  0  0  0  0  0  0  0  0  0  0
    1.4835    3.6609    3.5952 C   0  0  0  0  0  0  0  0  0  0  0  0
    3.0978    2.8041    3.7023 S   0  0  0  0  0  0  0  0  0  0  0  0
    3.0812    2.2805    1.9915 C   0  0  0  0  0  0  0  0  0  0  0  0
    4.3751    1.5339    1.3141 S   0  0  0  0  0  0  0  0  0  0  0  0
   -0.4027    2.4429    2.3114 C   0  0  0  0  0  0  0  0  0  0  0  0
   -0.2201    1.1876    3.1628 C   0  0  0  0  0  0  0  0  0  0  0  0
   -1.5568    3.2942    2.8457 C   0  0  0  0  0  0  0  0  0  0  0  0
   -0.2128   -3.6894   -1.9992 H   0  0  0  0  0  0  0  0  0  0  0  0
    2.0284   -4.6781   -2.4972 H   0  0  0  0  0  0  0  0  0  0  0  0
    4.0974   -3.4955   -1.8407 H   0  0  0  0  0  0  0  0  0  0  0  0
    3.9957   -1.3013   -0.6683 H   0  0  0  0  0  0  0  0  0  0  0  0
    1.3666    1.2949   -1.7424 H   0  0  0  0  0  0  0  0  0  0  0  0
    2.9744    1.1943   -1.0086 H   0  0  0  0  0  0  0  0  0  0  0  0
    1.6320    4.7497    3.7155 H   0  0  0  0  0  0  0  0  0  0  0  0
    0.8313    3.3407    4.4292 H   0  0  0  0  0  0  0  0  0  0  0  0
   -0.6625    2.1171    1.2664 H   0  0  0  0  0  0  0  0  0  0  0  0
   -0.1461    1.4098    4.2317 H   0  0  0  0  0  0  0  0  0  0  0  0
    0.6748    0.6247    2.8752 H   0  0  0  0  0  0  0  0  0  0  0  0
   -1.0740    0.5075    3.0328 H   0  0  0  0  0  0  0  0  0  0  0  0
   -1.3791    3.6383    3.8693 H   0  0  0  0  0  0  0  0  0  0  0  0
   -2.4911    2.7164    2.8555 H   0  0  0  0  0  0  0  0  0  0  0  0
   -1.7356    4.1758    2.2187 H   0  0  0  0  0  0  0  0  0  0  0  0
  1  2  1  0  0  0  0
  2  3  1  1  0  0  0
  4  2  1  0  0  0  0
  5  4  2  0  0  0  0
  5  6  1  0  0  0  0
  6  1  1  0  0  0  0
  7  6  2  0  0  0  0
  8  5  1  0  0  0  0
  9  8  2  0  0  0  0
  9 10  1  0  0  0  0
 10 11  2  0  0  0  0
 11  4  1  0  0  0  0
 11 28  1  0  0  0  0
 12 13  1  0  0  0  0
 12  2  1  0  0  0  0
 13 15  1  0  0  0  0
 14 13  2  0  0  0  0
 15 20  1  0  0  0  0
 15 16  1  0  0  0  0
 16 17  1  6  0  0  0
 16 22  1  0  0  0  0
 16 18  1  0  0  0  0
 18 19  1  0  0  0  0
 18 31  1  0  0  0  0
 18 32  1  0  0  0  0
 20 19  1  0  0  0  0
 21 20  2  0  0  0  0
 22 24  1  0  0  0  0
 22 23  1  0  0  0  0
 23 34  1  0  0  0  0
 24 38  1  0  0  0  0
 24 37  1  0  0  0  0
 25  8  1  0  0  0  0
 26  9  1  0  0  0  0
 27 10  1  0  0  0  0
 29 12  1  0  0  0  0
 30 12  1  0  0  0  0
 33 22  1  0  0  0  0
 35 23  1  0  0  0  0
 36 23  1  0  0  0  0
 39 24  1  0  0  0  0
M  END
$$$$
