39
rmsd35.gzmat
O          0.00000        0.00000        0.00000
C          1.44420        0.00000        0.00000
H          1.73620        0.00000        1.07450
C          1.83520       -1.25410       -0.73630
C          0.65940       -1.88620       -1.17860
C         -0.49290       -1.09100       -0.70850
O         -1.67290       -1.23480       -0.82180
C          0.69940       -3.05250       -1.91570
C          1.95830       -3.59450       -2.20800
C          3.12290       -2.97780       -1.75620
C          3.07490       -1.79430       -1.00630
C          1.86830        1.27990       -0.73180
C          3.29060        1.60630       -0.40830
O          3.93330        0.94940        0.38160
N          3.96120        2.70320       -1.01580
C          5.43050        2.81800       -0.72440
H          5.62860        2.36620        0.28720
C          5.77050        4.31360       -0.71150
S          4.55510        5.11240       -1.81890
C          3.42270        3.72080       -1.77420
S          2.00660        3.78620       -2.55860
C          6.25900        2.04370       -1.79110
C          7.74600        2.10670       -1.42430
C          5.82990        0.57610       -1.86680
H         -0.21500       -3.53580       -2.25920
H          2.02220       -4.51030       -2.79380
H          4.09120       -3.42130       -1.98820
H          3.98820       -1.32240       -0.64460
H          1.17490        2.10670       -0.43350
H          1.70980        1.15640       -1.82900
H          5.70200        4.73900        0.30630
H          6.79630        4.51820       -1.06530
H          6.10420        2.51470       -2.79140
H          7.93090        1.71680       -0.41640
H          8.15000        3.12280       -1.47080
H          8.34310        1.50000       -2.11760
H          5.85260        0.10100       -0.87650
H          6.49620        0.00090       -2.52040
H          4.81660        0.46790       -2.26860
