rmsd36.gzmat
 OpenBabel08211713403D

 39 41  0  0  1  0  0  0  0  0999 V2000
    0.0000    0.0000    0.0000 O   0  0  0  0  0  0  0  0  0  0  0  0
    1.4438    0.0000    0.0000 C   0  0  1  0  0  0  0  0  0  0  0  0
    1.7375    0.0000    1.0742 H   0  0  0  0  0  0  0  0  0  0  0  0
    1.8352   -1.2555   -0.7345 C   0  0  0  0  0  0  0  0  0  0  0  0
    0.6590   -1.8853   -1.1800 C   0  0  0  0  0  0  0  0  0  0  0  0
   -0.4929   -1.0828   -0.7213 C   0  0  0  0  0  0  0  0  0  0  0  0
   -1.6725   -1.2160   -0.8512 O   0  0  0  0  0  0  0  0  0  0  0  0
    0.6974   -3.0602   -1.9033 C   0  0  0  0  0  0  0  0  0  0  0  0
    1.9555   -3.6132   -2.1788 C   0  0  0  0  0  0  0  0  0  0  0  0
    3.1205   -2.9972   -1.7264 C   0  0  0  0  0  0  0  0  0  0  0  0
    3.0743   -1.8044   -0.9910 C   0  0  0  0  0  0  0  0  0  0  0  0
    1.8633    1.2806   -0.7328 C   0  0  0  0  0  0  0  0  0  0  0  0
    3.3095    1.5596   -0.4902 C   0  0  0  0  0  0  0  0  0  0  0  0
    3.9501    0.9595    0.3451 O   0  0  0  0  0  0  0  0  0  0  0  0
    4.0268    2.5256   -1.2552 N   0  0  0  0  0  0  0  0  0  0  0  0
    5.5200    2.4797   -1.0814 C   0  0  2  0  0  0  0  0  0  0  0  0
    5.7197    2.4282    0.0282 H   0  0  0  0  0  0  0  0  0  0  0  0
    6.1321    3.7648   -1.6477 C   0  0  0  0  0  0  0  0  0  0  0  0
    4.8326    4.6036   -2.6158 S   0  0  0  0  0  0  0  0  0  0  0  0
    3.5275    3.5005   -2.0844 C   0  0  0  0  0  0  0  0  0  0  0  0
    1.9997    3.7569   -2.5762 S   0  0  0  0  0  0  0  0  0  0  0  0
    6.0862    1.1844   -1.7292 C   0  0  0  0  0  0  0  0  0  0  0  0
    5.9005    1.1303   -3.2439 C   0  0  0  0  0  0  0  0  0  0  0  0
    7.5657    1.0427   -1.3611 C   0  0  0  0  0  0  0  0  0  0  0  0
   -0.2178   -3.5426   -2.2468 H   0  0  0  0  0  0  0  0  0  0  0  0
    2.0185   -4.5381   -2.7502 H   0  0  0  0  0  0  0  0  0  0  0  0
    4.0882   -3.4501   -1.9437 H   0  0  0  0  0  0  0  0  0  0  0  0
    3.9884   -1.3357   -0.6280 H   0  0  0  0  0  0  0  0  0  0  0  0
    1.2198    2.1251   -0.3733 H   0  0  0  0  0  0  0  0  0  0  0  0
    1.6237    1.1862   -1.8179 H   0  0  0  0  0  0  0  0  0  0  0  0
    6.4929    4.4324   -0.8434 H   0  0  0  0  0  0  0  0  0  0  0  0
    7.0063    3.5581   -2.2934 H   0  0  0  0  0  0  0  0  0  0  0  0
    5.5361    0.3161   -1.2776 H   0  0  0  0  0  0  0  0  0  0  0  0
    6.4840    1.8965   -3.7651 H   0  0  0  0  0  0  0  0  0  0  0  0
    4.8506    1.2620   -3.5318 H   0  0  0  0  0  0  0  0  0  0  0  0
    6.2218    0.1591   -3.6414 H   0  0  0  0  0  0  0  0  0  0  0  0
    8.1793    1.8471   -1.7789 H   0  0  0  0  0  0  0  0  0  0  0  0
    7.9718    0.0983   -1.7456 H   0  0  0  0  0  0  0  0  0  0  0  0
    7.7131    1.0372   -0.2745 H   0  0  0  0  0  0  0  0  0  0  0  0
  2  1  1  0  0  0  0
  2  3  1  1  0  0  0
  4  2  1  0  0  0  0
  5  4  2  0  0  0  0
  5  6  1  0  0  0  0
  6  1  1  0  0  0  0
  7  6  2  0  0  0  0
  8  5  1  0  0  0  0
  9  8  2  0  0  0  0
  9 10  1  0  0  0  0
 10 11  2  0  0  0  0
 11  4  1  0  0  0  0
 11 28  1  0  0  0  0
 12 13  1  0  0  0  0
 12 29  1  0  0  0  0
 12  2  1  0  0  0  0
 13 14  2  0  0  0  0
 15 16  1  0  0  0  0
 15 13  1  0  0  0  0
 16 17  1  1  0  0  0
 18 16  1  0  0  0  0
 18 31  1  0  0  0  0
 19 20  1  0  0  0  0
 19 18  1  0  0  0  0
 20 15  1  0  0  0  0
 21 20  2  0  0  0  0
 22 24  1  0  0  0  0
 22 33  1  0  0  0  0
 22 16  1  0  0  0  0
 23 22  1  0  0  0  0
 24 39  1  0  0  0  0
 25  8  1  0  0  0  0
 26  9  1  0  0  0  0
 27 10  1  0  0  0  0
 30 12  1  0  0  0  0
 32 18  1  0  0  0  0
 34 23  1  0  0  0  0
 35 23  1  0  0  0  0
 36 23  1  0  0  0  0
 37 24  1  0  0  0  0
 38 24  1  0  0  0  0
M  END
$$$$
