39
rmsd126.gzmat
O          0.00000        0.00000        0.00000
C          1.44550        0.00000        0.00000
H          1.73280        0.00000        1.07900
C          1.83670       -1.26160       -0.72260
C          0.65910       -1.92290       -1.11500
C         -0.49380       -1.11380       -0.66740
O         -1.67370       -1.26210       -0.77880
C          0.69540       -3.12370       -1.79420
C          1.95380       -3.67120       -2.08000
C          3.12090       -3.01560       -1.69510
C          3.07700       -1.79330       -1.00780
C          1.88140        1.26510       -0.74070
C          1.72150        2.44780        0.16990
O          1.86880        2.37320        1.36620
N          1.30870        3.70890       -0.35400
C          0.69230        4.65490        0.63370
H          0.04440        4.03590        1.31890
C         -0.18200        5.64340       -0.14850
S          0.37660        5.58800       -1.89200
C          1.43170        4.16420       -1.64270
S          2.39520        3.58460       -2.82180
C          1.78580        5.33360        1.50490
C          2.69400        6.28190        0.72560
C          1.11140        6.06700        2.66900
H         -0.22140       -3.62960       -2.09800
H          2.01580       -4.62120       -2.60950
H          4.08940       -3.45830       -1.93120
H          3.99600       -1.29160       -0.71410
H          1.28090        1.35750       -1.67610
H          2.94260        1.18140       -1.07200
H         -1.25250        5.37410       -0.08880
H         -0.09270        6.67210        0.24520
H          2.42420        4.51360        1.93400
H          2.15540        7.14310        0.31730
H          3.19370        5.77490       -0.10870
H          3.48680        6.67980        1.37200
H          0.51930        6.92390        2.33290
H          1.86140        6.45060        3.37310
H          0.45200        5.40260        3.24030
