rmsd126.gzmat
 OpenBabel08211713403D

 39 41  0  0  1  0  0  0  0  0999 V2000
    0.0000    0.0000    0.0000 O   0  0  0  0  0  0  0  0  0  0  0  0
    1.4455    0.0000    0.0000 C   0  0  1  0  0  0  0  0  0  0  0  0
    1.7328    0.0000    1.0790 H   0  0  0  0  0  0  0  0  0  0  0  0
    1.8367   -1.2616   -0.7226 C   0  0  0  0  0  0  0  0  0  0  0  0
    0.6591   -1.9229   -1.1150 C   0  0  0  0  0  0  0  0  0  0  0  0
   -0.4938   -1.1138   -0.6674 C   0  0  0  0  0  0  0  0  0  0  0  0
   -1.6737   -1.2621   -0.7788 O   0  0  0  0  0  0  0  0  0  0  0  0
    0.6954   -3.1237   -1.7942 C   0  0  0  0  0  0  0  0  0  0  0  0
    1.9538   -3.6712   -2.0800 C   0  0  0  0  0  0  0  0  0  0  0  0
    3.1209   -3.0156   -1.6951 C   0  0  0  0  0  0  0  0  0  0  0  0
    3.0770   -1.7933   -1.0078 C   0  0  0  0  0  0  0  0  0  0  0  0
    1.8814    1.2651   -0.7407 C   0  0  0  0  0  0  0  0  0  0  0  0
    1.7215    2.4478    0.1699 C   0  0  0  0  0  0  0  0  0  0  0  0
    1.8688    2.3732    1.3662 O   0  0  0  0  0  0  0  0  0  0  0  0
    1.3087    3.7089   -0.3540 N   0  0  0  0  0  0  0  0  0  0  0  0
    0.6923    4.6549    0.6337 C   0  0  2  0  0  0  0  0  0  0  0  0
    0.0444    4.0359    1.3189 H   0  0  0  0  0  0  0  0  0  0  0  0
   -0.1820    5.6434   -0.1485 C   0  0  0  0  0  0  0  0  0  0  0  0
    0.3766    5.5880   -1.8920 S   0  0  0  0  0  0  0  0  0  0  0  0
    1.4317    4.1642   -1.6427 C   0  0  0  0  0  0  0  0  0  0  0  0
    2.3952    3.5846   -2.8218 S   0  0  0  0  0  0  0  0  0  0  0  0
    1.7858    5.3336    1.5049 C   0  0  0  0  0  0  0  0  0  0  0  0
    2.6940    6.2819    0.7256 C   0  0  0  0  0  0  0  0  0  0  0  0
    1.1114    6.0670    2.6690 C   0  0  0  0  0  0  0  0  0  0  0  0
   -0.2214   -3.6296   -2.0980 H   0  0  0  0  0  0  0  0  0  0  0  0
    2.0158   -4.6212   -2.6095 H   0  0  0  0  0  0  0  0  0  0  0  0
    4.0894   -3.4583   -1.9312 H   0  0  0  0  0  0  0  0  0  0  0  0
    3.9960   -1.2916   -0.7141 H   0  0  0  0  0  0  0  0  0  0  0  0
    1.2809    1.3575   -1.6761 H   0  0  0  0  0  0  0  0  0  0  0  0
    2.9426    1.1814   -1.0720 H   0  0  0  0  0  0  0  0  0  0  0  0
   -1.2525    5.3741   -0.0888 H   0  0  0  0  0  0  0  0  0  0  0  0
   -0.0927    6.6721    0.2452 H   0  0  0  0  0  0  0  0  0  0  0  0
    2.4242    4.5136    1.9340 H   0  0  0  0  0  0  0  0  0  0  0  0
    2.1554    7.1431    0.3173 H   0  0  0  0  0  0  0  0  0  0  0  0
    3.1937    5.7749   -0.1087 H   0  0  0  0  0  0  0  0  0  0  0  0
    3.4868    6.6798    1.3720 H   0  0  0  0  0  0  0  0  0  0  0  0
    0.5193    6.9239    2.3329 H   0  0  0  0  0  0  0  0  0  0  0  0
    1.8614    6.4506    3.3731 H   0  0  0  0  0  0  0  0  0  0  0  0
    0.4520    5.4026    3.2403 H   0  0  0  0  0  0  0  0  0  0  0  0
  1  2  1  0  0  0  0
  2  3  1  1  0  0  0
  4  2  1  0  0  0  0
  5  4  2  0  0  0  0
  5  6  1  0  0  0  0
  6  1  1  0  0  0  0
  7  6  2  0  0  0  0
  8  5  1  0  0  0  0
  9  8  2  0  0  0  0
  9 10  1  0  0  0  0
 10 11  2  0  0  0  0
 11  4  1  0  0  0  0
 11 28  1  0  0  0  0
 12  2  1  0  0  0  0
 12 13  1  0  0  0  0
 13 14  2  0  0  0  0
 15 13  1  0  0  0  0
 15 16  1  0  0  0  0
 16 17  1  1  0  0  0
 16 22  1  0  0  0  0
 18 31  1  0  0  0  0
 18 32  1  0  0  0  0
 18 16  1  0  0  0  0
 19 20  1  0  0  0  0
 19 18  1  0  0  0  0
 20 15  1  0  0  0  0
 21 20  2  0  0  0  0
 22 33  1  0  0  0  0
 22 24  1  0  0  0  0
 23 36  1  0  0  0  0
 23 22  1  0  0  0  0
 24 39  1  0  0  0  0
 24 38  1  0  0  0  0
 25  8  1  0  0  0  0
 26  9  1  0  0  0  0
 27 10  1  0  0  0  0
 29 12  1  0  0  0  0
 30 12  1  0  0  0  0
 34 23  1  0  0  0  0
 35 23  1  0  0  0  0
 37 24  1  0  0  0  0
M  END
$$$$
