rmsd125.gzmat
 OpenBabel08211713403D

 39 41  0  0  1  0  0  0  0  0999 V2000
    0.0000    0.0000    0.0000 O   0  0  0  0  0  0  0  0  0  0  0  0
    1.4455    0.0000    0.0000 C   0  0  1  0  0  0  0  0  0  0  0  0
    1.7305    0.0000    1.0794 H   0  0  0  0  0  0  0  0  0  0  0  0
    1.8369   -1.2606   -0.7255 C   0  0  0  0  0  0  0  0  0  0  0  0
    0.6593   -1.9251   -1.1122 C   0  0  0  0  0  0  0  0  0  0  0  0
   -0.4935   -1.1216   -0.6544 C   0  0  0  0  0  0  0  0  0  0  0  0
   -1.6737   -1.2806   -0.7494 O   0  0  0  0  0  0  0  0  0  0  0  0
    0.6950   -3.1200   -1.8021 C   0  0  0  0  0  0  0  0  0  0  0  0
    1.9532   -3.6569   -2.1081 C   0  0  0  0  0  0  0  0  0  0  0  0
    3.1204   -3.0002   -1.7254 C   0  0  0  0  0  0  0  0  0  0  0  0
    3.0767   -1.7857   -1.0249 C   0  0  0  0  0  0  0  0  0  0  0  0
    1.8874    1.2625   -0.7404 C   0  0  0  0  0  0  0  0  0  0  0  0
    1.7499    2.4520    0.1646 C   0  0  0  0  0  0  0  0  0  0  0  0
    1.8394    2.3801    1.3660 O   0  0  0  0  0  0  0  0  0  0  0  0
    1.4253    3.7288   -0.3866 N   0  0  0  0  0  0  0  0  0  0  0  0
    0.7935    4.7084    0.5569 C   0  0  2  0  0  0  0  0  0  0  0  0
    0.0872    4.1221    1.2123 H   0  0  0  0  0  0  0  0  0  0  0  0
    0.0004    5.7174   -0.2837 C   0  0  0  0  0  0  0  0  0  0  0  0
    0.6679    5.6338   -1.9874 S   0  0  0  0  0  0  0  0  0  0  0  0
    1.6454    4.1692   -1.6673 C   0  0  0  0  0  0  0  0  0  0  0  0
    2.6509    3.5395   -2.7843 S   0  0  0  0  0  0  0  0  0  0  0  0
    1.8604    5.3594    1.4800 C   0  0  0  0  0  0  0  0  0  0  0  0
    2.8663    6.2364    0.7381 C   0  0  0  0  0  0  0  0  0  0  0  0
    1.1523    6.1661    2.5733 C   0  0  0  0  0  0  0  0  0  0  0  0
   -0.2227   -3.6286   -2.0989 H   0  0  0  0  0  0  0  0  0  0  0  0
    2.0151   -4.5992   -2.6513 H   0  0  0  0  0  0  0  0  0  0  0  0
    4.0888   -3.4353   -1.9748 H   0  0  0  0  0  0  0  0  0  0  0  0
    3.9966   -1.2836   -0.7353 H   0  0  0  0  0  0  0  0  0  0  0  0
    1.2784    1.3663   -1.6695 H   0  0  0  0  0  0  0  0  0  0  0  0
    2.9440    1.1635   -1.0838 H   0  0  0  0  0  0  0  0  0  0  0  0
   -1.0789    5.4794   -0.2908 H   0  0  0  0  0  0  0  0  0  0  0  0
    0.0948    6.7455    0.1100 H   0  0  0  0  0  0  0  0  0  0  0  0
    2.4238    4.5223    1.9756 H   0  0  0  0  0  0  0  0  0  0  0  0
    2.3996    7.1063    0.2650 H   0  0  0  0  0  0  0  0  0  0  0  0
    3.3990    5.6784   -0.0411 H   0  0  0  0  0  0  0  0  0  0  0  0
    3.6286    6.6212    1.4275 H   0  0  0  0  0  0  0  0  0  0  0  0
    0.6255    7.0379    2.1728 H   0  0  0  0  0  0  0  0  0  0  0  0
    1.8786    6.5392    3.3069 H   0  0  0  0  0  0  0  0  0  0  0  0
    0.4267    5.5569    3.1249 H   0  0  0  0  0  0  0  0  0  0  0  0
  1  2  1  0  0  0  0
  2  3  1  1  0  0  0
  4  2  1  0  0  0  0
  5  4  2  0  0  0  0
  5  6  1  0  0  0  0
  6  1  1  0  0  0  0
  7  6  2  0  0  0  0
  8  5  1  0  0  0  0
  9  8  2  0  0  0  0
  9 10  1  0  0  0  0
 10 11  2  0  0  0  0
 11 28  1  0  0  0  0
 11  4  1  0  0  0  0
 12  2  1  0  0  0  0
 12 13  1  0  0  0  0
 13 14  2  0  0  0  0
 15 13  1  0  0  0  0
 15 16  1  0  0  0  0
 16 17  1  1  0  0  0
 16 22  1  0  0  0  0
 18 32  1  0  0  0  0
 18 16  1  0  0  0  0
 19 20  1  0  0  0  0
 19 18  1  0  0  0  0
 20 15  1  0  0  0  0
 21 20  2  0  0  0  0
 22 33  1  0  0  0  0
 22 24  1  0  0  0  0
 23 36  1  0  0  0  0
 23 22  1  0  0  0  0
 24 39  1  0  0  0  0
 24 38  1  0  0  0  0
 25  8  1  0  0  0  0
 26  9  1  0  0  0  0
 27 10  1  0  0  0  0
 29 12  1  0  0  0  0
 30 12  1  0  0  0  0
 31 18  1  0  0  0  0
 34 23  1  0  0  0  0
 35 23  1  0  0  0  0
 37 24  1  0  0  0  0
M  END
$$$$
