rmsd127.gzmat
 OpenBabel08211713403D

 39 41  0  0  1  0  0  0  0  0999 V2000
    0.0000    0.0000    0.0000 O   0  0  0  0  0  0  0  0  0  0  0  0
    1.4455    0.0000    0.0000 C   0  0  1  0  0  0  0  0  0  0  0  0
    1.7326    0.0000    1.0797 H   0  0  0  0  0  0  0  0  0  0  0  0
    1.8374   -1.2657   -0.7146 C   0  0  0  0  0  0  0  0  0  0  0  0
    0.6602   -1.9470   -1.0720 C   0  0  0  0  0  0  0  0  0  0  0  0
   -0.4928   -1.1389   -0.6238 C   0  0  0  0  0  0  0  0  0  0  0  0
   -1.6726   -1.3043   -0.7082 O   0  0  0  0  0  0  0  0  0  0  0  0
    0.6969   -3.1601   -1.7289 C   0  0  0  0  0  0  0  0  0  0  0  0
    1.9555   -3.6937   -2.0385 C   0  0  0  0  0  0  0  0  0  0  0  0
    3.1222   -3.0162   -1.6922 C   0  0  0  0  0  0  0  0  0  0  0  0
    3.0778   -1.7859   -1.0190 C   0  0  0  0  0  0  0  0  0  0  0  0
    1.8865    1.2645   -0.7368 C   0  0  0  0  0  0  0  0  0  0  0  0
    1.7458    2.4460    0.1777 C   0  0  0  0  0  0  0  0  0  0  0  0
    1.7780    2.3522    1.3807 O   0  0  0  0  0  0  0  0  0  0  0  0
    1.4890    3.7428   -0.3629 N   0  0  0  0  0  0  0  0  0  0  0  0
    0.8692    4.7307    0.5807 C   0  0  2  0  0  0  0  0  0  0  0  0
    0.0990    4.1666    1.1817 H   0  0  0  0  0  0  0  0  0  0  0  0
    0.1770    5.8111   -0.2599 C   0  0  0  0  0  0  0  0  0  0  0  0
    0.8881    5.7195   -1.9446 S   0  0  0  0  0  0  0  0  0  0  0  0
    1.7677    4.1938   -1.6278 C   0  0  0  0  0  0  0  0  0  0  0  0
    2.7602    3.5279   -2.7356 S   0  0  0  0  0  0  0  0  0  0  0  0
    1.9249    5.2886    1.5753 C   0  0  0  0  0  0  0  0  0  0  0  0
    3.0081    6.1369    0.9136 C   0  0  0  0  0  0  0  0  0  0  0  0
    1.2092    6.0871    2.6694 C   0  0  0  0  0  0  0  0  0  0  0  0
   -0.2207   -3.6843   -1.9974 H   0  0  0  0  0  0  0  0  0  0  0  0
    2.0184   -4.6498   -2.5569 H   0  0  0  0  0  0  0  0  0  0  0  0
    4.0905   -3.4473   -1.9489 H   0  0  0  0  0  0  0  0  0  0  0  0
    3.9961   -1.2688   -0.7510 H   0  0  0  0  0  0  0  0  0  0  0  0
    1.2771    1.3765   -1.6649 H   0  0  0  0  0  0  0  0  0  0  0  0
    2.9428    1.1655   -1.0810 H   0  0  0  0  0  0  0  0  0  0  0  0
   -0.9160    5.6521   -0.3055 H   0  0  0  0  0  0  0  0  0  0  0  0
    0.3318    6.8209    0.1615 H   0  0  0  0  0  0  0  0  0  0  0  0
    2.4226    4.4052    2.0614 H   0  0  0  0  0  0  0  0  0  0  0  0
    2.6109    7.0519    0.4628 H   0  0  0  0  0  0  0  0  0  0  0  0
    3.5393    5.5818    0.1316 H   0  0  0  0  0  0  0  0  0  0  0  0
    3.7627    6.4451    1.6487 H   0  0  0  0  0  0  0  0  0  0  0  0
    0.7710    7.0149    2.2891 H   0  0  0  0  0  0  0  0  0  0  0  0
    1.9115    6.3661    3.4657 H   0  0  0  0  0  0  0  0  0  0  0  0
    0.4098    5.5038    3.1418 H   0  0  0  0  0  0  0  0  0  0  0  0
  1  2  1  0  0  0  0
  2  3  1  1  0  0  0
  4  2  1  0  0  0  0
  5  4  2  0  0  0  0
  5  6  1  0  0  0  0
  6  1  1  0  0  0  0
  7  6  2  0  0  0  0
  8  5  1  0  0  0  0
  9  8  2  0  0  0  0
  9 10  1  0  0  0  0
 10 11  2  0  0  0  0
 11 28  1  0  0  0  0
 11  4  1  0  0  0  0
 12  2  1  0  0  0  0
 12 13  1  0  0  0  0
 13 14  2  0  0  0  0
 15 13  1  0  0  0  0
 15 16  1  0  0  0  0
 16 17  1  1  0  0  0
 16 22  1  0  0  0  0
 18 32  1  0  0  0  0
 18 16  1  0  0  0  0
 19 20  1  0  0  0  0
 19 18  1  0  0  0  0
 20 15  1  0  0  0  0
 21 20  2  0  0  0  0
 22 33  1  0  0  0  0
 22 24  1  0  0  0  0
 23 22  1  0  0  0  0
 23 36  1  0  0  0  0
 24 39  1  0  0  0  0
 24 38  1  0  0  0  0
 25  8  1  0  0  0  0
 26  9  1  0  0  0  0
 27 10  1  0  0  0  0
 29 12  1  0  0  0  0
 30 12  1  0  0  0  0
 31 18  1  0  0  0  0
 34 23  1  0  0  0  0
 35 23  1  0  0  0  0
 37 24  1  0  0  0  0
M  END
$$$$
