rmsd66.gzmat
 OpenBabel08211713403D

 39 41  0  0  1  0  0  0  0  0999 V2000
    0.0000    0.0000    0.0000 O   0  0  0  0  0  0  0  0  0  0  0  0
    1.4445    0.0000    0.0000 C   0  0  1  0  0  0  0  0  0  0  0  0
    1.7386    0.0000    1.0736 H   0  0  0  0  0  0  0  0  0  0  0  0
    1.8351   -1.2579   -0.7304 C   0  0  0  0  0  0  0  0  0  0  0  0
    0.6594   -1.8854   -1.1804 C   0  0  0  0  0  0  0  0  0  0  0  0
   -0.4927   -1.0842   -0.7195 C   0  0  0  0  0  0  0  0  0  0  0  0
   -1.6728   -1.2205   -0.8437 O   0  0  0  0  0  0  0  0  0  0  0  0
    0.6985   -3.0583   -1.9072 C   0  0  0  0  0  0  0  0  0  0  0  0
    1.9562   -3.6168   -2.1735 C   0  0  0  0  0  0  0  0  0  0  0  0
    3.1202   -3.0076   -1.7101 C   0  0  0  0  0  0  0  0  0  0  0  0
    3.0730   -1.8136   -0.9762 C   0  0  0  0  0  0  0  0  0  0  0  0
    1.8601    1.2839   -0.7294 C   0  0  0  0  0  0  0  0  0  0  0  0
    3.3117    1.5597   -0.5070 C   0  0  0  0  0  0  0  0  0  0  0  0
    3.9936    0.8682    0.2177 O   0  0  0  0  0  0  0  0  0  0  0  0
    3.9672    2.6479   -1.1470 N   0  0  0  0  0  0  0  0  0  0  0  0
    5.4624    2.6816   -1.0197 C   0  0  2  0  0  0  0  0  0  0  0  0
    5.7522    2.1588   -0.0661 H   0  0  0  0  0  0  0  0  0  0  0  0
    5.8761    4.1577   -0.9608 C   0  0  0  0  0  0  0  0  0  0  0  0
    4.5865    5.0729   -1.8791 S   0  0  0  0  0  0  0  0  0  0  0  0
    3.4018    3.7261   -1.7940 C   0  0  0  0  0  0  0  0  0  0  0  0
    1.9200    3.8902   -2.4270 S   0  0  0  0  0  0  0  0  0  0  0  0
    6.1244    1.9434   -2.2200 C   0  0  0  0  0  0  0  0  0  0  0  0
    7.6379    1.8681   -1.9894 C   0  0  0  0  0  0  0  0  0  0  0  0
    5.5691    0.5255   -2.3758 C   0  0  0  0  0  0  0  0  0  0  0  0
   -0.2163   -3.5342   -2.2609 H   0  0  0  0  0  0  0  0  0  0  0  0
    2.0201   -4.5412   -2.7454 H   0  0  0  0  0  0  0  0  0  0  0  0
    4.0877   -3.4649   -1.9177 H   0  0  0  0  0  0  0  0  0  0  0  0
    3.9866   -1.3478   -0.6063 H   0  0  0  0  0  0  0  0  0  0  0  0
    1.2175    2.1233   -0.3601 H   0  0  0  0  0  0  0  0  0  0  0  0
    1.6160    1.1973   -1.8145 H   0  0  0  0  0  0  0  0  0  0  0  0
    5.9423    4.5210    0.0809 H   0  0  0  0  0  0  0  0  0  0  0  0
    6.8654    4.3390   -1.4163 H   0  0  0  0  0  0  0  0  0  0  0  0
    5.9220    2.5109   -3.1602 H   0  0  0  0  0  0  0  0  0  0  0  0
    7.8796    1.3602   -1.0479 H   0  0  0  0  0  0  0  0  0  0  0  0
    8.1090    2.8562   -1.9688 H   0  0  0  0  0  0  0  0  0  0  0  0
    8.1265    1.3021   -2.7933 H   0  0  0  0  0  0  0  0  0  0  0  0
    5.6391   -0.0391   -1.4368 H   0  0  0  0  0  0  0  0  0  0  0  0
    6.1231   -0.0352   -3.1383 H   0  0  0  0  0  0  0  0  0  0  0  0
    4.5183    0.5288   -2.6870 H   0  0  0  0  0  0  0  0  0  0  0  0
  1  2  1  0  0  0  0
  2  3  1  1  0  0  0
  4  2  1  0  0  0  0
  5  4  2  0  0  0  0
  5  6  1  0  0  0  0
  6  1  1  0  0  0  0
  7  6  2  0  0  0  0
  8  5  1  0  0  0  0
  9  8  2  0  0  0  0
  9 10  1  0  0  0  0
 10 11  2  0  0  0  0
 11  4  1  0  0  0  0
 11 28  1  0  0  0  0
 12 13  1  0  0  0  0
 12 29  1  0  0  0  0
 12  2  1  0  0  0  0
 13 14  2  0  0  0  0
 15 16  1  0  0  0  0
 15 13  1  0  0  0  0
 16 18  1  0  0  0  0
 16 17  1  1  0  0  0
 18 31  1  0  0  0  0
 19 20  1  0  0  0  0
 19 18  1  0  0  0  0
 20 15  1  0  0  0  0
 21 20  2  0  0  0  0
 22 23  1  0  0  0  0
 22 16  1  0  0  0  0
 23 35  1  0  0  0  0
 23 34  1  0  0  0  0
 24 22  1  0  0  0  0
 24 37  1  0  0  0  0
 25  8  1  0  0  0  0
 26  9  1  0  0  0  0
 27 10  1  0  0  0  0
 30 12  1  0  0  0  0
 32 18  1  0  0  0  0
 33 22  1  0  0  0  0
 36 23  1  0  0  0  0
 38 24  1  0  0  0  0
 39 24  1  0  0  0  0
M  END
$$$$
