
     RDKit          3D

 48 50  0  0  0  0  0  0  0  0999 V2000
    0.0220   -0.0244    0.1544 N   0  0  0  0  0  0  0  0  0  0  0  0
    1.5043   -0.0391    0.0916 C   0  0  0  0  0  0  0  0  0  0  0  0
    2.1085   -0.3458    1.4622 C   0  0  0  0  0  0  0  0  0  0  0  0
    2.0342   -0.9654   -1.0023 C   0  0  0  0  0  0  0  0  0  0  0  0
   -0.6020    1.2232    0.2000 C   0  0  0  0  0  0  0  0  0  0  0  0
    0.0339    2.2606    0.1724 O   0  0  0  0  0  0  0  0  0  0  0  0
   -2.1026    1.2430    0.2335 C   0  0  0  0  0  0  0  0  0  0  0  0
   -2.9024    0.4049   -0.5567 C   0  0  0  0  0  0  0  0  0  0  0  0
   -4.2910    0.5100   -0.5149 C   0  0  0  0  0  0  0  0  0  0  0  0
   -4.9226    1.4454    0.3204 C   0  0  0  0  0  0  0  0  0  0  0  0
   -4.1134    2.2876    1.0972 C   0  0  0  0  0  0  0  0  0  0  0  0
   -2.7227    2.1994    1.0462 C   0  0  0  0  0  0  0  0  0  0  0  0
   -6.4262    1.5430    0.3617 C   0  0  0  0  0  0  0  0  0  0  0  0
   -0.6440   -1.2031    0.5516 C   0  0  0  0  0  0  0  0  0  0  0  0
   -1.2592   -1.3955    1.7873 C   0  0  0  0  0  0  0  0  0  0  0  0
   -2.0356   -2.9502    1.8743 S   0  0  0  0  0  0  0  0  0  0  0  0
   -1.5158   -3.3665    0.2672 C   0  0  0  0  0  0  0  0  0  0  0  0
   -0.7853   -2.3377   -0.2966 C   0  0  0  0  0  0  0  0  0  0  0  0
   -1.8681   -4.6564   -0.3364 C   0  0  0  0  0  0  0  0  0  0  0  0
   -2.9904   -5.3866    0.0980 C   0  0  0  0  0  0  0  0  0  0  0  0
   -3.3157   -6.6095   -0.4874 C   0  0  0  0  0  0  0  0  0  0  0  0
   -2.5311   -7.1256   -1.5229 C   0  0  0  0  0  0  0  0  0  0  0  0
   -1.4142   -6.4096   -1.9646 C   0  0  0  0  0  0  0  0  0  0  0  0
   -1.0825   -5.1902   -1.3761 C   0  0  0  0  0  0  0  0  0  0  0  0
   -1.2870   -0.4834    2.9338 C   0  0  0  0  0  0  0  0  0  0  0  0
   -0.7384    0.5949    2.9950 O   0  0  0  0  0  0  0  0  0  0  0  0
   -2.0043   -0.9864    3.9634 O   0  0  0  0  0  0  0  0  0  0  0  0
    1.7532    0.9970   -0.1709 H   0  0  0  0  0  0  0  0  0  0  0  0
    1.8612   -1.3699    1.7873 H   0  0  0  0  0  0  0  0  0  0  0  0
    1.7261    0.3569    2.2149 H   0  0  0  0  0  0  0  0  0  0  0  0
    3.2057   -0.2620    1.4202 H   0  0  0  0  0  0  0  0  0  0  0  0
    1.8866   -2.0276   -0.7523 H   0  0  0  0  0  0  0  0  0  0  0  0
    3.1166   -0.8052   -1.1250 H   0  0  0  0  0  0  0  0  0  0  0  0
    1.5479   -0.7590   -1.9682 H   0  0  0  0  0  0  0  0  0  0  0  0
   -2.4397   -0.3300   -1.2161 H   0  0  0  0  0  0  0  0  0  0  0  0
   -4.8987   -0.1479   -1.1425 H   0  0  0  0  0  0  0  0  0  0  0  0
   -4.5826    3.0280    1.7507 H   0  0  0  0  0  0  0  0  0  0  0  0
   -2.0960    2.8589    1.6476 H   0  0  0  0  0  0  0  0  0  0  0  0
   -6.7641    2.2637    1.1204 H   0  0  0  0  0  0  0  0  0  0  0  0
   -6.8842    0.5668    0.5911 H   0  0  0  0  0  0  0  0  0  0  0  0
   -6.8300    1.8661   -0.6126 H   0  0  0  0  0  0  0  0  0  0  0  0
   -0.4134   -2.3570   -1.3185 H   0  0  0  0  0  0  0  0  0  0  0  0
   -3.6236   -4.9817    0.8910 H   0  0  0  0  0  0  0  0  0  0  0  0
   -4.1925   -7.1593   -0.1376 H   0  0  0  0  0  0  0  0  0  0  0  0
   -2.7878   -8.0826   -1.9828 H   0  0  0  0  0  0  0  0  0  0  0  0
   -0.7902   -6.8089   -2.7676 H   0  0  0  0  0  0  0  0  0  0  0  0
   -0.1929   -4.6529   -1.7097 H   0  0  0  0  0  0  0  0  0  0  0  0
   -1.9646   -0.3269    4.6760 H   0  0  0  0  0  0  0  0  0  0  0  0
  1  2  1  0
  1  5  1  0
  1 14  1  0
  2  3  1  0
  2  4  1  0
  2 28  1  0
  3 29  1  0
  3 30  1  0
  3 31  1  0
  4 32  1  0
  4 33  1  0
  4 34  1  0
  5  6  2  0
  5  7  1  0
  7  8  2  0
  7 12  1  0
  8  9  1  0
  8 35  1  0
  9 10  2  0
  9 36  1  0
 10 11  1  0
 10 13  1  0
 11 12  2  0
 11 37  1  0
 12 38  1  0
 13 39  1  0
 13 40  1  0
 13 41  1  0
 14 15  2  0
 14 18  1  0
 15 16  1  0
 15 25  1  0
 16 17  1  0
 17 18  2  0
 17 19  1  0
 18 42  1  0
 19 20  2  0
 19 24  1  0
 20 21  1  0
 20 43  1  0
 21 22  2  0
 21 44  1  0
 22 23  1  0
 22 45  1  0
 23 24  2  0
 23 46  1  0
 24 47  1  0
 25 26  2  0
 25 27  1  0
 27 48  1  0
M  END

