48

N          0.05130       -0.11830       -0.19100
C          1.52600        0.04650       -0.19170
C          1.98420        0.89940        0.99170
C          2.26410       -1.28920       -0.27070
C         -0.67990        0.67920       -1.07240
O         -0.13860        1.46580       -1.82710
C         -2.16960        0.49610       -1.09350
C         -2.79230       -0.75970       -1.05730
C         -4.17980       -0.86200       -1.13200
C         -4.98660        0.28230       -1.23660
C         -4.35330        1.53310       -1.28430
C         -2.96430        1.64080       -1.22790
C         -6.48670        0.15800       -1.31430
C         -0.55510       -0.74370        0.91950
C         -1.28130       -0.08430        1.90940
S         -1.92560       -1.20360        3.07510
C         -1.18270       -2.55850        2.27490
C         -0.49800       -2.14780        1.14690
C         -1.34850       -3.92470        2.78440
C         -1.16420       -5.03000        1.93140
C         -1.31110       -6.33110        2.40920
C         -1.65240       -6.55780        3.74620
C         -1.84350       -5.46960        4.60240
C         -1.69030       -4.16740        4.12830
C         -1.51980        1.35490        2.04720
O         -1.09370        2.21770        1.31130
O         -2.28490        1.64020        3.12470
H          1.71320        0.60940       -1.11490
H          1.78910        0.39030        1.95000
H          1.45500        1.86190        0.99780
H          3.06710        1.08790        0.92570
H          2.18180       -1.86440        0.66470
H          3.33500       -1.10560       -0.44900
H          1.88260       -1.90580       -1.09910
H         -2.19090       -1.66580       -0.97750
H         -4.64800       -1.85010       -1.10700
H         -4.96070        2.43820       -1.37060
H         -2.47460        2.61440       -1.26980
H         -6.97770        1.14020       -1.25390
H         -6.87940       -0.47120       -0.49920
H         -6.79670       -0.31360       -2.26240
H          0.02430       -2.82890        0.47910
H         -0.92240       -4.86680        0.87970
H         -1.16690       -7.17480        1.73030
H         -1.77000       -7.57800        4.11850
H         -2.10640       -5.63540        5.64960
H         -1.82090       -3.32580        4.81260
H         -2.38990        2.60610        3.14090
