rmsd233.gzmat
 OpenBabel08211713423D

 48 50  0  0  0  0  0  0  0  0999 V2000
    0.0000    0.0000    0.0000 N   0  0  0  0  0  0  0  0  0  0  0  0
    1.4875    0.0000    0.0000 C   0  0  0  0  0  0  0  0  0  0  0  0
    2.0238    0.0000    1.4374 C   0  0  0  0  0  0  0  0  0  0  0  0
    2.0274   -1.2046   -0.7823 C   0  0  0  0  0  0  0  0  0  0  0  0
   -0.6740    0.9538   -0.7840 C   0  0  0  0  0  0  0  0  0  0  0  0
   -0.0457    1.8716   -1.2631 O   0  0  0  0  0  0  0  0  0  0  0  0
   -2.1474    0.8278   -0.9097 C   0  0  0  0  0  0  0  0  0  0  0  0
   -2.9730    0.7275    0.2095 C   0  0  0  0  0  0  0  0  0  0  0  0
   -4.3487    0.6098    0.0415 C   0  0  0  0  0  0  0  0  0  0  0  0
   -4.9002    0.5990   -1.2439 C   0  0  0  0  0  0  0  0  0  0  0  0
   -4.0685    0.7184   -2.3597 C   0  0  0  0  0  0  0  0  0  0  0  0
   -2.6916    0.8399   -2.1940 C   0  0  0  0  0  0  0  0  0  0  0  0
   -6.3763    0.4797   -1.4168 C   0  0  0  0  0  0  0  0  0  0  0  0
   -0.6398   -1.1800    0.4276 C   0  0  0  0  0  0  0  0  0  0  0  0
   -1.2264   -2.1498   -0.3730 C   0  0  0  0  0  0  0  0  0  0  0  0
   -1.9162   -3.4130    0.5957 S   0  0  0  0  0  0  0  0  0  0  0  0
   -1.3917   -2.6677    2.0722 C   0  0  0  0  0  0  0  0  0  0  0  0
   -0.7424   -1.4860    1.8275 C   0  0  0  0  0  0  0  0  0  0  0  0
   -1.6493   -3.2563    3.3709 C   0  0  0  0  0  0  0  0  0  0  0  0
   -1.2506   -4.5667    3.6545 C   0  0  0  0  0  0  0  0  0  0  0  0
   -1.4945   -5.1094    4.9138 C   0  0  0  0  0  0  0  0  0  0  0  0
   -2.1330   -4.3505    5.8929 C   0  0  0  0  0  0  0  0  0  0  0  0
   -2.5258   -3.0422    5.6134 C   0  0  0  0  0  0  0  0  0  0  0  0
   -2.2855   -2.4934    4.3571 C   0  0  0  0  0  0  0  0  0  0  0  0
   -1.2660   -2.1518   -1.8157 C   0  0  0  0  0  0  0  0  0  0  0  0
   -0.8947   -1.2992   -2.5850 O   0  0  0  0  0  0  0  0  0  0  0  0
   -1.8014   -3.3083   -2.3045 O   0  0  0  0  0  0  0  0  0  0  0  0
    1.8147    0.9518   -0.5127 H   0  0  0  0  0  0  0  0  0  0  0  0
    1.8581   -0.9584    1.9407 H   0  0  0  0  0  0  0  0  0  0  0  0
    1.5456    0.7829    2.0384 H   0  0  0  0  0  0  0  0  0  0  0  0
    3.1028    0.1903    1.4429 H   0  0  0  0  0  0  0  0  0  0  0  0
    1.8000   -2.1544   -0.2874 H   0  0  0  0  0  0  0  0  0  0  0  0
    3.1139   -1.1404   -0.8976 H   0  0  0  0  0  0  0  0  0  0  0  0
    1.5898   -1.2461   -1.7906 H   0  0  0  0  0  0  0  0  0  0  0  0
   -2.5422    0.7385    1.2107 H   0  0  0  0  0  0  0  0  0  0  0  0
   -4.9954    0.5253    0.9108 H   0  0  0  0  0  0  0  0  0  0  0  0
   -4.4932    0.7180   -3.3607 H   0  0  0  0  0  0  0  0  0  0  0  0
   -2.0321    0.9351   -3.0620 H   0  0  0  0  0  0  0  0  0  0  0  0
   -6.8688    1.4495   -1.2430 H   0  0  0  0  0  0  0  0  0  0  0  0
   -6.8176   -0.2394   -0.7132 H   0  0  0  0  0  0  0  0  0  0  0  0
   -6.6588    0.1531   -2.4268 H   0  0  0  0  0  0  0  0  0  0  0  0
   -0.3420   -0.8301    2.5872 H   0  0  0  0  0  0  0  0  0  0  0  0
   -0.7394   -5.1643    2.9003 H   0  0  0  0  0  0  0  0  0  0  0  0
   -1.1829   -6.1294    5.1337 H   0  0  0  0  0  0  0  0  0  0  0  0
   -2.3234   -4.7791    6.8754 H   0  0  0  0  0  0  0  0  0  0  0  0
   -3.0207   -2.4484    6.3798 H   0  0  0  0  0  0  0  0  0  0  0  0
   -2.5941   -1.4717    4.1376 H   0  0  0  0  0  0  0  0  0  0  0  0
   -1.8424   -3.3250   -3.2926 H   0  0  0  0  0  0  0  0  0  0  0  0
  1 14  1  0  0  0  0
  2  1  1  0  0  0  0
  2  3  1  0  0  0  0
  3 31  1  0  0  0  0
  3 29  1  0  0  0  0
  3 30  1  0  0  0  0
  4 32  1  0  0  0  0
  4  2  1  0  0  0  0
  5  1  1  0  0  0  0
  6  5  2  0  0  0  0
  7  5  1  0  0  0  0
  7  8  2  0  0  0  0
  8 35  1  0  0  0  0
  9  8  1  0  0  0  0
  9 36  1  0  0  0  0
 10  9  2  0  0  0  0
 11 12  2  0  0  0  0
 11 10  1  0  0  0  0
 12  7  1  0  0  0  0
 13 10  1  0  0  0  0
 13 39  1  0  0  0  0
 13 40  1  0  0  0  0
 14 18  1  0  0  0  0
 15 14  2  0  0  0  0
 15 16  1  0  0  0  0
 16 17  1  0  0  0  0
 17 19  1  0  0  0  0
 18 17  2  0  0  0  0
 18 42  1  0  0  0  0
 19 20  2  0  0  0  0
 19 24  1  0  0  0  0
 20 21  1  0  0  0  0
 21 44  1  0  0  0  0
 21 22  2  0  0  0  0
 22 45  1  0  0  0  0
 23 22  1  0  0  0  0
 23 46  1  0  0  0  0
 24 23  2  0  0  0  0
 25 15  1  0  0  0  0
 26 25  2  0  0  0  0
 27 25  1  0  0  0  0
 28  2  1  0  0  0  0
 33  4  1  0  0  0  0
 34  4  1  0  0  0  0
 37 11  1  0  0  0  0
 38 12  1  0  0  0  0
 41 13  1  0  0  0  0
 43 20  1  0  0  0  0
 47 24  1  0  0  0  0
 48 27  1  0  0  0  0
M  END
$$$$
