
     RDKit          3D

 48 50  0  0  0  0  0  0  0  0999 V2000
   -0.0747    0.0030    0.0542 N   0  0  0  0  0  0  0  0  0  0  0  0
    1.3984    0.0136   -0.1235 C   0  0  0  0  0  0  0  0  0  0  0  0
    2.1132   -0.2801    1.1958 C   0  0  0  0  0  0  0  0  0  0  0  0
    1.8579   -0.9048   -1.2552 C   0  0  0  0  0  0  0  0  0  0  0  0
   -0.7145    1.2398    0.1459 C   0  0  0  0  0  0  0  0  0  0  0  0
   -0.1014    2.2881    0.0648 O   0  0  0  0  0  0  0  0  0  0  0  0
   -2.2076    1.2345    0.2991 C   0  0  0  0  0  0  0  0  0  0  0  0
   -2.7774    2.1862    1.1574 C   0  0  0  0  0  0  0  0  0  0  0  0
   -4.1583    2.2549    1.3158 C   0  0  0  0  0  0  0  0  0  0  0  0
   -5.0150    1.3961    0.6058 C   0  0  0  0  0  0  0  0  0  0  0  0
   -4.4382    0.4703   -0.2739 C   0  0  0  0  0  0  0  0  0  0  0  0
   -3.0529    0.3849   -0.4240 C   0  0  0  0  0  0  0  0  0  0  0  0
   -6.5081    1.4741    0.7954 C   0  0  0  0  0  0  0  0  0  0  0  0
   -0.6889   -1.1849    0.5057 C   0  0  0  0  0  0  0  0  0  0  0  0
   -1.1853   -1.3886    1.7919 C   0  0  0  0  0  0  0  0  0  0  0  0
   -1.9249   -2.9559    1.9454 S   0  0  0  0  0  0  0  0  0  0  0  0
   -1.5278   -3.3711    0.3029 C   0  0  0  0  0  0  0  0  0  0  0  0
   -0.8803   -2.3244   -0.3258 C   0  0  0  0  0  0  0  0  0  0  0  0
   -1.9049   -4.6714   -0.2632 C   0  0  0  0  0  0  0  0  0  0  0  0
   -2.0126   -4.8367   -1.6576 C   0  0  0  0  0  0  0  0  0  0  0  0
   -2.3617   -6.0705   -2.2041 C   0  0  0  0  0  0  0  0  0  0  0  0
   -2.6183   -7.1642   -1.3713 C   0  0  0  0  0  0  0  0  0  0  0  0
   -2.5202   -7.0125    0.0147 C   0  0  0  0  0  0  0  0  0  0  0  0
   -2.1645   -5.7811    0.5633 C   0  0  0  0  0  0  0  0  0  0  0  0
   -1.1322   -0.4740    2.9354 C   0  0  0  0  0  0  0  0  0  0  0  0
   -0.6185    0.6230    2.9423 O   0  0  0  0  0  0  0  0  0  0  0  0
   -1.7277   -0.9975    4.0305 O   0  0  0  0  0  0  0  0  0  0  0  0
    1.6079    1.0535   -0.4046 H   0  0  0  0  0  0  0  0  0  0  0  0
    1.9092   -1.3073    1.5405 H   0  0  0  0  0  0  0  0  0  0  0  0
    1.7804    0.4185    1.9754 H   0  0  0  0  0  0  0  0  0  0  0  0
    3.2022   -0.1788    1.0672 H   0  0  0  0  0  0  0  0  0  0  0  0
    1.7493   -1.9692   -0.9953 H   0  0  0  0  0  0  0  0  0  0  0  0
    2.9244   -0.7254   -1.4619 H   0  0  0  0  0  0  0  0  0  0  0  0
    1.2946   -0.7078   -2.1804 H   0  0  0  0  0  0  0  0  0  0  0  0
   -2.1144    2.8574    1.7045 H   0  0  0  0  0  0  0  0  0  0  0  0
   -4.5861    2.9927    2.0006 H   0  0  0  0  0  0  0  0  0  0  0  0
   -5.0834   -0.1966   -0.8518 H   0  0  0  0  0  0  0  0  0  0  0  0
   -2.6331   -0.3440   -1.1179 H   0  0  0  0  0  0  0  0  0  0  0  0
   -7.0415    0.8295    0.0818 H   0  0  0  0  0  0  0  0  0  0  0  0
   -6.8746    2.5052    0.6643 H   0  0  0  0  0  0  0  0  0  0  0  0
   -6.7953    1.1582    1.8128 H   0  0  0  0  0  0  0  0  0  0  0  0
   -0.5586   -2.3531   -1.3641 H   0  0  0  0  0  0  0  0  0  0  0  0
   -1.8397   -3.9850   -2.3178 H   0  0  0  0  0  0  0  0  0  0  0  0
   -2.4430   -6.1769   -3.2883 H   0  0  0  0  0  0  0  0  0  0  0  0
   -2.8946   -8.1297   -1.8009 H   0  0  0  0  0  0  0  0  0  0  0  0
   -2.7146   -7.8614    0.6743 H   0  0  0  0  0  0  0  0  0  0  0  0
   -2.0698   -5.6809    1.6471 H   0  0  0  0  0  0  0  0  0  0  0  0
   -1.6447   -0.3327    4.7343 H   0  0  0  0  0  0  0  0  0  0  0  0
  1  2  1  0
  1  5  1  0
  1 14  1  0
  2  3  1  0
  2  4  1  0
  2 28  1  0
  3 29  1  0
  3 30  1  0
  3 31  1  0
  4 32  1  0
  4 33  1  0
  4 34  1  0
  5  6  2  0
  5  7  1  0
  7  8  2  0
  7 12  1  0
  8  9  1  0
  8 35  1  0
  9 10  2  0
  9 36  1  0
 10 11  1  0
 10 13  1  0
 11 12  2  0
 11 37  1  0
 12 38  1  0
 13 39  1  0
 13 40  1  0
 13 41  1  0
 14 15  2  0
 14 18  1  0
 15 16  1  0
 15 25  1  0
 16 17  1  0
 17 18  2  0
 17 19  1  0
 18 42  1  0
 19 20  2  0
 19 24  1  0
 20 21  1  0
 20 43  1  0
 21 22  2  0
 21 44  1  0
 22 23  1  0
 22 45  1  0
 23 24  2  0
 23 46  1  0
 24 47  1  0
 25 26  2  0
 25 27  1  0
 27 48  1  0
M  END

