48
rmsd234.gzmat
N          0.00000        0.00000        0.00000
C          1.48570        0.00000        0.00000
C          2.01850        0.00000        1.43880
C          2.02960       -1.19950       -0.78610
C         -0.67880        0.94450       -0.78890
O         -0.05780        1.84990       -1.29840
C         -2.15560        0.81810       -0.87230
C         -2.94580        0.81630        0.27680
C         -4.32510        0.68270        0.16170
C         -4.91490        0.56240       -1.10110
C         -4.11900        0.59520       -2.24860
C         -2.73740        0.72500       -2.13600
C         -6.39390        0.41180       -1.21430
C         -0.65530       -1.16260        0.45440
C         -1.22900       -2.15580       -0.32610
S         -1.97840       -3.36440        0.66850
C         -1.51430       -2.55270        2.12920
C         -0.82090       -1.40190        1.86140
C         -1.88810       -3.05320        3.43700
C         -1.45870       -4.30820        3.87840
C         -1.83430       -4.76380        5.14010
C         -2.63700       -3.97360        5.96110
C         -3.06160       -2.71960        5.52300
C         -2.68800       -2.25690        4.26490
C         -1.23730       -2.20550       -1.76880
O         -0.81320       -1.39670       -2.55820
O         -1.82220       -3.34890       -2.23110
H          1.81110        0.95440       -0.50980
H          1.82860       -0.94920        1.95020
H          1.55700        0.79950        2.03110
H          3.10160        0.16600        1.44520
H          1.80410       -2.15260       -0.29780
H          3.11600       -1.13050       -0.90090
H          1.59270       -1.23500       -1.79560
H         -2.48330        0.91300        1.25930
H         -4.94480        0.66990        1.05440
H         -4.57460        0.52080       -3.23330
H         -2.10460        0.74320       -3.02840
H         -6.89900        1.37920       -1.06950
H         -6.79570       -0.27870       -0.45950
H         -6.70630        0.02980       -2.19550
H         -0.43840       -0.71960        2.60710
H         -0.82550       -4.92870        3.24520
H         -1.49960       -5.74050        5.48550
H         -2.93160       -4.33480        6.94480
H         -3.68640       -2.10240        6.16640
H         -3.01910       -1.27790        3.91960
H         -1.85160       -3.39210       -3.21900
