48
rmsd245.gzmat
N          0.00000        0.00000        0.00000
C          1.48600        0.00000        0.00000
C          2.03720        0.00000        1.43130
C          2.01970       -1.20320       -0.78800
C         -0.67220        1.22670       -0.14670
O         -0.04440        2.21240       -0.46120
C         -2.14980        1.20820        0.00080
C         -2.72960        2.02070        0.97450
C         -4.11270        2.02420        1.13240
C         -4.91480        1.22980        0.30940
C         -4.32590        0.43290       -0.67750
C         -2.94370        0.42340       -0.83410
C         -6.39530        1.22070        0.48800
C         -0.65820       -1.11450        0.56100
C         -1.17280       -1.22150        1.84420
S         -1.93640       -2.76260        2.07450
C         -1.57180       -3.26640        0.45490
C         -0.88590       -2.29560       -0.22540
C         -1.97020       -4.56610       -0.04910
C         -3.32320       -4.89880       -0.16690
C         -3.68960       -6.14860       -0.66050
C         -2.71160       -7.06830       -1.03570
C         -1.36220       -6.73570       -0.92240
C         -0.98900       -5.48730       -0.43240
C         -1.11530       -0.20940        2.87250
O         -0.77450        0.94480        2.78370
O         -1.51790       -0.69590        4.08240
H          1.80590        0.95100       -0.51930
H          1.80550       -0.92670        1.96440
H          1.61020        0.83110        2.01350
H          3.12440        0.12580        1.43240
H          1.81030       -2.15180       -0.28270
H          3.10630       -1.12880       -0.90840
H          1.57760       -1.24760       -1.79040
H         -2.09540        2.64280        1.61300
H         -4.56660        2.64890        1.89800
H         -4.94830       -0.17970       -1.32450
H         -2.48360       -0.19600       -1.60430
H         -6.92900        1.07370       -0.46100
H         -6.77230        2.15720        0.92200
H         -6.70190        0.40590        1.16190
H         -0.56030       -2.36960       -1.25310
H         -4.09260       -4.18110        0.11630
H         -4.74310       -6.40560       -0.75450
H         -3.00040       -8.04510       -1.41940
H         -0.59850       -7.45260       -1.21950
H          0.06510       -5.22670       -0.34520
H         -1.49090       -0.01320        4.79810
