48
rmsd159.gzmat
N          0.00000        0.00000        0.00000
C          1.48550        0.00000        0.00000
C          2.03220        0.00000        1.43310
C          2.01920       -1.20330       -0.78770
C         -0.67400        1.23210       -0.07900
O         -0.05070        2.23070       -0.35920
C         -2.14740        1.20650        0.10210
C         -2.70080        2.01490        1.09430
C         -4.07870        2.01300        1.29340
C         -4.90060        1.21340        0.49580
C         -4.33880        0.41590       -0.50660
C         -2.96250        0.41580       -0.70760
C         -6.37540        1.19840        0.71540
C         -0.65400       -1.13780        0.51750
C         -1.14330       -1.30990        1.80290
S         -1.91700       -2.85470        1.96450
C         -1.58910       -3.27060        0.31220
C         -0.90520       -2.27230       -0.32790
C         -2.01440       -4.53500       -0.25500
C         -3.37320       -4.80540       -0.44200
C         -3.76680       -6.02410       -0.98940
C         -2.81040       -6.97120       -1.35230
C         -1.45490       -6.69840       -1.17240
C         -1.05400       -5.48210       -0.62680
C         -1.05950       -0.35290        2.88130
O         -0.76010        0.81520        2.83680
O         -1.37910       -0.91780        4.08180
H          1.80470        0.95010       -0.52020
H          1.79220       -0.92450        1.96710
H          1.60600        0.83430        2.01230
H          3.12010        0.11940        1.43820
H          1.78110       -2.15490       -0.30110
H          3.10940       -1.14480       -0.88030
H          1.60180       -1.22930       -1.80110
H         -2.04960        2.63780        1.71460
H         -4.51170        2.63740        2.07120
H         -4.97720       -0.20490       -1.12980
H         -2.52310       -0.20210       -1.49120
H         -6.93350        1.14210       -0.22960
H         -6.73350        2.09290        1.24320
H         -6.67080        0.32750        1.32010
H         -0.59480       -2.29450       -1.36290
H         -4.12290       -4.06300       -0.16930
H         -4.82400       -6.23740       -1.13590
H         -3.12180       -7.92360       -1.77790
H         -0.70930       -7.43770       -1.46000
H          0.00430       -5.26500       -0.48750
H         -1.33290       -0.27520        4.83270
