48
rmsd98.gzmat
N          0.00000        0.00000        0.00000
C          1.48410        0.00000        0.00000
C          2.03720        0.00000        1.43050
C          2.00910       -1.20810       -0.78660
C         -0.68390        1.21250       -0.19030
O         -0.06680        2.19900       -0.52090
C         -2.16290        1.16390       -0.06460
C         -2.77940        1.93860        0.91630
C         -4.16470        1.90110        1.04980
C         -4.93000        1.09970        0.19870
C         -4.30420        0.34170       -0.79580
C         -2.92030        0.37610       -0.93030
C         -6.41100        1.03980        0.35970
C         -0.65970       -1.10400        0.58210
C         -1.12070       -1.20250        1.88540
S         -1.91310       -2.72230        2.14480
C         -1.62920       -3.23130        0.51010
C         -0.94700       -2.27640       -0.19690
C         -2.12800       -4.49790        0.01300
C         -3.04380       -4.49750       -1.04570
C         -3.54640       -5.70150       -1.53010
C         -3.13510       -6.90870       -0.96610
C         -2.21780       -6.91050        0.08320
C         -1.71230       -5.70900        0.57450
C         -1.00110       -0.19160        2.91050
O         -0.79130        0.99010        2.79030
O         -1.16310       -0.72180        4.15740
H          1.80590        0.94880       -0.52080
H          1.80230       -0.92570        1.96350
H          1.61700        0.83420        2.01190
H          3.12540        0.11930        1.42940
H          1.76660       -2.15660       -0.29540
H          3.09890       -1.15640       -0.88590
H          1.58390       -1.23720       -1.79680
H         -2.17380        2.56280        1.57990
H         -4.64820        2.49900        1.81880
H         -4.89840       -0.27510       -1.46460
H         -2.42940       -0.21180       -1.70550
H         -6.92740        0.81320       -0.58280
H         -6.83000        1.98450        0.73300
H         -6.69080        0.25430        1.07890
H         -0.65110       -2.36060       -1.23290
H         -3.36420       -3.55290       -1.48470
H         -4.26230       -5.70050       -2.35010
H         -3.52860       -7.84940       -1.34700
H         -1.89410       -7.85360        0.52000
H         -0.98780       -5.72060        1.38770
H         -1.08820       -0.04530        4.87550
