rmsd245.gzmat
 OpenBabel08211713423D

 48 49  0  0  0  0  0  0  0  0999 V2000
    0.0000    0.0000    0.0000 N   0  0  0  0  0  0  0  0  0  0  0  0
    1.4860    0.0000    0.0000 C   0  0  0  0  0  0  0  0  0  0  0  0
    2.0372    0.0000    1.4313 C   0  0  0  0  0  0  0  0  0  0  0  0
    2.0197   -1.2032   -0.7880 C   0  0  0  0  0  0  0  0  0  0  0  0
   -0.6722    1.2267   -0.1467 C   0  0  0  0  0  0  0  0  0  0  0  0
   -0.0444    2.2124   -0.4612 O   0  0  0  0  0  0  0  0  0  0  0  0
   -2.1498    1.2082    0.0008 C   0  0  0  0  0  0  0  0  0  0  0  0
   -2.7296    2.0207    0.9745 C   0  0  0  0  0  0  0  0  0  0  0  0
   -4.1127    2.0242    1.1324 C   0  0  0  0  0  0  0  0  0  0  0  0
   -4.9148    1.2298    0.3094 C   0  0  0  0  0  0  0  0  0  0  0  0
   -4.3259    0.4329   -0.6775 C   0  0  0  0  0  0  0  0  0  0  0  0
   -2.9437    0.4234   -0.8341 C   0  0  0  0  0  0  0  0  0  0  0  0
   -6.3953    1.2207    0.4880 C   0  0  0  0  0  0  0  0  0  0  0  0
   -0.6582   -1.1145    0.5610 C   0  0  0  0  0  0  0  0  0  0  0  0
   -1.1728   -1.2215    1.8442 C   0  0  0  0  0  0  0  0  0  0  0  0
   -1.9364   -2.7626    2.0745 S   0  0  0  0  0  0  0  0  0  0  0  0
   -1.5718   -3.2664    0.4549 C   0  0  0  0  0  0  0  0  0  0  0  0
   -0.8859   -2.2956   -0.2254 C   0  0  0  0  0  0  0  0  0  0  0  0
   -1.9702   -4.5661   -0.0491 C   0  0  0  0  0  0  0  0  0  0  0  0
   -3.3232   -4.8988   -0.1669 C   0  0  0  0  0  0  0  0  0  0  0  0
   -3.6896   -6.1486   -0.6605 C   0  0  0  0  0  0  0  0  0  0  0  0
   -2.7116   -7.0683   -1.0357 C   0  0  0  0  0  0  0  0  0  0  0  0
   -1.3622   -6.7357   -0.9224 C   0  0  0  0  0  0  0  0  0  0  0  0
   -0.9890   -5.4873   -0.4324 C   0  0  0  0  0  0  0  0  0  0  0  0
   -1.1153   -0.2094    2.8725 C   0  0  0  0  0  0  0  0  0  0  0  0
   -0.7745    0.9448    2.7837 O   0  0  0  0  0  0  0  0  0  0  0  0
   -1.5179   -0.6959    4.0824 O   0  0  0  0  0  0  0  0  0  0  0  0
    1.8059    0.9510   -0.5193 H   0  0  0  0  0  0  0  0  0  0  0  0
    1.8055   -0.9267    1.9644 H   0  0  0  0  0  0  0  0  0  0  0  0
    1.6102    0.8311    2.0135 H   0  0  0  0  0  0  0  0  0  0  0  0
    3.1244    0.1258    1.4324 H   0  0  0  0  0  0  0  0  0  0  0  0
    1.8103   -2.1518   -0.2827 H   0  0  0  0  0  0  0  0  0  0  0  0
    3.1063   -1.1288   -0.9084 H   0  0  0  0  0  0  0  0  0  0  0  0
    1.5776   -1.2476   -1.7904 H   0  0  0  0  0  0  0  0  0  0  0  0
   -2.0954    2.6428    1.6130 H   0  0  0  0  0  0  0  0  0  0  0  0
   -4.5666    2.6489    1.8980 H   0  0  0  0  0  0  0  0  0  0  0  0
   -4.9483   -0.1797   -1.3245 H   0  0  0  0  0  0  0  0  0  0  0  0
   -2.4836   -0.1960   -1.6043 H   0  0  0  0  0  0  0  0  0  0  0  0
   -6.9290    1.0737   -0.4610 H   0  0  0  0  0  0  0  0  0  0  0  0
   -6.7723    2.1572    0.9220 H   0  0  0  0  0  0  0  0  0  0  0  0
   -6.7019    0.4059    1.1619 H   0  0  0  0  0  0  0  0  0  0  0  0
   -0.5603   -2.3696   -1.2531 H   0  0  0  0  0  0  0  0  0  0  0  0
   -4.0926   -4.1811    0.1163 H   0  0  0  0  0  0  0  0  0  0  0  0
   -4.7431   -6.4056   -0.7545 H   0  0  0  0  0  0  0  0  0  0  0  0
   -3.0004   -8.0451   -1.4194 H   0  0  0  0  0  0  0  0  0  0  0  0
   -0.5985   -7.4526   -1.2195 H   0  0  0  0  0  0  0  0  0  0  0  0
    0.0651   -5.2267   -0.3452 H   0  0  0  0  0  0  0  0  0  0  0  0
   -1.4909   -0.0132    4.7981 H   0  0  0  0  0  0  0  0  0  0  0  0
  1 14  1  0  0  0  0
  2  1  1  0  0  0  0
  2  3  1  0  0  0  0
  3 31  1  0  0  0  0
  3 29  1  0  0  0  0
  3 30  1  0  0  0  0
  4 32  1  0  0  0  0
  4  2  1  0  0  0  0
  5  1  1  0  0  0  0
  5  7  1  0  0  0  0
  6  5  2  0  0  0  0
  7  8  2  0  0  0  0
  8  9  1  0  0  0  0
  8 35  1  0  0  0  0
  9 36  1  0  0  0  0
 10 13  1  0  0  0  0
 10  9  2  0  0  0  0
 11 10  1  0  0  0  0
 12 11  2  0  0  0  0
 12  7  1  0  0  0  0
 13 40  1  0  0  0  0
 13 41  1  0  0  0  0
 14 15  2  0  0  0  0
 15 16  1  0  0  0  0
 15 25  1  0  0  0  0
 18 17  2  0  0  0  0
 18 14  1  0  0  0  0
 19 17  1  0  0  0  0
 20 19  1  0  0  0  0
 20 43  1  0  0  0  0
 21 20  2  0  0  0  0
 22 23  2  0  0  0  0
 22 21  1  0  0  0  0
 23 24  1  0  0  0  0
 24 47  1  0  0  0  0
 24 19  2  0  0  0  0
 25 27  1  0  0  0  0
 26 25  2  0  0  0  0
 27 48  1  0  0  0  0
 28  2  1  0  0  0  0
 33  4  1  0  0  0  0
 34  4  1  0  0  0  0
 37 11  1  0  0  0  0
 38 12  1  0  0  0  0
 39 13  1  0  0  0  0
 42 18  1  0  0  0  0
 44 21  1  0  0  0  0
 45 22  1  0  0  0  0
 46 23  1  0  0  0  0
M  RAD  2  16   2  17   2
M  END
$$$$
