rmsd234.gzmat
 OpenBabel08211713423D

 48 50  0  0  0  0  0  0  0  0999 V2000
    0.0000    0.0000    0.0000 N   0  0  0  0  0  0  0  0  0  0  0  0
    1.4857    0.0000    0.0000 C   0  0  0  0  0  0  0  0  0  0  0  0
    2.0185    0.0000    1.4388 C   0  0  0  0  0  0  0  0  0  0  0  0
    2.0296   -1.1995   -0.7861 C   0  0  0  0  0  0  0  0  0  0  0  0
   -0.6788    0.9445   -0.7889 C   0  0  0  0  0  0  0  0  0  0  0  0
   -0.0578    1.8499   -1.2984 O   0  0  0  0  0  0  0  0  0  0  0  0
   -2.1556    0.8181   -0.8723 C   0  0  0  0  0  0  0  0  0  0  0  0
   -2.9458    0.8163    0.2768 C   0  0  0  0  0  0  0  0  0  0  0  0
   -4.3251    0.6827    0.1617 C   0  0  0  0  0  0  0  0  0  0  0  0
   -4.9149    0.5624   -1.1011 C   0  0  0  0  0  0  0  0  0  0  0  0
   -4.1190    0.5952   -2.2486 C   0  0  0  0  0  0  0  0  0  0  0  0
   -2.7374    0.7250   -2.1360 C   0  0  0  0  0  0  0  0  0  0  0  0
   -6.3939    0.4118   -1.2143 C   0  0  0  0  0  0  0  0  0  0  0  0
   -0.6553   -1.1626    0.4544 C   0  0  0  0  0  0  0  0  0  0  0  0
   -1.2290   -2.1558   -0.3261 C   0  0  0  0  0  0  0  0  0  0  0  0
   -1.9784   -3.3644    0.6685 S   0  0  0  0  0  0  0  0  0  0  0  0
   -1.5143   -2.5527    2.1292 C   0  0  0  0  0  0  0  0  0  0  0  0
   -0.8209   -1.4019    1.8614 C   0  0  0  0  0  0  0  0  0  0  0  0
   -1.8881   -3.0532    3.4370 C   0  0  0  0  0  0  0  0  0  0  0  0
   -1.4587   -4.3082    3.8784 C   0  0  0  0  0  0  0  0  0  0  0  0
   -1.8343   -4.7638    5.1401 C   0  0  0  0  0  0  0  0  0  0  0  0
   -2.6370   -3.9736    5.9611 C   0  0  0  0  0  0  0  0  0  0  0  0
   -3.0616   -2.7196    5.5230 C   0  0  0  0  0  0  0  0  0  0  0  0
   -2.6880   -2.2569    4.2649 C   0  0  0  0  0  0  0  0  0  0  0  0
   -1.2373   -2.2055   -1.7688 C   0  0  0  0  0  0  0  0  0  0  0  0
   -0.8132   -1.3967   -2.5582 O   0  0  0  0  0  0  0  0  0  0  0  0
   -1.8222   -3.3489   -2.2311 O   0  0  0  0  0  0  0  0  0  0  0  0
    1.8111    0.9544   -0.5098 H   0  0  0  0  0  0  0  0  0  0  0  0
    1.8286   -0.9492    1.9502 H   0  0  0  0  0  0  0  0  0  0  0  0
    1.5570    0.7995    2.0311 H   0  0  0  0  0  0  0  0  0  0  0  0
    3.1016    0.1660    1.4452 H   0  0  0  0  0  0  0  0  0  0  0  0
    1.8041   -2.1526   -0.2978 H   0  0  0  0  0  0  0  0  0  0  0  0
    3.1160   -1.1305   -0.9009 H   0  0  0  0  0  0  0  0  0  0  0  0
    1.5927   -1.2350   -1.7956 H   0  0  0  0  0  0  0  0  0  0  0  0
   -2.4833    0.9130    1.2593 H   0  0  0  0  0  0  0  0  0  0  0  0
   -4.9448    0.6699    1.0544 H   0  0  0  0  0  0  0  0  0  0  0  0
   -4.5746    0.5208   -3.2333 H   0  0  0  0  0  0  0  0  0  0  0  0
   -2.1046    0.7432   -3.0284 H   0  0  0  0  0  0  0  0  0  0  0  0
   -6.8990    1.3792   -1.0695 H   0  0  0  0  0  0  0  0  0  0  0  0
   -6.7957   -0.2787   -0.4595 H   0  0  0  0  0  0  0  0  0  0  0  0
   -6.7063    0.0298   -2.1955 H   0  0  0  0  0  0  0  0  0  0  0  0
   -0.4384   -0.7196    2.6071 H   0  0  0  0  0  0  0  0  0  0  0  0
   -0.8255   -4.9287    3.2452 H   0  0  0  0  0  0  0  0  0  0  0  0
   -1.4996   -5.7405    5.4855 H   0  0  0  0  0  0  0  0  0  0  0  0
   -2.9316   -4.3348    6.9448 H   0  0  0  0  0  0  0  0  0  0  0  0
   -3.6864   -2.1024    6.1664 H   0  0  0  0  0  0  0  0  0  0  0  0
   -3.0191   -1.2779    3.9196 H   0  0  0  0  0  0  0  0  0  0  0  0
   -1.8516   -3.3921   -3.2190 H   0  0  0  0  0  0  0  0  0  0  0  0
  1 14  1  0  0  0  0
  2  1  1  0  0  0  0
  2  3  1  0  0  0  0
  3 31  1  0  0  0  0
  3 29  1  0  0  0  0
  3 30  1  0  0  0  0
  4 32  1  0  0  0  0
  4  2  1  0  0  0  0
  5  1  1  0  0  0  0
  6  5  2  0  0  0  0
  7  5  1  0  0  0  0
  7  8  2  0  0  0  0
  8 35  1  0  0  0  0
  9  8  1  0  0  0  0
  9 36  1  0  0  0  0
 10  9  2  0  0  0  0
 11 12  2  0  0  0  0
 11 10  1  0  0  0  0
 12  7  1  0  0  0  0
 13 10  1  0  0  0  0
 13 39  1  0  0  0  0
 13 40  1  0  0  0  0
 14 18  1  0  0  0  0
 15 14  2  0  0  0  0
 15 16  1  0  0  0  0
 16 17  1  0  0  0  0
 17 19  1  0  0  0  0
 18 17  2  0  0  0  0
 18 42  1  0  0  0  0
 19 20  2  0  0  0  0
 19 24  1  0  0  0  0
 20 21  1  0  0  0  0
 21 44  1  0  0  0  0
 21 22  2  0  0  0  0
 22 45  1  0  0  0  0
 23 22  1  0  0  0  0
 23 46  1  0  0  0  0
 24 23  2  0  0  0  0
 25 15  1  0  0  0  0
 26 25  2  0  0  0  0
 27 25  1  0  0  0  0
 28  2  1  0  0  0  0
 33  4  1  0  0  0  0
 34  4  1  0  0  0  0
 37 11  1  0  0  0  0
 38 12  1  0  0  0  0
 41 13  1  0  0  0  0
 43 20  1  0  0  0  0
 47 24  1  0  0  0  0
 48 27  1  0  0  0  0
M  END
$$$$
