rmsd98.gzmat
 OpenBabel08211713423D

 48 50  0  0  0  0  0  0  0  0999 V2000
    0.0000    0.0000    0.0000 N   0  0  0  0  0  0  0  0  0  0  0  0
    1.4841    0.0000    0.0000 C   0  0  0  0  0  0  0  0  0  0  0  0
    2.0372    0.0000    1.4305 C   0  0  0  0  0  0  0  0  0  0  0  0
    2.0091   -1.2081   -0.7866 C   0  0  0  0  0  0  0  0  0  0  0  0
   -0.6839    1.2125   -0.1903 C   0  0  0  0  0  0  0  0  0  0  0  0
   -0.0668    2.1990   -0.5209 O   0  0  0  0  0  0  0  0  0  0  0  0
   -2.1629    1.1639   -0.0646 C   0  0  0  0  0  0  0  0  0  0  0  0
   -2.7794    1.9386    0.9163 C   0  0  0  0  0  0  0  0  0  0  0  0
   -4.1647    1.9011    1.0498 C   0  0  0  0  0  0  0  0  0  0  0  0
   -4.9300    1.0997    0.1987 C   0  0  0  0  0  0  0  0  0  0  0  0
   -4.3042    0.3417   -0.7958 C   0  0  0  0  0  0  0  0  0  0  0  0
   -2.9203    0.3761   -0.9303 C   0  0  0  0  0  0  0  0  0  0  0  0
   -6.4110    1.0398    0.3597 C   0  0  0  0  0  0  0  0  0  0  0  0
   -0.6597   -1.1040    0.5821 C   0  0  0  0  0  0  0  0  0  0  0  0
   -1.1207   -1.2025    1.8854 C   0  0  0  0  0  0  0  0  0  0  0  0
   -1.9131   -2.7223    2.1448 S   0  0  0  0  0  0  0  0  0  0  0  0
   -1.6292   -3.2313    0.5101 C   0  0  0  0  0  0  0  0  0  0  0  0
   -0.9470   -2.2764   -0.1969 C   0  0  0  0  0  0  0  0  0  0  0  0
   -2.1280   -4.4979    0.0130 C   0  0  0  0  0  0  0  0  0  0  0  0
   -3.0438   -4.4975   -1.0457 C   0  0  0  0  0  0  0  0  0  0  0  0
   -3.5464   -5.7015   -1.5301 C   0  0  0  0  0  0  0  0  0  0  0  0
   -3.1351   -6.9087   -0.9661 C   0  0  0  0  0  0  0  0  0  0  0  0
   -2.2178   -6.9105    0.0832 C   0  0  0  0  0  0  0  0  0  0  0  0
   -1.7123   -5.7090    0.5745 C   0  0  0  0  0  0  0  0  0  0  0  0
   -1.0011   -0.1916    2.9105 C   0  0  0  0  0  0  0  0  0  0  0  0
   -0.7913    0.9901    2.7903 O   0  0  0  0  0  0  0  0  0  0  0  0
   -1.1631   -0.7218    4.1574 O   0  0  0  0  0  0  0  0  0  0  0  0
    1.8059    0.9488   -0.5208 H   0  0  0  0  0  0  0  0  0  0  0  0
    1.8023   -0.9257    1.9635 H   0  0  0  0  0  0  0  0  0  0  0  0
    1.6170    0.8342    2.0119 H   0  0  0  0  0  0  0  0  0  0  0  0
    3.1254    0.1193    1.4294 H   0  0  0  0  0  0  0  0  0  0  0  0
    1.7666   -2.1566   -0.2954 H   0  0  0  0  0  0  0  0  0  0  0  0
    3.0989   -1.1564   -0.8859 H   0  0  0  0  0  0  0  0  0  0  0  0
    1.5839   -1.2372   -1.7968 H   0  0  0  0  0  0  0  0  0  0  0  0
   -2.1738    2.5628    1.5799 H   0  0  0  0  0  0  0  0  0  0  0  0
   -4.6482    2.4990    1.8188 H   0  0  0  0  0  0  0  0  0  0  0  0
   -4.8984   -0.2751   -1.4646 H   0  0  0  0  0  0  0  0  0  0  0  0
   -2.4294   -0.2118   -1.7055 H   0  0  0  0  0  0  0  0  0  0  0  0
   -6.9274    0.8132   -0.5828 H   0  0  0  0  0  0  0  0  0  0  0  0
   -6.8300    1.9845    0.7330 H   0  0  0  0  0  0  0  0  0  0  0  0
   -6.6908    0.2543    1.0789 H   0  0  0  0  0  0  0  0  0  0  0  0
   -0.6511   -2.3606   -1.2329 H   0  0  0  0  0  0  0  0  0  0  0  0
   -3.3642   -3.5529   -1.4847 H   0  0  0  0  0  0  0  0  0  0  0  0
   -4.2623   -5.7005   -2.3501 H   0  0  0  0  0  0  0  0  0  0  0  0
   -3.5286   -7.8494   -1.3470 H   0  0  0  0  0  0  0  0  0  0  0  0
   -1.8941   -7.8536    0.5200 H   0  0  0  0  0  0  0  0  0  0  0  0
   -0.9878   -5.7206    1.3877 H   0  0  0  0  0  0  0  0  0  0  0  0
   -1.0882   -0.0453    4.8755 H   0  0  0  0  0  0  0  0  0  0  0  0
  1  2  1  0  0  0  0
  1 14  1  0  0  0  0
  2  3  1  0  0  0  0
  3 29  1  0  0  0  0
  3 30  1  0  0  0  0
  4 32  1  0  0  0  0
  4  2  1  0  0  0  0
  5  7  1  0  0  0  0
  5  1  1  0  0  0  0
  6  5  2  0  0  0  0
  7  8  2  0  0  0  0
  8  9  1  0  0  0  0
  8 35  1  0  0  0  0
  9 36  1  0  0  0  0
 10 13  1  0  0  0  0
 10  9  2  0  0  0  0
 11 10  1  0  0  0  0
 12 11  2  0  0  0  0
 12  7  1  0  0  0  0
 13 40  1  0  0  0  0
 13 41  1  0  0  0  0
 14 15  2  0  0  0  0
 15 16  1  0  0  0  0
 15 25  1  0  0  0  0
 17 16  1  0  0  0  0
 18 17  2  0  0  0  0
 18 14  1  0  0  0  0
 19 17  1  0  0  0  0
 19 24  2  0  0  0  0
 20 19  1  0  0  0  0
 21 20  2  0  0  0  0
 21 22  1  0  0  0  0
 22 23  2  0  0  0  0
 23 46  1  0  0  0  0
 23 24  1  0  0  0  0
 24 47  1  0  0  0  0
 25 27  1  0  0  0  0
 26 25  2  0  0  0  0
 27 48  1  0  0  0  0
 28  2  1  0  0  0  0
 31  3  1  0  0  0  0
 33  4  1  0  0  0  0
 34  4  1  0  0  0  0
 37 11  1  0  0  0  0
 38 12  1  0  0  0  0
 39 13  1  0  0  0  0
 42 18  1  0  0  0  0
 43 20  1  0  0  0  0
 44 21  1  0  0  0  0
 45 22  1  0  0  0  0
M  END
$$$$
