
     RDKit          3D

 35 37  0  0  0  0  0  0  0  0999 V2000
    0.0757    0.4599   -0.0414 O   0  0  0  0  0  0  0  0  0  0  0  0
    1.2491    0.1777   -0.0712 C   0  0  0  0  0  0  0  0  0  0  0  0
    1.9662   -0.1835    0.9986 O   0  0  0  0  0  0  0  0  0  0  0  0
    1.2582   -0.2420    2.2380 C   0  0  0  0  0  0  0  0  0  0  0  0
    2.0858    0.2003   -1.3216 C   0  0  2  0  0  0  0  0  0  0  0  0
    3.4372   -0.2127   -1.1882 N   0  0  0  0  0  0  0  0  0  0  0  0
    3.8294   -1.5637   -1.1655 C   0  0  0  0  0  0  0  0  0  0  0  0
    3.0839   -2.5049   -1.2956 O   0  0  0  0  0  0  0  0  0  0  0  0
    5.3071   -1.5446   -0.9646 C   0  0  0  0  0  0  0  0  0  0  0  0
    6.2119   -2.5943   -0.8747 C   0  0  0  0  0  0  0  0  0  0  0  0
    7.5630   -2.2687   -0.6857 C   0  0  0  0  0  0  0  0  0  0  0  0
    7.9788   -0.9325   -0.5926 C   0  0  0  0  0  0  0  0  0  0  0  0
    7.0567    0.1205   -0.6856 C   0  0  0  0  0  0  0  0  0  0  0  0
    5.7216   -0.2126   -0.8718 C   0  0  0  0  0  0  0  0  0  0  0  0
    4.5220    0.6673   -1.0080 C   0  0  0  0  0  0  0  0  0  0  0  0
    4.4514    1.8708   -0.9729 O   0  0  0  0  0  0  0  0  0  0  0  0
    1.7401    1.2479   -2.3464 C   0  0  0  0  0  0  0  0  0  0  0  0
    1.3160   -0.1606   -2.6041 C   0  0  1  0  0  0  0  0  0  0  0  0
    0.2743   -0.4348   -2.4385 H   0  0  0  0  0  0  0  0  0  0  0  0
    2.0511   -0.9581   -3.6280 C   0  0  0  0  0  0  0  0  0  0  0  0
    3.1690   -0.7164   -4.0221 O   0  0  0  0  0  0  0  0  0  0  0  0
    1.3140   -1.9916   -4.0512 O   0  0  0  0  0  0  0  0  0  0  0  0
    1.9616   -2.8942   -4.9473 C   0  0  0  0  0  0  0  0  0  0  0  0
    0.8361    0.7422    2.4889 H   0  0  0  0  0  0  0  0  0  0  0  0
    1.9914   -0.5496    2.9926 H   0  0  0  0  0  0  0  0  0  0  0  0
    0.4372   -0.9717    2.1787 H   0  0  0  0  0  0  0  0  0  0  0  0
    5.8749   -3.6299   -0.9503 H   0  0  0  0  0  0  0  0  0  0  0  0
    8.3053   -3.0666   -0.6102 H   0  0  0  0  0  0  0  0  0  0  0  0
    9.0384   -0.7108   -0.4463 H   0  0  0  0  0  0  0  0  0  0  0  0
    7.3668    1.1649   -0.6169 H   0  0  0  0  0  0  0  0  0  0  0  0
    2.5786    1.6246   -2.9333 H   0  0  0  0  0  0  0  0  0  0  0  0
    0.9706    1.9659   -2.0600 H   0  0  0  0  0  0  0  0  0  0  0  0
    1.2093   -3.6423   -5.2240 H   0  0  0  0  0  0  0  0  0  0  0  0
    2.8136   -3.3771   -4.4455 H   0  0  0  0  0  0  0  0  0  0  0  0
    2.3287   -2.3663   -5.8397 H   0  0  0  0  0  0  0  0  0  0  0  0
  1  2  2  0
  2  3  1  0
  5  2  1  1
  3  4  1  0
  4 24  1  0
  4 25  1  0
  4 26  1  0
  5  6  1  0
  5 17  1  0
  5 18  1  0
  6  7  1  0
  6 15  1  0
  7  8  2  0
  7  9  1  0
  9 10  1  0
  9 14  2  0
 10 11  2  0
 10 27  1  0
 11 12  1  0
 11 28  1  0
 12 13  2  0
 12 29  1  0
 13 14  1  0
 13 30  1  0
 14 15  1  0
 15 16  2  0
 17 18  1  0
 17 31  1  0
 17 32  1  0
 18 19  1  1
 18 20  1  0
 20 21  2  0
 20 22  1  0
 22 23  1  0
 23 33  1  0
 23 34  1  0
 23 35  1  0
M  END

