rmsd122.gzmat
 OpenBabel08211713403D

 35 37  0  0  1  0  0  0  0  0999 V2000
    0.0000    0.0000    0.0000 O   0  0  0  0  0  0  0  0  0  0  0  0
    1.2035    0.0000    0.0000 C   0  0  0  0  0  0  0  0  0  0  0  0
    1.9570    0.0000    1.1197 O   0  0  0  0  0  0  0  0  0  0  0  0
    1.2304   -0.0853    2.3453 C   0  0  0  0  0  0  0  0  0  0  0  0
    2.0668    0.0319   -1.2358 C   0  0  2  0  0  0  0  0  0  0  0  0
    3.4320   -0.2993   -1.0156 N   0  0  0  0  0  0  0  0  0  0  0  0
    4.5195    0.6196   -1.1465 C   0  0  0  0  0  0  0  0  0  0  0  0
    4.3892    1.7847   -1.3861 O   0  0  0  0  0  0  0  0  0  0  0  0
    5.7481   -0.1956   -0.9122 C   0  0  0  0  0  0  0  0  0  0  0  0
    7.0697    0.1817   -0.9169 C   0  0  0  0  0  0  0  0  0  0  0  0
    8.0322   -0.8184   -0.6797 C   0  0  0  0  0  0  0  0  0  0  0  0
    7.6580   -2.1351   -0.4490 C   0  0  0  0  0  0  0  0  0  0  0  0
    6.3026   -2.5168   -0.4456 C   0  0  0  0  0  0  0  0  0  0  0  0
    5.3675   -1.5365   -0.6772 C   0  0  0  0  0  0  0  0  0  0  0  0
    3.8811   -1.6327   -0.7523 C   0  0  0  0  0  0  0  0  0  0  0  0
    3.1482   -2.5708   -0.6329 O   0  0  0  0  0  0  0  0  0  0  0  0
    1.6863    1.0359   -2.3106 C   0  0  0  0  0  0  0  0  0  0  0  0
    1.3598   -0.4177   -2.5359 C   0  0  1  0  0  0  0  0  0  0  0  0
    0.3091   -0.7525   -2.4494 H   0  0  0  0  0  0  0  0  0  0  0  0
    2.1471   -1.1760   -3.5395 C   0  0  0  0  0  0  0  0  0  0  0  0
    3.3123   -1.0443   -3.8158 O   0  0  0  0  0  0  0  0  0  0  0  0
    1.3463   -2.0875   -4.1436 O   0  0  0  0  0  0  0  0  0  0  0  0
    1.9791   -2.9293   -5.1037 C   0  0  0  0  0  0  0  0  0  0  0  0
    2.0195    0.0145    3.0996 H   0  0  0  0  0  0  0  0  0  0  0  0
    0.7331   -1.0586    2.4144 H   0  0  0  0  0  0  0  0  0  0  0  0
    0.4998    0.7265    2.4197 H   0  0  0  0  0  0  0  0  0  0  0  0
    7.3665    1.2145   -1.0995 H   0  0  0  0  0  0  0  0  0  0  0  0
    9.0877   -0.5460   -0.6810 H   0  0  0  0  0  0  0  0  0  0  0  0
    8.4208   -2.8928   -0.2695 H   0  0  0  0  0  0  0  0  0  0  0  0
    6.0101   -3.5522   -0.2696 H   0  0  0  0  0  0  0  0  0  0  0  0
    2.4815    1.5154   -2.8923 H   0  0  0  0  0  0  0  0  0  0  0  0
    0.8813    1.7475   -2.1180 H   0  0  0  0  0  0  0  0  0  0  0  0
    2.3436   -2.3328   -5.9459 H   0  0  0  0  0  0  0  0  0  0  0  0
    1.1689   -3.6022   -5.4072 H   0  0  0  0  0  0  0  0  0  0  0  0
    2.8038   -3.4822   -4.6410 H   0  0  0  0  0  0  0  0  0  0  0  0
  2  1  2  0  0  0  0
  2  3  1  0  0  0  0
  3  4  1  0  0  0  0
  4 25  1  0  0  0  0
  4 26  1  0  0  0  0
  4 24  1  0  0  0  0
  5 18  1  0  0  0  0
  5  6  1  0  0  0  0
  5  2  1  1  0  0  0
  6 15  1  0  0  0  0
  7  6  1  0  0  0  0
  7  9  1  0  0  0  0
  8  7  2  0  0  0  0
  9 14  1  0  0  0  0
 10  9  2  0  0  0  0
 10 11  1  0  0  0  0
 11 12  2  0  0  0  0
 12 13  1  0  0  0  0
 12 29  1  0  0  0  0
 13 30  1  0  0  0  0
 14 13  2  0  0  0  0
 15 14  1  0  0  0  0
 15 16  2  0  0  0  0
 17 32  1  0  0  0  0
 17  5  1  0  0  0  0
 18 19  1  1  0  0  0
 18 17  1  0  0  0  0
 20 18  1  0  0  0  0
 21 20  2  0  0  0  0
 22 20  1  0  0  0  0
 23 35  1  0  0  0  0
 23 22  1  0  0  0  0
 27 10  1  0  0  0  0
 28 11  1  0  0  0  0
 31 17  1  0  0  0  0
 33 23  1  0  0  0  0
 34 23  1  0  0  0  0
M  END
$$$$
