35
rmsd101.gzmat
O          0.00000        0.00000        0.00000
C          1.20400        0.00000        0.00000
O          1.95700        0.00000        1.12010
C          1.22650       -0.00680        2.34660
C          2.06490        0.02610       -1.23650
N          3.46230       -0.08230       -0.99770
C          4.11720       -1.30590       -0.64840
O          3.55220       -2.35180       -0.51490
C          5.56080       -0.95050       -0.51750
C          6.63670       -1.74020       -0.18860
C          7.90500       -1.12950       -0.15420
C          8.06020        0.21980       -0.44160
C          6.95430        1.02520       -0.77490
C          5.71830        0.42470       -0.80560
C          4.38090        1.00590       -1.12190
O          4.06240        2.12220       -1.41260
C          1.55680        0.87040       -2.39500
C          1.43450       -0.62820       -2.48630
H          0.43910       -1.09400       -2.36570
C          2.32390       -1.35490       -3.42710
O          3.43540       -1.04970       -3.77660
O          1.68840       -2.46470       -3.87700
C          2.43820       -3.29180       -4.76290
H          0.66600        0.92840        2.45090
H          2.02130       -0.08710        3.09800
H          0.55060       -0.86850        2.38780
H          6.51710       -2.80000        0.03690
H          8.77520       -1.73430        0.10130
H          9.05220        0.67070       -0.41180
H          7.07790        2.08410       -1.00230
H          2.28370        1.39990       -3.02070
H          0.65990        1.47860       -2.25990
H          1.76490       -4.14140       -4.92770
H          3.37280       -3.61090       -4.28800
H          2.64540       -2.75460       -5.69410
