rmsd16.gzmat
 OpenBabel08211713403D

 35 37  0  0  1  0  0  0  0  0999 V2000
    0.0000    0.0000    0.0000 O   0  0  0  0  0  0  0  0  0  0  0  0
    1.2032    0.0000    0.0000 C   0  0  0  0  0  0  0  0  0  0  0  0
    1.9577    0.0000    1.1195 O   0  0  0  0  0  0  0  0  0  0  0  0
    1.2345   -0.0499    2.3485 C   0  0  0  0  0  0  0  0  0  0  0  0
    2.0721    0.0428   -1.2324 C   0  0  2  0  0  0  0  0  0  0  0  0
    3.4242   -0.3369   -1.0125 N   0  0  0  0  0  0  0  0  0  0  0  0
    3.8400   -1.6930   -0.8194 C   0  0  0  0  0  0  0  0  0  0  0  0
    3.0877   -2.6227   -0.7886 O   0  0  0  0  0  0  0  0  0  0  0  0
    5.3224   -1.6271   -0.6627 C   0  0  0  0  0  0  0  0  0  0  0  0
    6.2307   -2.6346   -0.4413 C   0  0  0  0  0  0  0  0  0  0  0  0
    7.5873   -2.2737   -0.3327 C   0  0  0  0  0  0  0  0  0  0  0  0
    7.9895   -0.9498   -0.4440 C   0  0  0  0  0  0  0  0  0  0  0  0
    7.0553    0.0781   -0.6752 C   0  0  0  0  0  0  0  0  0  0  0  0
    5.7324   -0.2794   -0.7822 C   0  0  0  0  0  0  0  0  0  0  0  0
    4.5290    0.5688   -1.0301 C   0  0  0  0  0  0  0  0  0  0  0  0
    4.4276    1.7480   -1.2084 O   0  0  0  0  0  0  0  0  0  0  0  0
    1.7311    1.1052   -2.2643 C   0  0  0  0  0  0  0  0  0  0  0  0
    1.3616   -0.3271   -2.5526 C   0  0  1  0  0  0  0  0  0  0  0  0
    0.3000   -0.6313   -2.4867 H   0  0  0  0  0  0  0  0  0  0  0  0
    2.1255   -1.0531   -3.5978 C   0  0  0  0  0  0  0  0  0  0  0  0
    3.3159   -1.0501   -3.7820 O   0  0  0  0  0  0  0  0  0  0  0  0
    1.2628   -1.7465   -4.3818 O   0  0  0  0  0  0  0  0  0  0  0  0
    1.8551   -2.5022   -5.4348 C   0  0  0  0  0  0  0  0  0  0  0  0
    2.0299    0.0486    3.0970 H   0  0  0  0  0  0  0  0  0  0  0  0
    0.7178   -1.0117    2.4369 H   0  0  0  0  0  0  0  0  0  0  0  0
    0.5207    0.7782    2.4128 H   0  0  0  0  0  0  0  0  0  0  0  0
    5.9169   -3.6750   -0.3544 H   0  0  0  0  0  0  0  0  0  0  0  0
    8.3295   -3.0530   -0.1600 H   0  0  0  0  0  0  0  0  0  0  0  0
    9.0456   -0.6947   -0.3550 H   0  0  0  0  0  0  0  0  0  0  0  0
    7.3735    1.1164   -0.7675 H   0  0  0  0  0  0  0  0  0  0  0  0
    2.5452    1.5846   -2.8182 H   0  0  0  0  0  0  0  0  0  0  0  0
    0.9472    1.8331   -2.0472 H   0  0  0  0  0  0  0  0  0  0  0  0
    0.9843   -2.9049   -5.9651 H   0  0  0  0  0  0  0  0  0  0  0  0
    2.4749   -3.3022   -5.0157 H   0  0  0  0  0  0  0  0  0  0  0  0
    2.4545   -1.8542   -6.0831 H   0  0  0  0  0  0  0  0  0  0  0  0
  1  2  2  0  0  0  0
  2  3  1  0  0  0  0
  3  4  1  0  0  0  0
  4 26  1  0  0  0  0
  4 25  1  0  0  0  0
  4 24  1  0  0  0  0
  5 18  1  0  0  0  0
  5  6  1  0  0  0  0
  5  2  1  1  0  0  0
  6  7  1  0  0  0  0
  7  8  2  0  0  0  0
  7  9  1  0  0  0  0
  9 10  2  0  0  0  0
 10 27  1  0  0  0  0
 10 11  1  0  0  0  0
 11 28  1  0  0  0  0
 12 29  1  0  0  0  0
 12 11  2  0  0  0  0
 13 12  1  0  0  0  0
 14 13  2  0  0  0  0
 14  9  1  0  0  0  0
 15  6  1  0  0  0  0
 15 14  1  0  0  0  0
 16 15  2  0  0  0  0
 17 32  1  0  0  0  0
 17  5  1  0  0  0  0
 18 19  1  1  0  0  0
 18 17  1  0  0  0  0
 20 18  1  0  0  0  0
 21 20  2  0  0  0  0
 22 20  1  0  0  0  0
 23 34  1  0  0  0  0
 23 22  1  0  0  0  0
 30 13  1  0  0  0  0
 31 17  1  0  0  0  0
 33 23  1  0  0  0  0
 35 23  1  0  0  0  0
M  END
$$$$
