rmsd10.gzmat
 OpenBabel08211713403D

 35 37  0  0  1  0  0  0  0  0999 V2000
    0.0000    0.0000    0.0000 O   0  0  0  0  0  0  0  0  0  0  0  0
    1.2037    0.0000    0.0000 C   0  0  0  0  0  0  0  0  0  0  0  0
    1.9577    0.0000    1.1191 O   0  0  0  0  0  0  0  0  0  0  0  0
    1.2307   -0.0371    2.3468 C   0  0  0  0  0  0  0  0  0  0  0  0
    2.0686    0.0360   -1.2351 C   0  0  2  0  0  0  0  0  0  0  0  0
    3.4280   -0.3167   -1.0151 N   0  0  0  0  0  0  0  0  0  0  0  0
    3.8558   -1.6627   -0.7760 C   0  0  0  0  0  0  0  0  0  0  0  0
    3.1070   -2.5875   -0.6527 O   0  0  0  0  0  0  0  0  0  0  0  0
    5.3446   -1.5931   -0.7123 C   0  0  0  0  0  0  0  0  0  0  0  0
    6.2650   -2.5908   -0.4959 C   0  0  0  0  0  0  0  0  0  0  0  0
    7.6264   -2.2319   -0.5056 C   0  0  0  0  0  0  0  0  0  0  0  0
    8.0213   -0.9189   -0.7232 C   0  0  0  0  0  0  0  0  0  0  0  0
    7.0743    0.0997   -0.9430 C   0  0  0  0  0  0  0  0  0  0  0  0
    5.7467   -0.2561   -0.9346 C   0  0  0  0  0  0  0  0  0  0  0  0
    4.5305    0.5820   -1.1506 C   0  0  0  0  0  0  0  0  0  0  0  0
    4.4197    1.7520   -1.3777 O   0  0  0  0  0  0  0  0  0  0  0  0
    1.6988    1.0674   -2.2879 C   0  0  0  0  0  0  0  0  0  0  0  0
    1.3600   -0.3786   -2.5448 C   0  0  1  0  0  0  0  0  0  0  0  0
    0.3062   -0.7054   -2.4683 H   0  0  0  0  0  0  0  0  0  0  0  0
    2.1368   -1.1085   -3.5772 C   0  0  0  0  0  0  0  0  0  0  0  0
    3.3309   -1.1172   -3.7369 O   0  0  0  0  0  0  0  0  0  0  0  0
    1.2844   -1.7926   -4.3801 O   0  0  0  0  0  0  0  0  0  0  0  0
    1.8919   -2.5514   -5.4225 C   0  0  0  0  0  0  0  0  0  0  0  0
    0.6720    0.8952    2.4767 H   0  0  0  0  0  0  0  0  0  0  0  0
    2.0276   -0.1366    3.0933 H   0  0  0  0  0  0  0  0  0  0  0  0
    0.5543   -0.8985    2.3694 H   0  0  0  0  0  0  0  0  0  0  0  0
    5.9568   -3.6222   -0.3254 H   0  0  0  0  0  0  0  0  0  0  0  0
    8.3774   -3.0044   -0.3411 H   0  0  0  0  0  0  0  0  0  0  0  0
    9.0813   -0.6653   -0.7281 H   0  0  0  0  0  0  0  0  0  0  0  0
    7.3861    1.1295   -1.1164 H   0  0  0  0  0  0  0  0  0  0  0  0
    2.4968    1.5551   -2.8578 H   0  0  0  0  0  0  0  0  0  0  0  0
    0.8986    1.7810   -2.0818 H   0  0  0  0  0  0  0  0  0  0  0  0
    1.0294   -2.9289   -5.9840 H   0  0  0  0  0  0  0  0  0  0  0  0
    2.4795   -3.3686   -4.9914 H   0  0  0  0  0  0  0  0  0  0  0  0
    2.5263   -1.9124   -6.0461 H   0  0  0  0  0  0  0  0  0  0  0  0
  1  2  2  0  0  0  0
  2  3  1  0  0  0  0
  3  4  1  0  0  0  0
  4 26  1  0  0  0  0
  4 24  1  0  0  0  0
  4 25  1  0  0  0  0
  5 18  1  0  0  0  0
  5  6  1  0  0  0  0
  5  2  1  1  0  0  0
  6  7  1  0  0  0  0
  7  9  1  0  0  0  0
  7  8  2  0  0  0  0
  9 10  2  0  0  0  0
 10 27  1  0  0  0  0
 11 10  1  0  0  0  0
 11 28  1  0  0  0  0
 12 11  2  0  0  0  0
 13 14  2  0  0  0  0
 13 12  1  0  0  0  0
 14  9  1  0  0  0  0
 15  6  1  0  0  0  0
 15 14  1  0  0  0  0
 16 15  2  0  0  0  0
 17 32  1  0  0  0  0
 17  5  1  0  0  0  0
 18 19  1  1  0  0  0
 18 17  1  0  0  0  0
 20 18  1  0  0  0  0
 21 20  2  0  0  0  0
 22 20  1  0  0  0  0
 23 34  1  0  0  0  0
 23 22  1  0  0  0  0
 29 12  1  0  0  0  0
 30 13  1  0  0  0  0
 31 17  1  0  0  0  0
 33 23  1  0  0  0  0
 35 23  1  0  0  0  0
M  END
$$$$
