rmsd101.gzmat
 OpenBabel08211713403D

 35 37  0  0  1  0  0  0  0  0999 V2000
    0.0000    0.0000    0.0000 O   0  0  0  0  0  0  0  0  0  0  0  0
    1.2040    0.0000    0.0000 C   0  0  0  0  0  0  0  0  0  0  0  0
    1.9570    0.0000    1.1201 O   0  0  0  0  0  0  0  0  0  0  0  0
    1.2265   -0.0068    2.3466 C   0  0  0  0  0  0  0  0  0  0  0  0
    2.0649    0.0261   -1.2365 C   0  0  2  0  0  0  0  0  0  0  0  0
    3.4623   -0.0823   -0.9977 N   0  0  0  0  0  0  0  0  0  0  0  0
    4.1172   -1.3059   -0.6484 C   0  0  0  0  0  0  0  0  0  0  0  0
    3.5522   -2.3518   -0.5149 O   0  0  0  0  0  0  0  0  0  0  0  0
    5.5608   -0.9505   -0.5175 C   0  0  0  0  0  0  0  0  0  0  0  0
    6.6367   -1.7402   -0.1886 C   0  0  0  0  0  0  0  0  0  0  0  0
    7.9050   -1.1295   -0.1542 C   0  0  0  0  0  0  0  0  0  0  0  0
    8.0602    0.2198   -0.4416 C   0  0  0  0  0  0  0  0  0  0  0  0
    6.9543    1.0252   -0.7749 C   0  0  0  0  0  0  0  0  0  0  0  0
    5.7183    0.4247   -0.8056 C   0  0  0  0  0  0  0  0  0  0  0  0
    4.3809    1.0059   -1.1219 C   0  0  0  0  0  0  0  0  0  0  0  0
    4.0624    2.1222   -1.4126 O   0  0  0  0  0  0  0  0  0  0  0  0
    1.5568    0.8704   -2.3950 C   0  0  0  0  0  0  0  0  0  0  0  0
    1.4345   -0.6282   -2.4863 C   0  0  1  0  0  0  0  0  0  0  0  0
    0.4391   -1.0940   -2.3657 H   0  0  0  0  0  0  0  0  0  0  0  0
    2.3239   -1.3549   -3.4271 C   0  0  0  0  0  0  0  0  0  0  0  0
    3.4354   -1.0497   -3.7766 O   0  0  0  0  0  0  0  0  0  0  0  0
    1.6884   -2.4647   -3.8770 O   0  0  0  0  0  0  0  0  0  0  0  0
    2.4382   -3.2918   -4.7629 C   0  0  0  0  0  0  0  0  0  0  0  0
    0.6660    0.9284    2.4509 H   0  0  0  0  0  0  0  0  0  0  0  0
    2.0213   -0.0871    3.0980 H   0  0  0  0  0  0  0  0  0  0  0  0
    0.5506   -0.8685    2.3878 H   0  0  0  0  0  0  0  0  0  0  0  0
    6.5171   -2.8000    0.0369 H   0  0  0  0  0  0  0  0  0  0  0  0
    8.7752   -1.7343    0.1013 H   0  0  0  0  0  0  0  0  0  0  0  0
    9.0522    0.6707   -0.4118 H   0  0  0  0  0  0  0  0  0  0  0  0
    7.0779    2.0841   -1.0023 H   0  0  0  0  0  0  0  0  0  0  0  0
    2.2837    1.3999   -3.0207 H   0  0  0  0  0  0  0  0  0  0  0  0
    0.6599    1.4786   -2.2599 H   0  0  0  0  0  0  0  0  0  0  0  0
    1.7649   -4.1414   -4.9277 H   0  0  0  0  0  0  0  0  0  0  0  0
    3.3728   -3.6109   -4.2880 H   0  0  0  0  0  0  0  0  0  0  0  0
    2.6454   -2.7546   -5.6941 H   0  0  0  0  0  0  0  0  0  0  0  0
  1  2  2  0  0  0  0
  2  3  1  0  0  0  0
  3  4  1  0  0  0  0
  4 26  1  0  0  0  0
  4 24  1  0  0  0  0
  4 25  1  0  0  0  0
  5 18  1  0  0  0  0
  5  6  1  0  0  0  0
  5  2  1  1  0  0  0
  6  7  1  0  0  0  0
  7  9  1  0  0  0  0
  7  8  2  0  0  0  0
  9 10  2  0  0  0  0
 10 11  1  0  0  0  0
 10 27  1  0  0  0  0
 11 28  1  0  0  0  0
 12 29  1  0  0  0  0
 12 11  2  0  0  0  0
 13 12  1  0  0  0  0
 14 13  2  0  0  0  0
 14  9  1  0  0  0  0
 15  6  1  0  0  0  0
 15 14  1  0  0  0  0
 16 15  2  0  0  0  0
 17 32  1  0  0  0  0
 17  5  1  0  0  0  0
 18 17  1  0  0  0  0
 18 19  1  1  0  0  0
 20 18  1  0  0  0  0
 21 20  2  0  0  0  0
 22 20  1  0  0  0  0
 23 34  1  0  0  0  0
 23 22  1  0  0  0  0
 30 13  1  0  0  0  0
 31 17  1  0  0  0  0
 33 23  1  0  0  0  0
 35 23  1  0  0  0  0
M  END
$$$$
