rmsd106.gzmat
 OpenBabel08211713403D

 35 37  0  0  1  0  0  0  0  0999 V2000
    0.0000    0.0000    0.0000 O   0  0  0  0  0  0  0  0  0  0  0  0
    1.2037    0.0000    0.0000 C   0  0  0  0  0  0  0  0  0  0  0  0
    1.9579    0.0000    1.1194 O   0  0  0  0  0  0  0  0  0  0  0  0
    1.2315   -0.0403    2.3471 C   0  0  0  0  0  0  0  0  0  0  0  0
    2.0700    0.0386   -1.2343 C   0  0  2  0  0  0  0  0  0  0  0  0
    3.4252   -0.3292   -1.0131 N   0  0  0  0  0  0  0  0  0  0  0  0
    3.8363   -1.6894   -0.8294 C   0  0  0  0  0  0  0  0  0  0  0  0
    3.0747   -2.6086   -0.7500 O   0  0  0  0  0  0  0  0  0  0  0  0
    5.3251   -1.6410   -0.7589 C   0  0  0  0  0  0  0  0  0  0  0  0
    6.2311   -2.6574   -0.5713 C   0  0  0  0  0  0  0  0  0  0  0  0
    7.5975   -2.3178   -0.5728 C   0  0  0  0  0  0  0  0  0  0  0  0
    8.0103   -1.0051   -0.7568 C   0  0  0  0  0  0  0  0  0  0  0  0
    7.0774    0.0331   -0.9427 C   0  0  0  0  0  0  0  0  0  0  0  0
    5.7447   -0.3035   -0.9414 C   0  0  0  0  0  0  0  0  0  0  0  0
    4.5393    0.5577   -1.1316 C   0  0  0  0  0  0  0  0  0  0  0  0
    4.4434    1.7337   -1.3327 O   0  0  0  0  0  0  0  0  0  0  0  0
    1.7089    1.0783   -2.2812 C   0  0  0  0  0  0  0  0  0  0  0  0
    1.3665   -0.3648   -2.5504 C   0  0  1  0  0  0  0  0  0  0  0  0
    0.3123   -0.6913   -2.4827 H   0  0  0  0  0  0  0  0  0  0  0  0
    2.1526   -1.0912   -3.5787 C   0  0  0  0  0  0  0  0  0  0  0  0
    3.3504   -1.1169   -3.7097 O   0  0  0  0  0  0  0  0  0  0  0  0
    1.3099   -1.7489   -4.4124 O   0  0  0  0  0  0  0  0  0  0  0  0
    1.9330   -2.5092   -5.4452 C   0  0  0  0  0  0  0  0  0  0  0  0
    0.6258    0.8655    2.4576 H   0  0  0  0  0  0  0  0  0  0  0  0
    2.0319   -0.0819    3.0958 H   0  0  0  0  0  0  0  0  0  0  0  0
    0.5988   -0.9339    2.3874 H   0  0  0  0  0  0  0  0  0  0  0  0
    5.9080   -3.6889   -0.4299 H   0  0  0  0  0  0  0  0  0  0  0  0
    8.3371   -3.1054   -0.4290 H   0  0  0  0  0  0  0  0  0  0  0  0
    9.0738   -0.7660   -0.7621 H   0  0  0  0  0  0  0  0  0  0  0  0
    7.4041    1.0630   -1.0854 H   0  0  0  0  0  0  0  0  0  0  0  0
    2.5108    1.5683   -2.8435 H   0  0  0  0  0  0  0  0  0  0  0  0
    0.9095    1.7924   -2.0730 H   0  0  0  0  0  0  0  0  0  0  0  0
    1.0809   -2.8533   -6.0437 H   0  0  0  0  0  0  0  0  0  0  0  0
    2.4805   -3.3500   -5.0050 H   0  0  0  0  0  0  0  0  0  0  0  0
    2.6087   -1.8802   -6.0351 H   0  0  0  0  0  0  0  0  0  0  0  0
  1  2  2  0  0  0  0
  2  3  1  0  0  0  0
  3  4  1  0  0  0  0
  4 26  1  0  0  0  0
  4 24  1  0  0  0  0
  4 25  1  0  0  0  0
  5 18  1  0  0  0  0
  5  6  1  0  0  0  0
  5  2  1  1  0  0  0
  6  7  1  0  0  0  0
  7  9  1  0  0  0  0
  7  8  2  0  0  0  0
  9 10  2  0  0  0  0
 10 27  1  0  0  0  0
 11 10  1  0  0  0  0
 11 28  1  0  0  0  0
 12 11  2  0  0  0  0
 13 14  2  0  0  0  0
 13 12  1  0  0  0  0
 14  9  1  0  0  0  0
 15  6  1  0  0  0  0
 15 14  1  0  0  0  0
 16 15  2  0  0  0  0
 17 32  1  0  0  0  0
 17  5  1  0  0  0  0
 18 19  1  1  0  0  0
 18 17  1  0  0  0  0
 20 18  1  0  0  0  0
 21 20  2  0  0  0  0
 22 20  1  0  0  0  0
 23 34  1  0  0  0  0
 23 22  1  0  0  0  0
 29 12  1  0  0  0  0
 30 13  1  0  0  0  0
 31 17  1  0  0  0  0
 33 23  1  0  0  0  0
 35 23  1  0  0  0  0
M  END
$$$$
