rmsd208.gzmat
 OpenBabel08211713403D

 35 37  0  0  1  0  0  0  0  0999 V2000
    0.0000    0.0000    0.0000 O   0  0  0  0  0  0  0  0  0  0  0  0
    1.2038    0.0000    0.0000 C   0  0  0  0  0  0  0  0  0  0  0  0
    1.9580    0.0000    1.1191 O   0  0  0  0  0  0  0  0  0  0  0  0
    1.2327   -0.0607    2.3467 C   0  0  0  0  0  0  0  0  0  0  0  0
    2.0672    0.0386   -1.2357 C   0  0  2  0  0  0  0  0  0  0  0  0
    3.4338   -0.2847   -1.0148 N   0  0  0  0  0  0  0  0  0  0  0  0
    3.8954   -1.6206   -0.7822 C   0  0  0  0  0  0  0  0  0  0  0  0
    3.1704   -2.5663   -0.6755 O   0  0  0  0  0  0  0  0  0  0  0  0
    5.3816   -1.5122   -0.7094 C   0  0  0  0  0  0  0  0  0  0  0  0
    6.3273   -2.4848   -0.4881 C   0  0  0  0  0  0  0  0  0  0  0  0
    7.6789   -2.0899   -0.4914 C   0  0  0  0  0  0  0  0  0  0  0  0
    8.0404   -0.7678   -0.7114 C   0  0  0  0  0  0  0  0  0  0  0  0
    7.0676    0.2253   -0.9349 C   0  0  0  0  0  0  0  0  0  0  0  0
    5.7498   -0.1654   -0.9291 C   0  0  0  0  0  0  0  0  0  0  0  0
    4.5134    0.6427   -1.1431 C   0  0  0  0  0  0  0  0  0  0  0  0
    4.3729    1.8108   -1.3629 O   0  0  0  0  0  0  0  0  0  0  0  0
    1.6786    1.0514   -2.3000 C   0  0  0  0  0  0  0  0  0  0  0  0
    1.3658   -0.4031   -2.5405 C   0  0  1  0  0  0  0  0  0  0  0  0
    0.3179   -0.7474   -2.4596 H   0  0  0  0  0  0  0  0  0  0  0  0
    2.1576   -1.1373   -3.5585 C   0  0  0  0  0  0  0  0  0  0  0  0
    3.3462   -1.0851   -3.7490 O   0  0  0  0  0  0  0  0  0  0  0  0
    1.3284   -1.9106   -4.3022 O   0  0  0  0  0  0  0  0  0  0  0  0
    1.9563   -2.6950   -5.3134 C   0  0  0  0  0  0  0  0  0  0  0  0
    2.0301   -0.0067    3.0972 H   0  0  0  0  0  0  0  0  0  0  0  0
    0.6859   -1.0072    2.4114 H   0  0  0  0  0  0  0  0  0  0  0  0
    0.5464    0.7883    2.4307 H   0  0  0  0  0  0  0  0  0  0  0  0
    6.0459   -3.5238   -0.3162 H   0  0  0  0  0  0  0  0  0  0  0  0
    8.4489   -2.8418   -0.3178 H   0  0  0  0  0  0  0  0  0  0  0  0
    9.0932   -0.4855   -0.7137 H   0  0  0  0  0  0  0  0  0  0  0  0
    7.3526    1.2631   -1.1084 H   0  0  0  0  0  0  0  0  0  0  0  0
    2.4676    1.5481   -2.8746 H   0  0  0  0  0  0  0  0  0  0  0  0
    0.8655    1.7522   -2.0997 H   0  0  0  0  0  0  0  0  0  0  0  0
    1.1063   -3.1717   -5.8155 H   0  0  0  0  0  0  0  0  0  0  0  0
    2.6171   -3.4366   -4.8521 H   0  0  0  0  0  0  0  0  0  0  0  0
    2.5203   -2.0559   -6.0008 H   0  0  0  0  0  0  0  0  0  0  0  0
  1  2  2  0  0  0  0
  2  3  1  0  0  0  0
  3  4  1  0  0  0  0
  4 25  1  0  0  0  0
  4 26  1  0  0  0  0
  4 24  1  0  0  0  0
  5 18  1  0  0  0  0
  5  6  1  0  0  0  0
  5  2  1  1  0  0  0
  6  7  1  0  0  0  0
  7  9  1  0  0  0  0
  7  8  2  0  0  0  0
  9 10  2  0  0  0  0
 10 27  1  0  0  0  0
 11 10  1  0  0  0  0
 11 28  1  0  0  0  0
 12 11  2  0  0  0  0
 13 14  2  0  0  0  0
 13 12  1  0  0  0  0
 14  9  1  0  0  0  0
 15  6  1  0  0  0  0
 15 14  1  0  0  0  0
 16 15  2  0  0  0  0
 17 32  1  0  0  0  0
 17  5  1  0  0  0  0
 18 19  1  1  0  0  0
 18 17  1  0  0  0  0
 20 18  1  0  0  0  0
 21 20  2  0  0  0  0
 22 20  1  0  0  0  0
 23 34  1  0  0  0  0
 23 22  1  0  0  0  0
 29 12  1  0  0  0  0
 30 13  1  0  0  0  0
 31 17  1  0  0  0  0
 33 23  1  0  0  0  0
 35 23  1  0  0  0  0
M  END
$$$$
