rmsd127.gzmat
 OpenBabel08211713403D

 35 37  0  0  1  0  0  0  0  0999 V2000
    0.0000    0.0000    0.0000 O   0  0  0  0  0  0  0  0  0  0  0  0
    1.2041    0.0000    0.0000 C   0  0  0  0  0  0  0  0  0  0  0  0
    1.9569    0.0000    1.1199 O   0  0  0  0  0  0  0  0  0  0  0  0
    1.2271   -0.0536    2.3456 C   0  0  0  0  0  0  0  0  0  0  0  0
    2.0645    0.0300   -1.2380 C   0  0  2  0  0  0  0  0  0  0  0  0
    3.4456   -0.2174   -1.0081 N   0  0  0  0  0  0  0  0  0  0  0  0
    3.9629   -1.5165   -0.6962 C   0  0  0  0  0  0  0  0  0  0  0  0
    3.2774   -2.4795   -0.5114 O   0  0  0  0  0  0  0  0  0  0  0  0
    5.4450   -1.3501   -0.6658 C   0  0  0  0  0  0  0  0  0  0  0  0
    6.4307   -2.2716   -0.4038 C   0  0  0  0  0  0  0  0  0  0  0  0
    7.7665   -1.8318   -0.4740 C   0  0  0  0  0  0  0  0  0  0  0  0
    8.0738   -0.5155   -0.7909 C   0  0  0  0  0  0  0  0  0  0  0  0
    7.0601    0.4251   -1.0555 C   0  0  0  0  0  0  0  0  0  0  0  0
    5.7578   -0.0095   -0.9875 C   0  0  0  0  0  0  0  0  0  0  0  0
    4.4869    0.7372   -1.2257 C   0  0  0  0  0  0  0  0  0  0  0  0
    4.2983    1.8824   -1.5181 O   0  0  0  0  0  0  0  0  0  0  0  0
    1.6211    0.9716   -2.3454 C   0  0  0  0  0  0  0  0  0  0  0  0
    1.3874   -0.5065   -2.5213 C   0  0  1  0  0  0  0  0  0  0  0  0
    0.3597   -0.9026   -2.4263 H   0  0  0  0  0  0  0  0  0  0  0  0
    2.2233   -1.2403   -3.5038 C   0  0  0  0  0  0  0  0  0  0  0  0
    3.4062   -1.1215   -3.7005 O   0  0  0  0  0  0  0  0  0  0  0  0
    1.4464   -2.1059   -4.2001 O   0  0  0  0  0  0  0  0  0  0  0  0
    2.1245   -2.9141   -5.1585 C   0  0  0  0  0  0  0  0  0  0  0  0
    2.0230   -0.1523    3.0934 H   0  0  0  0  0  0  0  0  0  0  0  0
    0.5583   -0.9217    2.3580 H   0  0  0  0  0  0  0  0  0  0  0  0
    0.6584    0.8718    2.4834 H   0  0  0  0  0  0  0  0  0  0  0  0
    6.1918   -3.3052   -0.1529 H   0  0  0  0  0  0  0  0  0  0  0  0
    8.5681   -2.5443   -0.2796 H   0  0  0  0  0  0  0  0  0  0  0  0
    9.1151   -0.1970   -0.8411 H   0  0  0  0  0  0  0  0  0  0  0  0
    7.3029    1.4568   -1.3097 H   0  0  0  0  0  0  0  0  0  0  0  0
    2.3793    1.4848   -2.9466 H   0  0  0  0  0  0  0  0  0  0  0  0
    0.7694    1.6337   -2.1731 H   0  0  0  0  0  0  0  0  0  0  0  0
    1.3075   -3.4849   -5.6158 H   0  0  0  0  0  0  0  0  0  0  0  0
    2.8391   -3.5725   -4.6521 H   0  0  0  0  0  0  0  0  0  0  0  0
    2.6367   -2.2878   -5.8965 H   0  0  0  0  0  0  0  0  0  0  0  0
  1  2  2  0  0  0  0
  2  3  1  0  0  0  0
  3  4  1  0  0  0  0
  4 25  1  0  0  0  0
  4 26  1  0  0  0  0
  4 24  1  0  0  0  0
  5 18  1  0  0  0  0
  5  6  1  0  0  0  0
  5  2  1  1  0  0  0
  6  7  1  0  0  0  0
  7  9  1  0  0  0  0
  7  8  2  0  0  0  0
  9 10  2  0  0  0  0
 10 27  1  0  0  0  0
 11 10  1  0  0  0  0
 11 28  1  0  0  0  0
 12 11  2  0  0  0  0
 13 14  2  0  0  0  0
 13 12  1  0  0  0  0
 14  9  1  0  0  0  0
 15  6  1  0  0  0  0
 15 14  1  0  0  0  0
 16 15  2  0  0  0  0
 17 32  1  0  0  0  0
 17  5  1  0  0  0  0
 18 19  1  1  0  0  0
 18 17  1  0  0  0  0
 20 18  1  0  0  0  0
 21 20  2  0  0  0  0
 22 20  1  0  0  0  0
 23 34  1  0  0  0  0
 23 22  1  0  0  0  0
 29 12  1  0  0  0  0
 30 13  1  0  0  0  0
 31 17  1  0  0  0  0
 33 23  1  0  0  0  0
 35 23  1  0  0  0  0
M  END
$$$$
