27
rmsd104.gzmat
N          0.00000        0.00000        0.00000
C          1.33660        0.00000        0.00000
Cl         2.06800        0.00000        1.54590
C          2.13650        0.01210       -1.16030
C          1.45850        0.03900       -2.38770
C          0.06720        0.04050       -2.40400
C         -0.63090        0.01910       -1.18880
N          3.56040       -0.04310       -1.17300
C          4.18380        1.30260       -1.19430
C          3.94610        2.02670        0.10830
N          4.74350        1.66580        1.13310
C          4.48090        2.15060        2.34200
Cl         5.52730        1.62190        3.58800
C          3.41040        3.03320        2.63750
N          3.18700        3.53690        3.90330
C          2.61660        3.43360        1.54210
C          2.88930        2.93460        0.27640
H          2.03410        0.04650       -3.31580
H         -0.47550        0.05300       -3.34630
H         -1.72620        0.01750       -1.14550
H          3.94400       -0.60520       -0.40270
H          3.79560        1.87980       -2.06030
H          5.27860        1.15100       -1.37100
H          3.64350        3.12080        4.69120
H          2.31090        3.97710        4.09710
H          1.79000        4.12500        1.69360
H          2.27950        3.23020       -0.57540
