rmsd36.gzmat
 OpenBabel08211713373D

 27 27  0  0  0  0  0  0  0  0999 V2000
    0.0000    0.0000    0.0000 N   0  0  0  0  0  0  0  0  0  0  0  0
    1.3363    0.0000    0.0000 C   0  0  0  0  0  0  0  0  0  0  0  0
    2.0665    0.0000    1.5462 Cl  0  0  0  0  0  0  0  0  0  0  0  0
    2.1363   -0.0170   -1.1604 C   0  0  0  0  0  0  0  0  0  0  0  0
    1.4587   -0.0499   -2.3875 C   0  0  0  0  0  0  0  0  0  0  0  0
    0.0673   -0.0562   -2.4037 C   0  0  0  0  0  0  0  0  0  0  0  0
   -0.6308   -0.0280   -1.1886 C   0  0  0  0  0  0  0  0  0  0  0  0
    3.5603    0.0315   -1.1716 N   0  0  0  0  0  0  0  0  0  0  0  0
    4.1743   -1.3190   -1.2099 C   0  0  0  0  0  0  0  0  0  0  0  0
    3.8803   -2.0746    0.0628 C   0  0  0  0  0  0  0  0  0  0  0  0
    4.6636   -1.7756    1.1175 N   0  0  0  0  0  0  0  0  0  0  0  0
    4.3445   -2.2773    2.3059 C   0  0  0  0  0  0  0  0  0  0  0  0
    5.3774   -1.8297    3.5939 Cl  0  0  0  0  0  0  0  0  0  0  0  0
    3.2254   -3.1149    2.5490 C   0  0  0  0  0  0  0  0  0  0  0  0
    2.9357   -3.6278    3.7971 N   0  0  0  0  0  0  0  0  0  0  0  0
    2.4514   -3.4591    1.4209 C   0  0  0  0  0  0  0  0  0  0  0  0
    2.7838   -2.9430    0.1766 C   0  0  0  0  0  0  0  0  0  0  0  0
    2.0346   -0.0598   -3.3150 H   0  0  0  0  0  0  0  0  0  0  0  0
   -0.4747   -0.0806   -3.3461 H   0  0  0  0  0  0  0  0  0  0  0  0
   -1.7261   -0.0299   -1.1442 H   0  0  0  0  0  0  0  0  0  0  0  0
    3.9457    0.5796   -0.3927 H   0  0  0  0  0  0  0  0  0  0  0  0
    5.2757   -1.1738   -1.3440 H   0  0  0  0  0  0  0  0  0  0  0  0
    3.8109   -1.8669   -2.1054 H   0  0  0  0  0  0  0  0  0  0  0  0
    3.3821   -3.2465    4.6070 H   0  0  0  0  0  0  0  0  0  0  0  0
    2.0374   -4.0386    3.9511 H   0  0  0  0  0  0  0  0  0  0  0  0
    1.5929   -4.1189    1.5306 H   0  0  0  0  0  0  0  0  0  0  0  0
    2.1906   -3.1947   -0.7008 H   0  0  0  0  0  0  0  0  0  0  0  0
  1  2  1  0  0  0  0
  4  2  2  0  0  0  0
  5  4  1  0  0  0  0
  6  5  2  0  0  0  0
  6  7  1  0  0  0  0
  7 20  1  0  0  0  0
  7  1  2  0  0  0  0
  8  4  1  0  0  0  0
  8 21  1  0  0  0  0
  9  8  1  0  0  0  0
  9 10  1  0  0  0  0
 10 17  1  0  0  0  0
 10 11  2  0  0  0  0
 11 12  2  0  0  0  0
 12 14  1  0  0  0  0
 12 13  1  0  0  0  0
 14 15  1  0  0  0  0
 15 25  1  0  0  0  0
 15 24  1  0  0  0  0
 16 26  1  0  0  0  0
 16 14  2  0  0  0  0
 17 16  1  0  0  0  0
 18  5  1  0  0  0  0
 19  6  1  0  0  0  0
 22  9  1  0  0  0  0
 23  9  1  0  0  0  0
 27 17  1  0  0  0  0
M  RAD  3   2   2   3   2  17   2
M  END
$$$$
