27
rmsd139.gzmat
N          0.00000        0.00000        0.00000
C          1.33650        0.00000        0.00000
Cl         2.06530        0.00000        1.54670
C          2.13640        0.01340       -1.16030
C          1.45850        0.03300       -2.38770
C          0.06710        0.03440       -2.40400
C         -0.63100        0.01780       -1.18860
N          3.56080       -0.03350       -1.17260
C          4.17450        1.31690       -1.19780
C          3.90860        2.05110        0.09340
N          4.70070        1.71640        1.13080
C          4.40890        2.20110        2.33300
Cl         5.45100        1.70800        3.59700
C          3.31020        3.05530        2.60870
N          3.04970        3.54760        3.87060
C          2.52570        3.43470        1.49940
C          2.83000        2.93680        0.24040
H          2.03400        0.03510       -3.31570
H         -0.47540        0.04280       -3.34620
H         -1.72620        0.01920       -1.14460
H          3.94660       -0.58960       -0.39930
H          3.79560        1.88180       -2.07570
H          5.27280        1.17220       -1.35530
H          3.49490        3.13810        4.66790
H          2.17150        3.99170        4.04460
H          1.67990        4.10520        1.63570
H          2.22760        3.21560       -0.62210
