27
rmsd207.gzmat
N          0.00000        0.00000        0.00000
C          1.33650        0.00000        0.00000
Cl         2.06540        0.00000        1.54680
C          2.13630       -0.01560       -1.16050
C          1.45850       -0.03690       -2.38760
C          0.06720       -0.04010       -2.40360
C         -0.63100       -0.02220       -1.18850
N          3.56060        0.02720       -1.17350
C          4.16820       -1.32640       -1.20670
C          3.88560       -2.06900        0.07600
N          4.67640       -1.75590        1.12110
C          4.36600       -2.24220        2.31810
Cl         5.40300       -1.76960        3.59430
C          3.25030       -3.07890        2.57970
N          2.97060       -3.57530        3.83600
C          2.46820       -3.43770        1.46210
C          2.79040       -2.93640        0.20920
H          2.03470       -0.03940       -3.31520
H         -0.47480       -0.05040       -3.34600
H         -1.72630       -0.02650       -1.14390
H          3.94930        0.57700       -0.39750
H          5.26860       -1.18750       -1.35410
H          3.79250       -1.88130       -2.09280
H          3.42440       -3.18490        4.63750
H          2.07550       -3.98810        4.00280
H          1.61000       -4.09490        1.58680
H          2.18940       -3.19800       -0.65990
