27
rmsd190.gzmat
N          0.00000        0.00000        0.00000
C          1.33630        0.00000        0.00000
Cl         2.06590        0.00000        1.54620
C          2.13650       -0.02000       -1.16030
C          1.45900       -0.05970       -2.38730
C          0.06770       -0.06690       -2.40320
C         -0.63060       -0.03340       -1.18850
N          3.56030        0.03520       -1.17020
C          4.18090       -1.31210       -1.20750
C          3.88410       -2.07150        0.06220
N          4.66650       -1.77850        1.11890
C          4.34360       -2.28300        2.30520
Cl         5.37240       -1.83820        3.59760
C          3.22200       -3.11790        2.54380
N          2.92900       -3.63410        3.78990
C          2.44800       -3.45490        1.41370
C          2.78500       -2.93710        0.17150
H          2.03470       -0.07380       -3.31500
H         -0.47460       -0.09350       -3.34520
H         -1.72580       -0.03440       -1.14420
H          3.94190        0.58570       -0.39130
H          5.28220       -1.16240       -1.33540
H          3.82410       -1.85990       -2.10560
H          3.37100       -3.25100        4.60220
H          2.02910       -4.04190        3.94090
H          1.58490       -4.10840        1.52100
H          2.19300       -3.18490       -0.70760
