rmsd224.gzmat
 OpenBabel08211713373D

 27 27  0  0  0  0  0  0  0  0999 V2000
    0.0000    0.0000    0.0000 N   0  0  0  0  0  0  0  0  0  0  0  0
    1.3365    0.0000    0.0000 C   0  0  0  0  0  0  0  0  0  0  0  0
    2.0657    0.0000    1.5468 Cl  0  0  0  0  0  0  0  0  0  0  0  0
    2.1370    0.0162   -1.1599 C   0  0  0  0  0  0  0  0  0  0  0  0
    1.4590    0.0517   -2.3868 C   0  0  0  0  0  0  0  0  0  0  0  0
    0.0675    0.0562   -2.4029 C   0  0  0  0  0  0  0  0  0  0  0  0
   -0.6310    0.0272   -1.1885 C   0  0  0  0  0  0  0  0  0  0  0  0
    3.5608   -0.0405   -1.1714 N   0  0  0  0  0  0  0  0  0  0  0  0
    4.1841    1.3056   -1.2072 C   0  0  0  0  0  0  0  0  0  0  0  0
    3.8980    2.0589    0.0685 C   0  0  0  0  0  0  0  0  0  0  0  0
    4.6781    1.7481    1.1220 N   0  0  0  0  0  0  0  0  0  0  0  0
    4.3602    2.2444    2.3133 C   0  0  0  0  0  0  0  0  0  0  0  0
    5.3841    1.7772    3.6017 Cl  0  0  0  0  0  0  0  0  0  0  0  0
    3.2465    3.0872    2.5601 C   0  0  0  0  0  0  0  0  0  0  0  0
    2.9551    3.5899    3.8126 N   0  0  0  0  0  0  0  0  0  0  0  0
    2.4791    3.4476    1.4327 C   0  0  0  0  0  0  0  0  0  0  0  0
    2.8094    2.9370    0.1856 C   0  0  0  0  0  0  0  0  0  0  0  0
    2.0347    0.0653   -3.3149 H   0  0  0  0  0  0  0  0  0  0  0  0
   -0.4744    0.0775   -3.3453 H   0  0  0  0  0  0  0  0  0  0  0  0
   -1.7263    0.0267   -1.1441 H   0  0  0  0  0  0  0  0  0  0  0  0
    3.9428   -0.5933   -0.3941 H   0  0  0  0  0  0  0  0  0  0  0  0
    3.8222    1.8592   -2.0997 H   0  0  0  0  0  0  0  0  0  0  0  0
    5.2842    1.1537   -1.3447 H   0  0  0  0  0  0  0  0  0  0  0  0
    3.3895    3.1879    4.6205 H   0  0  0  0  0  0  0  0  0  0  0  0
    2.0551    3.9963    3.9670 H   0  0  0  0  0  0  0  0  0  0  0  0
    1.6260    4.1140    1.5450 H   0  0  0  0  0  0  0  0  0  0  0  0
    2.2193    3.1991   -0.6905 H   0  0  0  0  0  0  0  0  0  0  0  0
  1  2  1  0  0  0  0
  4  2  2  0  0  0  0
  5  4  1  0  0  0  0
  6  5  2  0  0  0  0
  6  7  1  0  0  0  0
  7 20  1  0  0  0  0
  7  1  2  0  0  0  0
  8  4  1  0  0  0  0
  8 21  1  0  0  0  0
  9  8  1  0  0  0  0
  9 10  1  0  0  0  0
 10 17  1  0  0  0  0
 10 11  2  0  0  0  0
 11 12  2  0  0  0  0
 12 14  1  0  0  0  0
 12 13  1  0  0  0  0
 14 15  1  0  0  0  0
 15 25  1  0  0  0  0
 15 24  1  0  0  0  0
 16 26  1  0  0  0  0
 16 14  2  0  0  0  0
 17 16  1  0  0  0  0
 18  5  1  0  0  0  0
 19  6  1  0  0  0  0
 22  9  1  0  0  0  0
 23  9  1  0  0  0  0
 27 17  1  0  0  0  0
M  RAD  3   2   2   3   2  17   2
M  END
$$$$
