rmsd197.gzmat
 OpenBabel08211713373D

 27 28  0  0  1  0  0  0  0  0999 V2000
    0.0000    0.0000    0.0000 N   0  0  0  0  0  0  0  0  0  0  0  0
    1.3366    0.0000    0.0000 C   0  0  0  0  0  0  0  0  0  0  0  0
    2.0666    0.0000    1.5464 Cl  0  0  0  0  0  0  0  0  0  0  0  0
    2.1364    0.0172   -1.1605 C   0  0  2  0  0  0  0  0  0  0  0  0
    1.4580    0.0527   -2.3876 C   0  0  0  0  0  0  0  0  0  0  0  0
    0.0668    0.0560   -2.4037 C   0  0  0  0  0  0  0  0  0  0  0  0
   -0.6313    0.0263   -1.1885 C   0  0  0  0  0  0  0  0  0  0  0  0
    3.5601   -0.0412   -1.1737 N   0  0  0  0  0  0  0  0  0  0  0  0
    4.1852    1.3039   -1.2080 C   0  0  0  0  0  0  0  0  0  0  0  0
    3.9117    2.0516    0.0739 C   0  0  0  0  0  0  0  0  0  0  0  0
    4.6942    1.7254    1.1212 N   0  0  0  0  0  0  0  0  0  0  0  0
    4.3918    2.2214    2.3163 C   0  0  0  0  0  0  0  0  0  0  0  0
    5.4190    1.7346    3.5943 Cl  0  0  0  0  0  0  0  0  0  0  0  0
    3.2923    3.0805    2.5735 C   0  0  0  0  0  0  0  0  0  0  0  0
    3.0206    3.5877    3.8277 N   0  0  0  0  0  0  0  0  0  0  0  0
    2.5178    3.4499    1.4537 C   0  0  0  0  0  0  0  0  0  0  0  0
    2.8326    2.9396    0.2027 C   0  0  0  0  0  0  0  0  0  0  0  0
    2.0337    0.0672   -3.3153 H   0  0  0  0  0  0  0  0  0  0  0  0
   -0.4760    0.0779   -3.3456 H   0  0  0  0  0  0  0  0  0  0  0  0
   -1.7264    0.0262   -1.1453 H   0  0  0  0  0  0  0  0  0  0  0  0
    3.9425   -0.5957   -0.3973 H   0  0  0  0  0  0  0  0  0  0  0  0
    3.8174    1.8620   -2.0951 H   0  0  0  0  0  0  0  0  0  0  0  0
    5.2841    1.1504   -1.3539 H   0  0  0  0  0  0  0  0  0  0  0  0
    3.4593    3.1862    4.6319 H   0  0  0  0  0  0  0  0  0  0  0  0
    2.1358    4.0242    3.9897 H   0  0  0  0  0  0  0  0  0  0  0  0
    1.6716    4.1233    1.5766 H   0  0  0  0  0  0  0  0  0  0  0  0
    2.2386    3.2099   -0.6684 H   0  0  0  0  0  0  0  0  0  0  0  0
  1  2  2  0  0  0  0
  2  3  1  0  0  0  0
  4  8  1  6  0  0  0
  4  2  1  0  0  0  0
  5  4  1  0  0  0  0
  6  5  2  0  0  0  0
  6  7  1  0  0  0  0
  7 20  1  0  0  0  0
  7  1  2  0  0  0  0
  8 21  1  0  0  0  0
  9  8  1  0  0  0  0
  9 10  1  0  0  0  0
 10 17  1  0  0  0  0
 10 11  2  0  0  0  0
 11 12  2  0  0  0  0
 12 14  1  0  0  0  0
 12 13  1  0  0  0  0
 14 15  1  0  0  0  0
 15 25  1  0  0  0  0
 15 24  1  0  0  0  0
 16 26  1  0  0  0  0
 16 14  2  0  0  0  0
 17 16  1  0  0  0  0
 18  5  1  0  0  0  0
 19  6  1  0  0  0  0
 22  9  1  0  0  0  0
 23  9  1  0  0  0  0
 27 17  1  0  0  0  0
M  RAD  2   4   2  17   2
M  END
$$$$
