27

N          0.21680        1.73650       -0.71180
C          1.49850        1.49090       -0.67440
Cl         2.55500        2.77440       -0.07120
C          2.11190        0.27000       -1.07340
C          1.21920       -0.72310       -1.51640
C         -0.15110       -0.46000       -1.56190
C         -0.61840        0.78670       -1.15190
N          3.47700        0.11690       -1.04600
C          4.10340       -1.18500       -1.10910
C          3.81110       -2.06500        0.09290
N          3.94920       -1.48430        1.29280
C          3.70750       -2.16530        2.38040
Cl         3.89190       -1.33260        3.92590
C          3.29720       -3.52550        2.41170
N          3.09810       -4.19950        3.58890
C          3.15180       -4.12790        1.15060
C          3.40570       -3.39730       -0.00990
H          1.59630       -1.69940       -1.82030
H         -0.84780       -1.22620       -1.90850
H         -1.68430        1.03300       -1.16880
H          3.94840        0.79350       -0.45450
H          5.19020       -1.01730       -1.18020
H          3.81060       -1.70470       -2.03540
H          3.00590       -3.63810        4.42720
H          2.55350       -5.05160        3.56180
H          2.83180       -5.17140        1.08960
H          3.28340       -3.86430       -0.98990
