rmsd104.gzmat
 OpenBabel08211713373D

 27 28  0  0  1  0  0  0  0  0999 V2000
    0.0000    0.0000    0.0000 N   0  0  0  0  0  0  0  0  0  0  0  0
    1.3366    0.0000    0.0000 C   0  0  0  0  0  0  0  0  0  0  0  0
    2.0680    0.0000    1.5459 Cl  0  0  0  0  0  0  0  0  0  0  0  0
    2.1365    0.0121   -1.1603 C   0  0  2  0  0  0  0  0  0  0  0  0
    1.4585    0.0390   -2.3877 C   0  0  0  0  0  0  0  0  0  0  0  0
    0.0672    0.0405   -2.4040 C   0  0  0  0  0  0  0  0  0  0  0  0
   -0.6309    0.0191   -1.1888 C   0  0  0  0  0  0  0  0  0  0  0  0
    3.5604   -0.0431   -1.1730 N   0  0  0  0  0  0  0  0  0  0  0  0
    4.1838    1.3026   -1.1943 C   0  0  0  0  0  0  0  0  0  0  0  0
    3.9461    2.0267    0.1083 C   0  0  0  0  0  0  0  0  0  0  0  0
    4.7435    1.6658    1.1331 N   0  0  0  0  0  0  0  0  0  0  0  0
    4.4809    2.1506    2.3420 C   0  0  0  0  0  0  0  0  0  0  0  0
    5.5273    1.6219    3.5880 Cl  0  0  0  0  0  0  0  0  0  0  0  0
    3.4104    3.0332    2.6375 C   0  0  0  0  0  0  0  0  0  0  0  0
    3.1870    3.5369    3.9033 N   0  0  0  0  0  0  0  0  0  0  0  0
    2.6166    3.4336    1.5421 C   0  0  0  0  0  0  0  0  0  0  0  0
    2.8893    2.9346    0.2764 C   0  0  0  0  0  0  0  0  0  0  0  0
    2.0341    0.0465   -3.3158 H   0  0  0  0  0  0  0  0  0  0  0  0
   -0.4755    0.0530   -3.3463 H   0  0  0  0  0  0  0  0  0  0  0  0
   -1.7262    0.0175   -1.1455 H   0  0  0  0  0  0  0  0  0  0  0  0
    3.9440   -0.6052   -0.4027 H   0  0  0  0  0  0  0  0  0  0  0  0
    3.7956    1.8798   -2.0603 H   0  0  0  0  0  0  0  0  0  0  0  0
    5.2786    1.1510   -1.3710 H   0  0  0  0  0  0  0  0  0  0  0  0
    3.6435    3.1208    4.6912 H   0  0  0  0  0  0  0  0  0  0  0  0
    2.3109    3.9771    4.0971 H   0  0  0  0  0  0  0  0  0  0  0  0
    1.7900    4.1250    1.6936 H   0  0  0  0  0  0  0  0  0  0  0  0
    2.2795    3.2302   -0.5754 H   0  0  0  0  0  0  0  0  0  0  0  0
  1  2  2  0  0  0  0
  2  3  1  0  0  0  0
  4  8  1  6  0  0  0
  4  2  1  0  0  0  0
  5  4  1  0  0  0  0
  6  5  2  0  0  0  0
  6  7  1  0  0  0  0
  7 20  1  0  0  0  0
  7  1  2  0  0  0  0
  8 21  1  0  0  0  0
  9  8  1  0  0  0  0
  9 10  1  0  0  0  0
 10 17  1  0  0  0  0
 10 11  2  0  0  0  0
 11 12  2  0  0  0  0
 12 14  1  0  0  0  0
 12 13  1  0  0  0  0
 14 15  1  0  0  0  0
 15 25  1  0  0  0  0
 15 24  1  0  0  0  0
 16 26  1  0  0  0  0
 16 14  2  0  0  0  0
 17 16  1  0  0  0  0
 18  5  1  0  0  0  0
 19  6  1  0  0  0  0
 22  9  1  0  0  0  0
 23  9  1  0  0  0  0
 27 17  1  0  0  0  0
M  RAD  2   4   2  17   2
M  END
$$$$
