rmsd161.gzmat
 OpenBabel08211713433D

 84 87  0  0  1  0  0  0  0  0999 V2000
    0.0000    0.0000    0.0000 O   0  0  0  0  0  0  0  0  0  0  0  0
    1.2096    0.0000    0.0000 C   0  0  0  0  0  0  0  0  0  0  0  0
    1.9692    0.0000    1.2968 C   0  0  0  0  0  0  0  0  0  0  0  0
    1.9703   -0.0097   -1.2675 C   0  0  0  0  0  0  0  0  0  0  0  0
    1.2730   -0.2619   -2.4544 C   0  0  0  0  0  0  0  0  0  0  0  0
    1.9322   -0.2892   -3.6747 C   0  0  0  0  0  0  0  0  0  0  0  0
    3.3171   -0.0535   -3.7198 C   0  0  0  0  0  0  0  0  0  0  0  0
    4.0211    0.2144   -2.5289 C   0  0  0  0  0  0  0  0  0  0  0  0
    3.3440    0.2305   -1.3179 C   0  0  0  0  0  0  0  0  0  0  0  0
    4.0061   -0.0576   -4.9386 N   0  0  0  0  0  0  0  0  0  0  0  0
    3.5014   -0.4447   -6.1890 C   0  0  0  0  0  0  0  0  0  0  0  0
    2.3687   -0.6655   -6.5122 O   0  0  0  0  0  0  0  0  0  0  0  0
    4.5356   -0.4957   -7.0997 O   0  0  0  0  0  0  0  0  0  0  0  0
    5.7903   -0.2315   -6.4681 C   0  0  1  0  0  0  0  0  0  0  0  0
    6.2210    0.6270   -7.0282 H   0  0  0  0  0  0  0  0  0  0  0  0
    5.4717    0.0905   -4.9934 C   0  0  0  0  0  0  0  0  0  0  0  0
    6.6671   -1.4760   -6.6259 C   0  0  0  0  0  0  0  0  0  0  0  0
    6.3527   -2.4531   -7.2647 O   0  0  0  0  0  0  0  0  0  0  0  0
    7.8864   -1.3825   -5.9889 N   0  0  0  0  0  0  0  0  0  0  0  0
    8.8407   -2.4844   -6.0797 C   0  0  1  0  0  0  0  0  0  0  0  0
    8.2658   -3.4461   -6.2191 H   0  0  0  0  0  0  0  0  0  0  0  0
    9.7620   -2.3115   -7.3159 C   0  0  0  0  0  0  0  0  0  0  0  0
   10.5301   -1.0280   -7.2929 C   0  0  0  0  0  0  0  0  0  0  0  0
   11.8621   -1.0096   -6.8711 C   0  0  0  0  0  0  0  0  0  0  0  0
   12.5759    0.1863   -6.8579 C   0  0  0  0  0  0  0  0  0  0  0  0
   11.9661    1.3702   -7.2682 C   0  0  0  0  0  0  0  0  0  0  0  0
   10.6358    1.3567   -7.6841 C   0  0  0  0  0  0  0  0  0  0  0  0
    9.9210    0.1623   -7.7008 C   0  0  0  0  0  0  0  0  0  0  0  0
    9.7098   -2.6041   -4.7944 C   0  0  2  0  0  0  0  0  0  0  0  0
   10.6531   -2.0125   -4.8911 H   0  0  0  0  0  0  0  0  0  0  0  0
   10.1990   -3.9238   -4.7228 O   0  0  0  0  0  0  0  0  0  0  0  0
    8.9941   -2.2534   -3.4616 C   0  0  0  0  0  0  0  0  0  0  0  0
    9.6770   -1.0853   -2.8850 N   0  0  0  0  0  0  0  0  0  0  0  0
   10.7862   -1.4272   -1.9836 C   0  0  0  0  0  0  0  0  0  0  0  0
   10.3536   -1.9565   -0.5896 C   0  0  0  0  0  0  0  0  0  0  0  0
   11.0734   -3.2740   -0.2833 C   0  0  0  0  0  0  0  0  0  0  0  0
   10.6607   -0.9267    0.5012 C   0  0  0  0  0  0  0  0  0  0  0  0
    8.7699    0.3696   -2.6031 S   0  0  0  0  0  0  0  0  0  0  0  0
    7.8496    0.4179   -3.7387 O   0  0  0  0  0  0  0  0  0  0  0  0
    8.2261    0.3993   -1.2670 O   0  0  0  0  0  0  0  0  0  0  0  0
    9.9695    1.6160   -2.7609 C   0  0  0  0  0  0  0  0  0  0  0  0
   10.6264    1.8052   -3.9836 C   0  0  0  0  0  0  0  0  0  0  0  0
   11.5849    2.7948   -4.1135 C   0  0  0  0  0  0  0  0  0  0  0  0
   11.8790    3.6080   -3.0032 C   0  0  0  0  0  0  0  0  0  0  0  0
   12.8283    4.5316   -3.2672 O   0  0  0  0  0  0  0  0  0  0  0  0
   13.2061    5.4159   -2.2189 C   0  0  0  0  0  0  0  0  0  0  0  0
   11.2269    3.4361   -1.7789 C   0  0  0  0  0  0  0  0  0  0  0  0
   10.2683    2.4338   -1.6709 C   0  0  0  0  0  0  0  0  0  0  0  0
    1.2853   -0.1256    2.1500 H   0  0  0  0  0  0  0  0  0  0  0  0
    2.5012    0.9477    1.4475 H   0  0  0  0  0  0  0  0  0  0  0  0
    2.7015   -0.8155    1.3395 H   0  0  0  0  0  0  0  0  0  0  0  0
    0.1919   -0.4391   -2.4130 H   0  0  0  0  0  0  0  0  0  0  0  0
    1.3674   -0.4905   -4.5880 H   0  0  0  0  0  0  0  0  0  0  0  0
    5.0914    0.4147   -2.5371 H   0  0  0  0  0  0  0  0  0  0  0  0
    3.9044    0.4363   -0.4044 H   0  0  0  0  0  0  0  0  0  0  0  0
    5.9722   -0.6056   -4.2816 H   0  0  0  0  0  0  0  0  0  0  0  0
    5.7820    1.1220   -4.7107 H   0  0  0  0  0  0  0  0  0  0  0  0
    8.1409   -0.5841   -5.4104 H   0  0  0  0  0  0  0  0  0  0  0  0
    9.1357   -2.3711   -8.2339 H   0  0  0  0  0  0  0  0  0  0  0  0
   10.4442   -3.1858   -7.3706 H   0  0  0  0  0  0  0  0  0  0  0  0
   12.3482   -1.9327   -6.5586 H   0  0  0  0  0  0  0  0  0  0  0  0
   13.6143    0.1932   -6.5320 H   0  0  0  0  0  0  0  0  0  0  0  0
   12.5300    2.2999   -7.2757 H   0  0  0  0  0  0  0  0  0  0  0  0
   10.1571    2.2802   -8.0049 H   0  0  0  0  0  0  0  0  0  0  0  0
    8.8856    0.1513   -8.0377 H   0  0  0  0  0  0  0  0  0  0  0  0
    9.4770   -4.5822   -4.7139 H   0  0  0  0  0  0  0  0  0  0  0  0
    7.9087   -2.0697   -3.6182 H   0  0  0  0  0  0  0  0  0  0  0  0
    9.0508   -3.1357   -2.7809 H   0  0  0  0  0  0  0  0  0  0  0  0
   11.4507   -0.5407   -1.8778 H   0  0  0  0  0  0  0  0  0  0  0  0
   11.4145   -2.1924   -2.5036 H   0  0  0  0  0  0  0  0  0  0  0  0
    9.2511   -2.1450   -0.5917 H   0  0  0  0  0  0  0  0  0  0  0  0
   10.7721   -3.6713    0.6929 H   0  0  0  0  0  0  0  0  0  0  0  0
   12.1608   -3.1448   -0.2579 H   0  0  0  0  0  0  0  0  0  0  0  0
   10.8475   -4.0426   -1.0308 H   0  0  0  0  0  0  0  0  0  0  0  0
   11.7155   -0.6386    0.5108 H   0  0  0  0  0  0  0  0  0  0  0  0
   10.4212   -1.3217    1.4952 H   0  0  0  0  0  0  0  0  0  0  0  0
   10.0532   -0.0204    0.3739 H   0  0  0  0  0  0  0  0  0  0  0  0
   10.3967    1.1755   -4.8553 H   0  0  0  0  0  0  0  0  0  0  0  0
   12.1098    2.9554   -5.0530 H   0  0  0  0  0  0  0  0  0  0  0  0
   13.9645    6.0427   -2.7120 H   0  0  0  0  0  0  0  0  0  0  0  0
   13.6492    4.8646   -1.3839 H   0  0  0  0  0  0  0  0  0  0  0  0
   12.3571    6.0260   -1.8951 H   0  0  0  0  0  0  0  0  0  0  0  0
   11.4511    4.0664   -0.9257 H   0  0  0  0  0  0  0  0  0  0  0  0
    9.7495    2.3013   -0.7110 H   0  0  0  0  0  0  0  0  0  0  0  0
  2  1  2  0  0  0  0
  2  3  1  0  0  0  0
  3 51  1  0  0  0  0
  3 50  1  0  0  0  0
  3 49  1  0  0  0  0
  4  2  1  0  0  0  0
  5 52  1  0  0  0  0
  5  4  2  0  0  0  0
  6  5  1  0  0  0  0
  7  6  2  0  0  0  0
  7  8  1  0  0  0  0
  8  9  2  0  0  0  0
  9  4  1  0  0  0  0
  9 55  1  0  0  0  0
 10  7  1  0  0  0  0
 11 10  1  0  0  0  0
 12 11  2  0  0  0  0
 13 14  1  0  0  0  0
 13 11  1  0  0  0  0
 14 15  1  6  0  0  0
 14 16  1  0  0  0  0
 16 10  1  0  0  0  0
 16 57  1  0  0  0  0
 16 56  1  0  0  0  0
 17 14  1  0  0  0  0
 17 19  1  0  0  0  0
 18 17  2  0  0  0  0
 19 58  1  0  0  0  0
 20 21  1  6  0  0  0
 20 19  1  0  0  0  0
 20 29  1  0  0  0  0
 22 23  1  0  0  0  0
 22 20  1  0  0  0  0
 23 24  2  0  0  0  0
 24 25  1  0  0  0  0
 24 61  1  0  0  0  0
 25 62  1  0  0  0  0
 26 25  2  0  0  0  0
 27 26  1  0  0  0  0
 28 27  2  0  0  0  0
 28 23  1  0  0  0  0
 29 30  1  6  0  0  0
 29 31  1  0  0  0  0
 29 32  1  0  0  0  0
 31 66  1  0  0  0  0
 32 33  1  0  0  0  0
 32 68  1  0  0  0  0
 33 38  1  0  0  0  0
 33 34  1  0  0  0  0
 34 69  1  0  0  0  0
 34 35  1  0  0  0  0
 35 36  1  0  0  0  0
 35 37  1  0  0  0  0
 36 73  1  0  0  0  0
 36 72  1  0  0  0  0
 37 75  1  0  0  0  0
 37 76  1  0  0  0  0
 38 40  2  0  0  0  0
 39 38  2  0  0  0  0
 41 38  1  0  0  0  0
 41 48  2  0  0  0  0
 42 41  1  0  0  0  0
 43 42  2  0  0  0  0
 43 44  1  0  0  0  0
 44 47  2  0  0  0  0
 45 44  1  0  0  0  0
 45 46  1  0  0  0  0
 46 82  1  0  0  0  0
 46 81  1  0  0  0  0
 47 48  1  0  0  0  0
 47 83  1  0  0  0  0
 48 84  1  0  0  0  0
 53  6  1  0  0  0  0
 54  8  1  0  0  0  0
 59 22  1  0  0  0  0
 60 22  1  0  0  0  0
 63 26  1  0  0  0  0
 64 27  1  0  0  0  0
 65 28  1  0  0  0  0
 67 32  1  0  0  0  0
 70 34  1  0  0  0  0
 71 35  1  0  0  0  0
 74 36  1  0  0  0  0
 77 37  1  0  0  0  0
 78 42  1  0  0  0  0
 79 43  1  0  0  0  0
 80 46  1  0  0  0  0
M  END
$$$$
