84
rmsd190.gzmat
O          0.00000        0.00000        0.00000
C          1.20930        0.00000        0.00000
C          1.97100        0.00000        1.29410
C          1.96430        0.00310       -1.27410
C          1.23540       -0.03710       -2.46850
C          1.88110       -0.03010       -3.69670
C          3.28490        0.01730       -3.74070
C          4.02370        0.05200       -2.54310
C          3.35760        0.04610       -1.32400
N          3.96220        0.03530       -4.96860
C          3.38360        0.03180       -6.23960
O          2.23500       -0.05150       -6.56760
O          4.38390        0.15100       -7.18960
C          5.67000        0.22530       -6.57310
H          6.08990        1.21480       -6.86740
C          5.43300        0.09660       -5.05550
C          6.54820       -0.89920       -7.12360
O          7.42190       -1.39160       -6.43780
N          6.35750       -1.21290       -8.44150
C          7.23900       -2.20260       -9.07620
H          8.21800       -2.19870       -8.50750
C          6.62480       -3.61890       -9.00750
C          7.72210       -4.63710       -8.95350
C          8.58220       -4.66950       -7.85130
C          9.63900       -5.57390       -7.81890
C          9.83840       -6.45530       -8.88120
C          8.96960       -6.43890       -9.96990
C          7.91050       -5.53380      -10.00610
C          7.48550       -1.75790      -10.54570
H          6.57710       -1.26710      -10.97400
O          7.62310       -2.86600      -11.39320
C          8.70550       -0.81350      -10.71190
N          9.82720       -1.16740       -9.83050
C         10.50900       -2.43490      -10.13340
C         10.91720       -2.68190      -11.60710
C         12.05640       -1.75990      -12.03970
C         11.34540       -4.14830      -11.74460
S         10.83400        0.18040       -9.32820
O         12.04340       -0.38910       -8.77930
O         10.87250        1.12460      -10.42510
C          9.88980        0.90310       -8.04210
C          9.78880        0.26230       -6.80230
C          9.04240        0.83350       -5.78160
C          8.38630        2.05060       -6.02380
O          7.63640        2.46400       -4.96990
C          6.97830        3.71890       -5.07560
C          8.48780        2.70930       -7.24990
C          9.25240        2.12300       -8.25670
H          1.28130       -0.02250        2.15320
H          2.58840        0.90060        1.40030
H          2.62440       -0.87730        1.38010
H          0.13960       -0.07490       -2.42630
H          1.28770       -0.06420       -4.61320
H          5.10920        0.07980       -2.55210
H          3.94210        0.07540       -0.40290
H          5.89850       -0.82550       -4.63190
H          5.84040        0.96810       -4.49640
H          5.53140       -0.91030       -8.93740
H          5.94830       -3.79140       -9.86970
H          5.98190       -3.71150       -8.10620
H          8.42530       -3.97880       -7.01980
H         10.31200       -5.59120       -6.96330
H         10.66820       -7.15830       -8.85580
H          9.11410       -7.13610      -10.79360
H          7.23020       -5.52430      -10.85800
H          8.39440       -3.42300      -11.14060
H          8.99540       -0.81270      -11.79110
H          8.36430        0.22480      -10.48780
H          9.82900       -3.25770       -9.79700
H         11.41430       -2.53200       -9.48260
H         10.03770       -2.50410      -12.27360
H         12.44670       -2.04080      -13.02320
H         12.89550       -1.79020      -11.33280
H         11.73130       -0.71300      -12.11190
H         12.23270       -4.36560      -11.13880
H         11.59480       -4.38960      -12.78400
H         10.55460       -4.83840      -11.43040
H         10.28650       -0.69910       -6.61990
H          8.94300        0.34140       -4.81680
H          6.48600        3.80590       -4.09580
H          6.23710        3.70860       -5.88100
H          7.70160        4.52940       -5.21030
H          7.99800        3.65930       -7.42630
H          9.34520        2.64390       -9.22000
