
     RDKit          3D

 84 87  0  0  0  0  0  0  0  0999 V2000
    1.1148    0.9327    0.6351 O   0  0  0  0  0  0  0  0  0  0  0  0
    2.3013    0.9239    0.3650 C   0  0  0  0  0  0  0  0  0  0  0  0
    3.3481    1.0860    1.4512 C   0  0  0  0  0  0  0  0  0  0  0  0
    2.7640    0.7524   -1.0475 C   0  0  0  0  0  0  0  0  0  0  0  0
    4.1168    0.7357   -1.4232 C   0  0  0  0  0  0  0  0  0  0  0  0
    4.5033    0.5735   -2.7502 C   0  0  0  0  0  0  0  0  0  0  0  0
    3.5239    0.4210   -3.7511 C   0  0  0  0  0  0  0  0  0  0  0  0
    2.1629    0.4355   -3.3824 C   0  0  0  0  0  0  0  0  0  0  0  0
    1.7972    0.5993   -2.0527 C   0  0  0  0  0  0  0  0  0  0  0  0
    3.8620    0.2643   -5.1063 N   0  0  0  0  0  0  0  0  0  0  0  0
    5.1386    0.0433   -5.6075 C   0  0  0  0  0  0  0  0  0  0  0  0
    6.1850   -0.0086   -5.0246 O   0  0  0  0  0  0  0  0  0  0  0  0
    5.0421   -0.1213   -6.9642 O   0  0  0  0  0  0  0  0  0  0  0  0
    3.7334    0.2453   -7.4032 C   0  0  1  0  0  0  0  0  0  0  0  0
    3.4290   -0.4397   -8.2071 H   0  0  0  0  0  0  0  0  0  0  0  0
    2.8601    0.1160   -6.1551 C   0  0  0  0  0  0  0  0  0  0  0  0
    3.7042    1.6829   -7.9524 C   0  0  0  0  0  0  0  0  0  0  0  0
    2.6365    2.2658   -8.0791 O   0  0  0  0  0  0  0  0  0  0  0  0
    4.9059    2.1924   -8.2799 N   0  0  0  0  0  0  0  0  0  0  0  0
    5.0615    3.5651   -8.7352 C   0  0  1  0  0  0  0  0  0  0  0  0
    4.1554    3.8161   -9.3055 H   0  0  0  0  0  0  0  0  0  0  0  0
    5.1625    4.5044   -7.5093 C   0  0  0  0  0  0  0  0  0  0  0  0
    5.0364    5.9767   -7.8165 C   0  0  0  0  0  0  0  0  0  0  0  0
    3.8611    6.4842   -8.3928 C   0  0  0  0  0  0  0  0  0  0  0  0
    3.7522    7.8378   -8.7196 C   0  0  0  0  0  0  0  0  0  0  0  0
    4.8162    8.7103   -8.4686 C   0  0  0  0  0  0  0  0  0  0  0  0
    5.9851    8.2209   -7.8801 C   0  0  0  0  0  0  0  0  0  0  0  0
    6.0893    6.8653   -7.5567 C   0  0  0  0  0  0  0  0  0  0  0  0
    6.2738    3.5832   -9.6764 C   0  0  2  0  0  0  0  0  0  0  0  0
    6.0648    2.8331  -10.4638 H   0  0  0  0  0  0  0  0  0  0  0  0
    7.3810    3.1815   -8.8991 O   0  0  0  0  0  0  0  0  0  0  0  0
    6.4825    4.9374  -10.3717 C   0  0  0  0  0  0  0  0  0  0  0  0
    7.3535    4.9240  -11.5441 N   0  0  0  0  0  0  0  0  0  0  0  0
    6.7884    4.8657  -12.8904 C   0  0  0  0  0  0  0  0  0  0  0  0
    6.3230    3.4742  -13.3475 C   0  0  0  0  0  0  0  0  0  0  0  0
    5.6813    3.5862  -14.7329 C   0  0  0  0  0  0  0  0  0  0  0  0
    7.4717    2.4642  -13.3351 C   0  0  0  0  0  0  0  0  0  0  0  0
    9.0094    4.9084  -11.3344 S   0  0  0  0  0  0  0  0  0  0  0  0
    9.4175    3.6757  -10.6219 O   0  0  0  0  0  0  0  0  0  0  0  0
    9.6125    5.2033  -12.6345 O   0  0  0  0  0  0  0  0  0  0  0  0
    9.2729    6.2572  -10.2070 C   0  0  0  0  0  0  0  0  0  0  0  0
    9.5727    6.0016   -8.8715 C   0  0  0  0  0  0  0  0  0  0  0  0
    9.6784    7.0636   -7.9705 C   0  0  0  0  0  0  0  0  0  0  0  0
    9.4692    8.3770   -8.4171 C   0  0  0  0  0  0  0  0  0  0  0  0
    9.4893    9.4634   -7.6164 O   0  0  0  0  0  0  0  0  0  0  0  0
    9.7539    9.3004   -6.2366 C   0  0  0  0  0  0  0  0  0  0  0  0
    9.1908    8.6226   -9.7770 C   0  0  0  0  0  0  0  0  0  0  0  0
    9.0931    7.5687  -10.6702 C   0  0  0  0  0  0  0  0  0  0  0  0
    2.8407    1.1994    2.4172 H   0  0  0  0  0  0  0  0  0  0  0  0
    3.9784    1.9695    1.2610 H   0  0  0  0  0  0  0  0  0  0  0  0
    4.0161    0.2106    1.4872 H   0  0  0  0  0  0  0  0  0  0  0  0
    4.8990    0.8514   -0.6711 H   0  0  0  0  0  0  0  0  0  0  0  0
    5.5551    0.5557   -3.0218 H   0  0  0  0  0  0  0  0  0  0  0  0
    1.3835    0.3200   -4.1346 H   0  0  0  0  0  0  0  0  0  0  0  0
    0.7459    0.6115   -1.7599 H   0  0  0  0  0  0  0  0  0  0  0  0
    2.1067    0.9138   -6.1372 H   0  0  0  0  0  0  0  0  0  0  0  0
    2.3553   -0.8628   -6.0872 H   0  0  0  0  0  0  0  0  0  0  0  0
    5.7538    1.6750   -8.0616 H   0  0  0  0  0  0  0  0  0  0  0  0
    6.1140    4.2978   -6.9994 H   0  0  0  0  0  0  0  0  0  0  0  0
    4.3475    4.2112   -6.8288 H   0  0  0  0  0  0  0  0  0  0  0  0
    3.0216    5.8091   -8.5821 H   0  0  0  0  0  0  0  0  0  0  0  0
    2.8301    8.2152   -9.1688 H   0  0  0  0  0  0  0  0  0  0  0  0
    4.7322    9.7686   -8.7267 H   0  0  0  0  0  0  0  0  0  0  0  0
    6.8209    8.8946   -7.6804 H   0  0  0  0  0  0  0  0  0  0  0  0
    7.0118    6.4830   -7.1146 H   0  0  0  0  0  0  0  0  0  0  0  0
    8.1697    3.1243   -9.4749 H   0  0  0  0  0  0  0  0  0  0  0  0
    5.5125    5.3322  -10.7079 H   0  0  0  0  0  0  0  0  0  0  0  0
    6.8693    5.6607   -9.6431 H   0  0  0  0  0  0  0  0  0  0  0  0
    7.5493    5.2421  -13.5889 H   0  0  0  0  0  0  0  0  0  0  0  0
    5.9404    5.5721  -12.9185 H   0  0  0  0  0  0  0  0  0  0  0  0
    5.5458    3.1293  -12.6402 H   0  0  0  0  0  0  0  0  0  0  0  0
    5.3001    2.6112  -15.0736 H   0  0  0  0  0  0  0  0  0  0  0  0
    6.4174    3.9347  -15.4770 H   0  0  0  0  0  0  0  0  0  0  0  0
    4.8388    4.2970  -14.7361 H   0  0  0  0  0  0  0  0  0  0  0  0
    8.2742    2.7793  -14.0220 H   0  0  0  0  0  0  0  0  0  0  0  0
    7.1235    1.4678  -13.6491 H   0  0  0  0  0  0  0  0  0  0  0  0
    7.9217    2.3681  -12.3365 H   0  0  0  0  0  0  0  0  0  0  0  0
    9.6949    4.9730   -8.5334 H   0  0  0  0  0  0  0  0  0  0  0  0
    9.9028    6.8524   -6.9260 H   0  0  0  0  0  0  0  0  0  0  0  0
    9.7246   10.3042   -5.7945 H   0  0  0  0  0  0  0  0  0  0  0  0
   10.7503    8.8581   -6.0653 H   0  0  0  0  0  0  0  0  0  0  0  0
    8.9896    8.6692   -5.7508 H   0  0  0  0  0  0  0  0  0  0  0  0
    9.0458    9.6556  -10.0967 H   0  0  0  0  0  0  0  0  0  0  0  0
    8.8715    7.7491  -11.7235 H   0  0  0  0  0  0  0  0  0  0  0  0
  1  2  2  0
  2  3  1  0
  2  4  1  0
  3 49  1  0
  3 50  1  0
  3 51  1  0
  4  5  2  0
  4  9  1  0
  5  6  1  0
  5 52  1  0
  6  7  2  0
  6 53  1  0
  7  8  1  0
  7 10  1  0
  8  9  2  0
  8 54  1  0
  9 55  1  0
 10 11  1  0
 10 16  1  0
 11 12  2  0
 11 13  1  0
 13 14  1  0
 14 15  1  6
 14 16  1  0
 14 17  1  0
 16 56  1  0
 16 57  1  0
 17 18  2  0
 17 19  1  0
 19 20  1  0
 19 58  1  0
 20 21  1  6
 20 22  1  0
 20 29  1  0
 22 23  1  0
 22 59  1  0
 22 60  1  0
 23 24  2  0
 23 28  1  0
 24 25  1  0
 24 61  1  0
 25 26  2  0
 25 62  1  0
 26 27  1  0
 26 63  1  0
 27 28  2  0
 27 64  1  0
 28 65  1  0
 29 30  1  6
 29 31  1  0
 29 32  1  0
 31 66  1  0
 32 33  1  0
 32 67  1  0
 32 68  1  0
 33 34  1  0
 38 33  1  0
 34 35  1  0
 34 69  1  0
 34 70  1  0
 35 36  1  0
 35 37  1  0
 35 71  1  0
 36 72  1  0
 36 73  1  0
 36 74  1  0
 37 75  1  0
 37 76  1  0
 37 77  1  0
 38 39  2  0
 38 40  2  0
 38 41  1  0
 41 42  2  0
 41 48  1  0
 42 43  1  0
 42 78  1  0
 43 44  2  0
 43 79  1  0
 44 45  1  0
 44 47  1  0
 45 46  1  0
 46 80  1  0
 46 81  1  0
 46 82  1  0
 47 48  2  0
 47 83  1  0
 48 84  1  0
M  END

