
     RDKit          3D

 84 87  0  0  0  0  0  0  0  0999 V2000
    1.1891    0.3044    1.3195 O   0  0  0  0  0  0  0  0  0  0  0  0
    2.3545    0.2463    0.9764 C   0  0  0  0  0  0  0  0  0  0  0  0
    3.4733    0.3667    1.9946 C   0  0  0  0  0  0  0  0  0  0  0  0
    2.7199    0.0540   -0.4622 C   0  0  0  0  0  0  0  0  0  0  0  0
    1.6871   -0.0511   -1.4095 C   0  0  0  0  0  0  0  0  0  0  0  0
    1.9507   -0.2319   -2.7603 C   0  0  0  0  0  0  0  0  0  0  0  0
    3.2860   -0.3198   -3.2085 C   0  0  0  0  0  0  0  0  0  0  0  0
    4.3278   -0.2094   -2.2687 C   0  0  0  0  0  0  0  0  0  0  0  0
    4.0432   -0.0254   -0.9176 C   0  0  0  0  0  0  0  0  0  0  0  0
    3.6079   -0.5159   -4.5610 N   0  0  0  0  0  0  0  0  0  0  0  0
    2.7118   -0.7997   -5.5768 C   0  0  0  0  0  0  0  0  0  0  0  0
    1.5195   -0.9248   -5.5276 O   0  0  0  0  0  0  0  0  0  0  0  0
    3.4099   -0.9316   -6.7461 O   0  0  0  0  0  0  0  0  0  0  0  0
    4.8178   -0.8799   -6.5209 C   0  0  1  0  0  0  0  0  0  0  0  0
    5.2429   -0.0948   -7.1648 H   0  0  0  0  0  0  0  0  0  0  0  0
    4.9856   -0.5500   -5.0263 C   0  0  0  0  0  0  0  0  0  0  0  0
    5.5057   -2.2014   -6.8828 C   0  0  0  0  0  0  0  0  0  0  0  0
    6.6424   -2.4036   -6.4867 O   0  0  0  0  0  0  0  0  0  0  0  0
    4.7727   -3.0355   -7.6544 N   0  0  0  0  0  0  0  0  0  0  0  0
    5.1255   -4.4324   -7.8612 C   0  0  1  0  0  0  0  0  0  0  0  0
    6.1849   -4.5243   -7.5882 H   0  0  0  0  0  0  0  0  0  0  0  0
    4.2848   -5.3551   -6.9507 C   0  0  0  0  0  0  0  0  0  0  0  0
    4.2326   -4.8742   -5.5229 C   0  0  0  0  0  0  0  0  0  0  0  0
    3.1508   -4.1008   -5.0752 C   0  0  0  0  0  0  0  0  0  0  0  0
    3.1179   -3.5883   -3.7762 C   0  0  0  0  0  0  0  0  0  0  0  0
    4.1784   -3.8346   -2.9012 C   0  0  0  0  0  0  0  0  0  0  0  0
    5.2578   -4.6128   -3.3322 C   0  0  0  0  0  0  0  0  0  0  0  0
    5.2850   -5.1280   -4.6309 C   0  0  0  0  0  0  0  0  0  0  0  0
    4.9448   -4.7983   -9.3481 C   0  0  2  0  0  0  0  0  0  0  0  0
    3.8998   -4.5549   -9.6129 H   0  0  0  0  0  0  0  0  0  0  0  0
    5.0960   -6.1824   -9.5421 O   0  0  0  0  0  0  0  0  0  0  0  0
    5.8917   -3.9819  -10.2853 C   0  0  0  0  0  0  0  0  0  0  0  0
    6.9269   -4.8258  -10.8773 N   0  0  0  0  0  0  0  0  0  0  0  0
    6.6577   -5.4444  -12.1859 C   0  0  0  0  0  0  0  0  0  0  0  0
    6.4903   -4.4933  -13.3815 C   0  0  0  0  0  0  0  0  0  0  0  0
    7.7294   -3.6326  -13.6364 C   0  0  0  0  0  0  0  0  0  0  0  0
    6.1181   -5.3238  -14.6141 C   0  0  0  0  0  0  0  0  0  0  0  0
    8.5363   -4.4854  -10.4546 S   0  0  0  0  0  0  0  0  0  0  0  0
    9.3610   -5.3479  -11.3046 O   0  0  0  0  0  0  0  0  0  0  0  0
    8.7554   -3.0334  -10.4113 O   0  0  0  0  0  0  0  0  0  0  0  0
    8.6090   -5.0738   -8.7785 C   0  0  0  0  0  0  0  0  0  0  0  0
    8.4388   -6.4424   -8.5158 C   0  0  0  0  0  0  0  0  0  0  0  0
    8.4483   -6.8872   -7.2037 C   0  0  0  0  0  0  0  0  0  0  0  0
    8.6431   -5.9716   -6.1477 C   0  0  0  0  0  0  0  0  0  0  0  0
    8.6046   -6.4919   -4.9007 O   0  0  0  0  0  0  0  0  0  0  0  0
    8.9127   -5.6552   -3.8022 C   0  0  0  0  0  0  0  0  0  0  0  0
    8.8385   -4.6131   -6.4239 C   0  0  0  0  0  0  0  0  0  0  0  0
    8.8172   -4.1661   -7.7458 C   0  0  0  0  0  0  0  0  0  0  0  0
    3.0320    0.5012    2.9898 H   0  0  0  0  0  0  0  0  0  0  0  0
    4.1253    1.2243    1.7633 H   0  0  0  0  0  0  0  0  0  0  0  0
    4.1060   -0.5354    1.9929 H   0  0  0  0  0  0  0  0  0  0  0  0
    0.6581    0.0152   -1.0518 H   0  0  0  0  0  0  0  0  0  0  0  0
    1.1385   -0.3157   -3.4772 H   0  0  0  0  0  0  0  0  0  0  0  0
    5.3680   -0.2773   -2.5820 H   0  0  0  0  0  0  0  0  0  0  0  0
    4.8765    0.0533   -0.2176 H   0  0  0  0  0  0  0  0  0  0  0  0
    5.5691   -1.3334   -4.5213 H   0  0  0  0  0  0  0  0  0  0  0  0
    5.4831    0.4180   -4.8615 H   0  0  0  0  0  0  0  0  0  0  0  0
    3.8034   -2.7622   -7.7948 H   0  0  0  0  0  0  0  0  0  0  0  0
    4.7095   -6.3654   -7.0225 H   0  0  0  0  0  0  0  0  0  0  0  0
    3.2614   -5.4145   -7.3581 H   0  0  0  0  0  0  0  0  0  0  0  0
    2.3145   -3.8958   -5.7490 H   0  0  0  0  0  0  0  0  0  0  0  0
    2.2629   -2.9945   -3.4500 H   0  0  0  0  0  0  0  0  0  0  0  0
    4.1566   -3.4277   -1.8879 H   0  0  0  0  0  0  0  0  0  0  0  0
    6.0805   -4.8277   -2.6459 H   0  0  0  0  0  0  0  0  0  0  0  0
    6.1311   -5.7369   -4.9559 H   0  0  0  0  0  0  0  0  0  0  0  0
    6.0304   -6.3089   -9.7775 H   0  0  0  0  0  0  0  0  0  0  0  0
    5.3125   -3.5090  -11.0909 H   0  0  0  0  0  0  0  0  0  0  0  0
    6.3645   -3.1605   -9.7312 H   0  0  0  0  0  0  0  0  0  0  0  0
    5.7394   -6.0389  -12.0566 H   0  0  0  0  0  0  0  0  0  0  0  0
    7.4783   -6.1466  -12.3881 H   0  0  0  0  0  0  0  0  0  0  0  0
    5.6405   -3.8187  -13.1671 H   0  0  0  0  0  0  0  0  0  0  0  0
    7.5755   -2.9849  -14.5140 H   0  0  0  0  0  0  0  0  0  0  0  0
    8.6128   -4.2632  -13.8234 H   0  0  0  0  0  0  0  0  0  0  0  0
    7.9662   -2.9870  -12.7790 H   0  0  0  0  0  0  0  0  0  0  0  0
    6.9356   -6.0152  -14.8800 H   0  0  0  0  0  0  0  0  0  0  0  0
    5.9328   -4.6771  -15.4855 H   0  0  0  0  0  0  0  0  0  0  0  0
    5.2116   -5.9267  -14.4416 H   0  0  0  0  0  0  0  0  0  0  0  0
    8.3101   -7.1479   -9.3391 H   0  0  0  0  0  0  0  0  0  0  0  0
    8.3114   -7.9413   -6.9579 H   0  0  0  0  0  0  0  0  0  0  0  0
    8.8432   -6.2836   -2.9052 H   0  0  0  0  0  0  0  0  0  0  0  0
    8.1994   -4.8190   -3.7165 H   0  0  0  0  0  0  0  0  0  0  0  0
    9.9352   -5.2479   -3.8847 H   0  0  0  0  0  0  0  0  0  0  0  0
    8.9534   -3.8822   -5.6270 H   0  0  0  0  0  0  0  0  0  0  0  0
    8.9244   -3.1062   -7.9714 H   0  0  0  0  0  0  0  0  0  0  0  0
  1  2  2  0
  2  3  1  0
  2  4  1  0
  3 49  1  0
  3 50  1  0
  3 51  1  0
  4  5  2  0
  4  9  1  0
  5  6  1  0
  5 52  1  0
  6  7  2  0
  6 53  1  0
  7  8  1  0
  7 10  1  0
  8  9  2  0
  8 54  1  0
  9 55  1  0
 10 11  1  0
 10 16  1  0
 11 12  2  0
 11 13  1  0
 13 14  1  0
 14 15  1  6
 14 16  1  0
 14 17  1  0
 16 56  1  0
 16 57  1  0
 17 18  2  0
 17 19  1  0
 19 20  1  0
 19 58  1  0
 20 21  1  1
 20 22  1  0
 20 29  1  0
 22 23  1  0
 22 59  1  0
 22 60  1  0
 23 24  2  0
 23 28  1  0
 24 25  1  0
 24 61  1  0
 25 26  2  0
 25 62  1  0
 26 27  1  0
 26 63  1  0
 27 28  2  0
 27 64  1  0
 28 65  1  0
 29 30  1  6
 29 31  1  0
 29 32  1  0
 31 66  1  0
 32 33  1  0
 32 67  1  0
 32 68  1  0
 33 34  1  0
 38 33  1  0
 34 35  1  0
 34 69  1  0
 34 70  1  0
 35 36  1  0
 35 37  1  0
 35 71  1  0
 36 72  1  0
 36 73  1  0
 36 74  1  0
 37 75  1  0
 37 76  1  0
 37 77  1  0
 38 39  2  0
 38 40  2  0
 38 41  1  0
 41 42  2  0
 41 48  1  0
 42 43  1  0
 42 78  1  0
 43 44  2  0
 43 79  1  0
 44 45  1  0
 44 47  1  0
 45 46  1  0
 46 80  1  0
 46 81  1  0
 46 82  1  0
 47 48  2  0
 47 83  1  0
 48 84  1  0
M  END

