
     RDKit          3D

 84 87  0  0  0  0  0  0  0  0999 V2000
   -0.3706    0.7850   -0.1887 O   0  0  0  0  0  0  0  0  0  0  0  0
    0.8042    0.4747   -0.1084 C   0  0  0  0  0  0  0  0  0  0  0  0
    1.4637    0.2816    1.2442 C   0  0  0  0  0  0  0  0  0  0  0  0
    1.6361    0.3045   -1.3380 C   0  0  0  0  0  0  0  0  0  0  0  0
    3.0210    0.0878   -1.3027 C   0  0  0  0  0  0  0  0  0  0  0  0
    3.7740    0.0423   -2.4717 C   0  0  0  0  0  0  0  0  0  0  0  0
    3.1499    0.2204   -3.7178 C   0  0  0  0  0  0  0  0  0  0  0  0
    1.7508    0.3651   -3.7665 C   0  0  0  0  0  0  0  0  0  0  0  0
    1.0148    0.4220   -2.5914 C   0  0  0  0  0  0  0  0  0  0  0  0
    3.9175    0.3031   -4.8966 N   0  0  0  0  0  0  0  0  0  0  0  0
    5.1675    0.8890   -4.9328 C   0  0  0  0  0  0  0  0  0  0  0  0
    5.8793    1.2232   -4.0217 O   0  0  0  0  0  0  0  0  0  0  0  0
    5.5363    1.0579   -6.2381 O   0  0  0  0  0  0  0  0  0  0  0  0
    4.4216    0.8542   -7.1064 C   0  0  1  0  0  0  0  0  0  0  0  0
    4.7410    0.1988   -7.9303 H   0  0  0  0  0  0  0  0  0  0  0  0
    3.3363    0.2021   -6.2300 C   0  0  0  0  0  0  0  0  0  0  0  0
    3.9430    2.1716   -7.7367 C   0  0  0  0  0  0  0  0  0  0  0  0
    2.8729    2.1979   -8.3275 O   0  0  0  0  0  0  0  0  0  0  0  0
    4.8029    3.2046   -7.6163 N   0  0  0  0  0  0  0  0  0  0  0  0
    4.5179    4.5664   -8.0578 C   0  0  1  0  0  0  0  0  0  0  0  0
    5.4340    5.1479   -7.8620 H   0  0  0  0  0  0  0  0  0  0  0  0
    4.2218    4.6534   -9.5694 C   0  0  0  0  0  0  0  0  0  0  0  0
    5.2933    4.0022  -10.4065 C   0  0  0  0  0  0  0  0  0  0  0  0
    5.1519    2.6773  -10.8460 C   0  0  0  0  0  0  0  0  0  0  0  0
    6.1677    2.0555  -11.5763 C   0  0  0  0  0  0  0  0  0  0  0  0
    7.3440    2.7483  -11.8763 C   0  0  0  0  0  0  0  0  0  0  0  0
    7.4950    4.0693  -11.4451 C   0  0  0  0  0  0  0  0  0  0  0  0
    6.4763    4.6887  -10.7171 C   0  0  0  0  0  0  0  0  0  0  0  0
    3.3712    5.1572   -7.2019 C   0  0  2  0  0  0  0  0  0  0  0  0
    2.5433    4.4316   -7.2236 H   0  0  0  0  0  0  0  0  0  0  0  0
    2.9427    6.4224   -7.6875 O   0  0  0  0  0  0  0  0  0  0  0  0
    3.8059    5.3566   -5.7481 C   0  0  0  0  0  0  0  0  0  0  0  0
    2.7073    5.3301   -4.7886 N   0  0  0  0  0  0  0  0  0  0  0  0
    1.8630    6.5082   -4.5749 C   0  0  0  0  0  0  0  0  0  0  0  0
    2.0288    7.1573   -3.1929 C   0  0  0  0  0  0  0  0  0  0  0  0
    3.4930    7.4716   -2.8849 C   0  0  0  0  0  0  0  0  0  0  0  0
    1.1434    8.4019   -3.1044 C   0  0  0  0  0  0  0  0  0  0  0  0
    2.1504    3.8341   -4.3026 S   0  0  0  0  0  0  0  0  0  0  0  0
    0.6868    3.8143   -4.3675 O   0  0  0  0  0  0  0  0  0  0  0  0
    2.9509    2.8714   -5.0785 O   0  0  0  0  0  0  0  0  0  0  0  0
    2.6100    3.6586   -2.5922 C   0  0  0  0  0  0  0  0  0  0  0  0
    3.9412    3.4060   -2.2622 C   0  0  0  0  0  0  0  0  0  0  0  0
    4.3052    3.2708   -0.9230 C   0  0  0  0  0  0  0  0  0  0  0  0
    3.3268    3.3703    0.0785 C   0  0  0  0  0  0  0  0  0  0  0  0
    3.5752    3.1999    1.3991 O   0  0  0  0  0  0  0  0  0  0  0  0
    4.8996    2.9541    1.8247 C   0  0  0  0  0  0  0  0  0  0  0  0
    1.9868    3.6173   -0.2682 C   0  0  0  0  0  0  0  0  0  0  0  0
    1.6265    3.7561   -1.6009 C   0  0  0  0  0  0  0  0  0  0  0  0
    0.6908    0.3348    2.0212 H   0  0  0  0  0  0  0  0  0  0  0  0
    2.2066    1.0750    1.4251 H   0  0  0  0  0  0  0  0  0  0  0  0
    1.9857   -0.6860    1.3044 H   0  0  0  0  0  0  0  0  0  0  0  0
    3.5371   -0.0209   -0.3478 H   0  0  0  0  0  0  0  0  0  0  0  0
    4.8526   -0.0806   -2.4232 H   0  0  0  0  0  0  0  0  0  0  0  0
    1.2394    0.5016   -4.7169 H   0  0  0  0  0  0  0  0  0  0  0  0
   -0.0618    0.5958   -2.6197 H   0  0  0  0  0  0  0  0  0  0  0  0
    2.4046    0.7706   -6.3225 H   0  0  0  0  0  0  0  0  0  0  0  0
    3.1483   -0.8498   -6.4956 H   0  0  0  0  0  0  0  0  0  0  0  0
    5.6427    3.0233   -7.0787 H   0  0  0  0  0  0  0  0  0  0  0  0
    4.1405    5.7214   -9.8185 H   0  0  0  0  0  0  0  0  0  0  0  0
    3.2516    4.1753   -9.7632 H   0  0  0  0  0  0  0  0  0  0  0  0
    4.2322    2.1366  -10.6102 H   0  0  0  0  0  0  0  0  0  0  0  0
    6.0392    1.0244  -11.9156 H   0  0  0  0  0  0  0  0  0  0  0  0
    8.1382    2.2627  -12.4483 H   0  0  0  0  0  0  0  0  0  0  0  0
    8.4082    4.6214  -11.6811 H   0  0  0  0  0  0  0  0  0  0  0  0
    6.5984    5.7249  -10.3874 H   0  0  0  0  0  0  0  0  0  0  0  0
    2.3001    6.2808   -8.3932 H   0  0  0  0  0  0  0  0  0  0  0  0
    4.5350    4.5877   -5.4694 H   0  0  0  0  0  0  0  0  0  0  0  0
    4.3031    6.3349   -5.6635 H   0  0  0  0  0  0  0  0  0  0  0  0
    0.8097    6.2312   -4.7343 H   0  0  0  0  0  0  0  0  0  0  0  0
    2.1225    7.2242   -5.3689 H   0  0  0  0  0  0  0  0  0  0  0  0
    1.6738    6.4320   -2.4402 H   0  0  0  0  0  0  0  0  0  0  0  0
    3.6005    7.9133   -1.8817 H   0  0  0  0  0  0  0  0  0  0  0  0
    3.9047    8.1914   -3.6137 H   0  0  0  0  0  0  0  0  0  0  0  0
    4.1086    6.5600   -2.9186 H   0  0  0  0  0  0  0  0  0  0  0  0
    1.4614    9.1634   -3.8373 H   0  0  0  0  0  0  0  0  0  0  0  0
    1.1965    8.8589   -2.1040 H   0  0  0  0  0  0  0  0  0  0  0  0
    0.0877    8.1615   -3.3094 H   0  0  0  0  0  0  0  0  0  0  0  0
    4.6932    3.2620   -3.0386 H   0  0  0  0  0  0  0  0  0  0  0  0
    5.3430    3.0471   -0.6811 H   0  0  0  0  0  0  0  0  0  0  0  0
    4.8643    2.8685    2.9182 H   0  0  0  0  0  0  0  0  0  0  0  0
    5.5742    3.7827    1.5479 H   0  0  0  0  0  0  0  0  0  0  0  0
    5.2959    2.0144    1.4014 H   0  0  0  0  0  0  0  0  0  0  0  0
    1.2394    3.6648    0.5248 H   0  0  0  0  0  0  0  0  0  0  0  0
    0.5863    3.9126   -1.8874 H   0  0  0  0  0  0  0  0  0  0  0  0
  1  2  2  0
  2  3  1  0
  2  4  1  0
  3 49  1  0
  3 50  1  0
  3 51  1  0
  4  5  2  0
  4  9  1  0
  5  6  1  0
  5 52  1  0
  6  7  2  0
  6 53  1  0
  7  8  1  0
  7 10  1  0
  8  9  2  0
  8 54  1  0
  9 55  1  0
 10 11  1  0
 10 16  1  0
 11 12  2  0
 11 13  1  0
 13 14  1  0
 14 15  1  6
 14 16  1  0
 14 17  1  0
 16 56  1  0
 16 57  1  0
 17 18  2  0
 17 19  1  0
 19 20  1  0
 19 58  1  0
 20 21  1  6
 20 22  1  0
 20 29  1  0
 22 23  1  0
 22 59  1  0
 22 60  1  0
 23 24  2  0
 23 28  1  0
 24 25  1  0
 24 61  1  0
 25 26  2  0
 25 62  1  0
 26 27  1  0
 26 63  1  0
 27 28  2  0
 27 64  1  0
 28 65  1  0
 29 30  1  1
 29 31  1  0
 29 32  1  0
 31 66  1  0
 32 33  1  0
 32 67  1  0
 32 68  1  0
 33 34  1  0
 38 33  1  0
 34 35  1  0
 34 69  1  0
 34 70  1  0
 35 36  1  0
 35 37  1  0
 35 71  1  0
 36 72  1  0
 36 73  1  0
 36 74  1  0
 37 75  1  0
 37 76  1  0
 37 77  1  0
 38 39  2  0
 38 40  2  0
 38 41  1  0
 41 42  2  0
 41 48  1  0
 42 43  1  0
 42 78  1  0
 43 44  2  0
 43 79  1  0
 44 45  1  0
 44 47  1  0
 45 46  1  0
 46 80  1  0
 46 81  1  0
 46 82  1  0
 47 48  2  0
 47 83  1  0
 48 84  1  0
M  END

