84
rmsd195.gzmat
O          0.00000        0.00000        0.00000
C          1.20950        0.00000        0.00000
C          1.97560        0.00000        1.29080
C          1.96600       -0.02260       -1.27190
C          3.32280        0.29920       -1.34320
C          3.99500        0.26000       -2.55620
C          3.30520       -0.11080       -3.72490
C          1.93970       -0.44020       -3.65670
C          1.28200       -0.38420       -2.43490
N          3.98560       -0.18890       -4.95120
C          5.22800        0.39950       -5.22290
O          6.06410        0.81450       -4.47270
O          5.43700        0.40640       -6.59040
C          4.26550       -0.01810       -7.28780
H          4.60900       -0.78210       -8.01690
C          3.30000       -0.55480       -6.20680
C          3.63270        1.18390       -7.99570
O          2.51280        1.08410       -8.46300
N          4.37370        2.32640       -8.06680
C          3.75400        3.56730       -8.55020
H          2.68650        3.34810       -8.83680
C          3.77610        4.63380       -7.43400
C          3.19510        4.10340       -6.15900
C          3.98180        4.04750       -5.00660
C          3.45180        3.54190       -3.82180
C          2.13460        3.09020       -3.78120
C          1.34610        3.14890       -4.92880
C          1.87260        3.65560       -6.11420
C          4.53080        4.03220       -9.81340
H          4.88800        3.14230      -10.38730
O          5.64280        4.77030       -9.34620
C          3.63310        4.96450      -10.66480
N          4.16480        5.34730      -11.97220
C          5.06510        6.51120      -11.95070
C          4.23480        7.82390      -11.92530
C          5.18130        8.99690      -11.64900
C          3.49850        8.03280      -13.25100
S          4.41080        4.11620      -13.18400
O          5.25240        4.70590      -14.20230
O          4.82220        2.90980      -12.49640
C          2.79850        3.87730      -13.80960
C          2.36750        4.62250      -14.91320
C          1.07990        4.46860      -15.39980
C          0.22230        3.54980      -14.76690
O         -1.00690        3.50780      -15.33030
C         -1.97030        2.63400      -14.75540
C          0.64510        2.78440      -13.67770
C          1.94490        2.95460      -13.20780
H          1.30750       -0.20530        2.14190
H          2.44030        0.97730        1.47850
H          2.76370       -0.76330        1.30120
H          3.86830        0.58930       -0.44330
H          5.05650        0.51390       -2.58850
H          1.38360       -0.73230       -4.54290
H          0.21450       -0.62330       -2.37660
H          2.28780       -0.09450       -6.29030
H          3.17650       -1.65810       -6.26280
H          5.28190        2.40570       -7.62570
H          3.21670        5.53010       -7.76990
H          4.81710        4.99670       -7.27850
H          5.01210        4.39900       -5.02920
H          4.07090        3.49710       -2.92680
H          1.72270        2.68940       -2.85630
H          0.31590        2.79950       -4.89800
H          1.25200        3.69370       -7.00690
H          6.41250        4.63090       -9.93290
H          2.63830        4.48190      -10.81780
H          3.43440        5.89420      -10.07660
H          5.72620        6.52130      -12.84930
H          5.73690        6.48310      -11.06310
H          3.48260        7.76070      -11.10360
H          4.63490        9.94590      -11.61900
H          5.94700        9.08770      -12.42750
H          5.69370        8.88540      -10.68760
H          4.19400        8.07370      -14.09690
H          2.92460        8.96400      -13.24630
H          2.79620        7.21180      -13.44140
H          3.04520        5.33040      -15.40940
H          0.72210        5.03780      -16.25370
H         -2.85200        2.81820      -15.38710
H         -2.17920        2.91030      -13.71730
H         -1.65060        1.59030      -14.83870
H         -0.01220        2.06560      -13.20190
H          2.28370        2.34100      -12.36160
