
     RDKit          3D

 84 87  0  0  0  0  0  0  0  0999 V2000
    0.9122   -2.7075   -0.0566 O   0  0  0  0  0  0  0  0  0  0  0  0
    1.6173   -1.7181   -0.1166 C   0  0  0  0  0  0  0  0  0  0  0  0
    1.8717   -0.8687    1.1154 C   0  0  0  0  0  0  0  0  0  0  0  0
    2.2556   -1.3084   -1.4063 C   0  0  0  0  0  0  0  0  0  0  0  0
    2.0234   -2.0915   -2.5502 C   0  0  0  0  0  0  0  0  0  0  0  0
    2.5838   -1.7733   -3.7795 C   0  0  0  0  0  0  0  0  0  0  0  0
    3.4112   -0.6363   -3.8984 C   0  0  0  0  0  0  0  0  0  0  0  0
    3.6489    0.1559   -2.7593 C   0  0  0  0  0  0  0  0  0  0  0  0
    3.0777   -0.1803   -1.5343 C   0  0  0  0  0  0  0  0  0  0  0  0
    4.0145   -0.2775   -5.1161 N   0  0  0  0  0  0  0  0  0  0  0  0
    3.7340   -0.8305   -6.3598 C   0  0  0  0  0  0  0  0  0  0  0  0
    2.9870   -1.7233   -6.6438 O   0  0  0  0  0  0  0  0  0  0  0  0
    4.4837   -0.1696   -7.2986 O   0  0  0  0  0  0  0  0  0  0  0  0
    5.4532    0.6538   -6.6506 C   0  0  1  0  0  0  0  0  0  0  0  0
    5.5591    1.5866   -7.2225 H   0  0  0  0  0  0  0  0  0  0  0  0
    4.8874    0.8819   -5.2490 C   0  0  0  0  0  0  0  0  0  0  0  0
    6.8285   -0.0347   -6.5873 C   0  0  0  0  0  0  0  0  0  0  0  0
    7.6788    0.3729   -5.8088 O   0  0  0  0  0  0  0  0  0  0  0  0
    6.9934   -1.0574   -7.4477 N   0  0  0  0  0  0  0  0  0  0  0  0
    8.2042   -1.8655   -7.4695 C   0  0  1  0  0  0  0  0  0  0  0  0
    9.0195   -1.2138   -7.1224 H   0  0  0  0  0  0  0  0  0  0  0  0
    8.0286   -3.0481   -6.4927 C   0  0  0  0  0  0  0  0  0  0  0  0
    9.2660   -3.8419   -6.1488 C   0  0  0  0  0  0  0  0  0  0  0  0
   10.4024   -3.2104   -5.6162 C   0  0  0  0  0  0  0  0  0  0  0  0
   11.5325   -3.9496   -5.2621 C   0  0  0  0  0  0  0  0  0  0  0  0
   11.5406   -5.3399   -5.4166 C   0  0  0  0  0  0  0  0  0  0  0  0
   10.4134   -5.9805   -5.9373 C   0  0  0  0  0  0  0  0  0  0  0  0
    9.2909   -5.2349   -6.3105 C   0  0  0  0  0  0  0  0  0  0  0  0
    8.4446   -2.2626   -8.9392 C   0  0  2  0  0  0  0  0  0  0  0  0
    8.3646   -1.3255   -9.5171 H   0  0  0  0  0  0  0  0  0  0  0  0
    7.4038   -3.1021   -9.3810 O   0  0  0  0  0  0  0  0  0  0  0  0
    9.8478   -2.8375   -9.1882 C   0  0  0  0  0  0  0  0  0  0  0  0
   10.0426   -3.2960  -10.5573 N   0  0  0  0  0  0  0  0  0  0  0  0
   10.6214   -2.4214  -11.5702 C   0  0  0  0  0  0  0  0  0  0  0  0
    9.6620   -1.3483  -12.1122 C   0  0  0  0  0  0  0  0  0  0  0  0
   10.3737   -0.5518  -13.2091 C   0  0  0  0  0  0  0  0  0  0  0  0
    8.3485   -1.9592  -12.6042 C   0  0  0  0  0  0  0  0  0  0  0  0
    9.8682   -4.9225  -10.8734 S   0  0  0  0  0  0  0  0  0  0  0  0
    8.8832   -5.4028   -9.8808 O   0  0  0  0  0  0  0  0  0  0  0  0
    9.6455   -5.0783  -12.3100 O   0  0  0  0  0  0  0  0  0  0  0  0
   11.4259   -5.6809  -10.4773 C   0  0  0  0  0  0  0  0  0  0  0  0
   11.7353   -5.9665   -9.1475 C   0  0  0  0  0  0  0  0  0  0  0  0
   12.9914   -6.4746   -8.8188 C   0  0  0  0  0  0  0  0  0  0  0  0
   13.9376   -6.7053   -9.8320 C   0  0  0  0  0  0  0  0  0  0  0  0
   15.1766   -7.1934   -9.6163 O   0  0  0  0  0  0  0  0  0  0  0  0
   15.5768   -7.5019   -8.2978 C   0  0  0  0  0  0  0  0  0  0  0  0
   13.6068   -6.4286  -11.1730 C   0  0  0  0  0  0  0  0  0  0  0  0
   12.3579   -5.9174  -11.4978 C   0  0  0  0  0  0  0  0  0  0  0  0
    1.3329   -1.3077    1.9641 H   0  0  0  0  0  0  0  0  0  0  0  0
    1.5278    0.1662    0.9580 H   0  0  0  0  0  0  0  0  0  0  0  0
    2.9479   -0.8240    1.3474 H   0  0  0  0  0  0  0  0  0  0  0  0
    1.3830   -2.9692   -2.4463 H   0  0  0  0  0  0  0  0  0  0  0  0
    2.3871   -2.3872   -4.6542 H   0  0  0  0  0  0  0  0  0  0  0  0
    4.2828    1.0395   -2.8197 H   0  0  0  0  0  0  0  0  0  0  0  0
    3.2844    0.4566   -0.6728 H   0  0  0  0  0  0  0  0  0  0  0  0
    5.6993    0.8874   -4.5104 H   0  0  0  0  0  0  0  0  0  0  0  0
    4.3156    1.8222   -5.1682 H   0  0  0  0  0  0  0  0  0  0  0  0
    6.2016   -1.3779   -7.9998 H   0  0  0  0  0  0  0  0  0  0  0  0
    7.2556   -3.7128   -6.9050 H   0  0  0  0  0  0  0  0  0  0  0  0
    7.6240   -2.6212   -5.5605 H   0  0  0  0  0  0  0  0  0  0  0  0
   10.3952   -2.1276   -5.4647 H   0  0  0  0  0  0  0  0  0  0  0  0
   12.4066   -3.4399   -4.8492 H   0  0  0  0  0  0  0  0  0  0  0  0
   12.4186   -5.9206   -5.1231 H   0  0  0  0  0  0  0  0  0  0  0  0
   10.4072   -7.0661   -6.0624 H   0  0  0  0  0  0  0  0  0  0  0  0
    8.4223   -5.7396   -6.7394 H   0  0  0  0  0  0  0  0  0  0  0  0
    7.7380   -4.0139   -9.4962 H   0  0  0  0  0  0  0  0  0  0  0  0
   10.6005   -2.0636   -8.9664 H   0  0  0  0  0  0  0  0  0  0  0  0
   10.0417   -3.6647   -8.4963 H   0  0  0  0  0  0  0  0  0  0  0  0
   10.9456   -3.0523  -12.4102 H   0  0  0  0  0  0  0  0  0  0  0  0
   11.5265   -1.9424  -11.1529 H   0  0  0  0  0  0  0  0  0  0  0  0
    9.4344   -0.6505  -11.2855 H   0  0  0  0  0  0  0  0  0  0  0  0
    9.7408    0.2721  -13.5730 H   0  0  0  0  0  0  0  0  0  0  0  0
   10.6071   -1.1985  -14.0720 H   0  0  0  0  0  0  0  0  0  0  0  0
   11.3207   -0.1155  -12.8503 H   0  0  0  0  0  0  0  0  0  0  0  0
    8.5364   -2.7074  -13.3906 H   0  0  0  0  0  0  0  0  0  0  0  0
    7.6907   -1.1789  -13.0188 H   0  0  0  0  0  0  0  0  0  0  0  0
    7.8104   -2.4623  -11.7883 H   0  0  0  0  0  0  0  0  0  0  0  0
   10.9958   -5.8082   -8.3643 H   0  0  0  0  0  0  0  0  0  0  0  0
   13.2134   -6.6873   -7.7740 H   0  0  0  0  0  0  0  0  0  0  0  0
   16.6065   -7.8755   -8.3641 H   0  0  0  0  0  0  0  0  0  0  0  0
   14.9377   -8.2838   -7.8511 H   0  0  0  0  0  0  0  0  0  0  0  0
   15.5579   -6.6097   -7.6474 H   0  0  0  0  0  0  0  0  0  0  0  0
   14.3537   -6.6325  -11.9419 H   0  0  0  0  0  0  0  0  0  0  0  0
   12.0863   -5.7141  -12.5344 H   0  0  0  0  0  0  0  0  0  0  0  0
  1  2  2  0
  2  3  1  0
  2  4  1  0
  3 49  1  0
  3 50  1  0
  3 51  1  0
  4  5  2  0
  4  9  1  0
  5  6  1  0
  5 52  1  0
  6  7  2  0
  6 53  1  0
  7  8  1  0
  7 10  1  0
  8  9  2  0
  8 54  1  0
  9 55  1  0
 10 11  1  0
 10 16  1  0
 11 12  2  0
 11 13  1  0
 13 14  1  0
 14 15  1  6
 14 16  1  0
 14 17  1  0
 16 56  1  0
 16 57  1  0
 17 18  2  0
 17 19  1  0
 19 20  1  0
 19 58  1  0
 20 21  1  1
 20 22  1  0
 20 29  1  0
 22 23  1  0
 22 59  1  0
 22 60  1  0
 23 24  2  0
 23 28  1  0
 24 25  1  0
 24 61  1  0
 25 26  2  0
 25 62  1  0
 26 27  1  0
 26 63  1  0
 27 28  2  0
 27 64  1  0
 28 65  1  0
 29 30  1  6
 29 31  1  0
 29 32  1  0
 31 66  1  0
 32 33  1  0
 32 67  1  0
 32 68  1  0
 33 34  1  0
 38 33  1  0
 34 35  1  0
 34 69  1  0
 34 70  1  0
 35 36  1  0
 35 37  1  0
 35 71  1  0
 36 72  1  0
 36 73  1  0
 36 74  1  0
 37 75  1  0
 37 76  1  0
 37 77  1  0
 38 39  2  0
 38 40  2  0
 38 41  1  0
 41 42  2  0
 41 48  1  0
 42 43  1  0
 42 78  1  0
 43 44  2  0
 43 79  1  0
 44 45  1  0
 44 47  1  0
 45 46  1  0
 46 80  1  0
 46 81  1  0
 46 82  1  0
 47 48  2  0
 47 83  1  0
 48 84  1  0
M  END

