rmsd128.gzmat
 OpenBabel08211713403D

 37 39  0  0  0  0  0  0  0  0999 V2000
    0.0000    0.0000    0.0000 O   0  0  0  0  0  0  0  0  0  0  0  0
    1.4085    0.0000    0.0000 C   0  0  0  0  0  0  0  0  0  0  0  0
    1.8761    0.0000    1.1033 O   0  0  0  0  0  0  0  0  0  0  0  0
    2.0730    0.0043   -1.2863 C   0  0  0  0  0  0  0  0  0  0  0  0
    1.3811    0.0177   -2.4443 C   0  0  0  0  0  0  0  0  0  0  0  0
   -0.0623    0.0055   -2.4150 C   0  0  0  0  0  0  0  0  0  0  0  0
   -0.8881   -0.0045   -3.5529 C   0  0  0  0  0  0  0  0  0  0  0  0
   -2.2638   -0.0231   -3.4267 C   0  0  0  0  0  0  0  0  0  0  0  0
   -2.8703   -0.0322   -2.1537 C   0  0  0  0  0  0  0  0  0  0  0  0
   -2.0841   -0.0207   -1.0123 C   0  0  0  0  0  0  0  0  0  0  0  0
   -0.6878   -0.0046   -1.1579 C   0  0  0  0  0  0  0  0  0  0  0  0
   -4.3543   -0.0401   -2.0384 C   0  0  0  0  0  0  0  0  0  0  0  0
    2.0705    0.0314   -3.7753 C   0  0  0  0  0  0  0  0  0  0  0  0
    3.4748    0.1737   -3.6577 O   0  0  0  0  0  0  0  0  0  0  0  0
    3.9714    1.4304   -3.4423 C   0  0  0  0  0  0  0  0  0  0  0  0
    3.2212    2.5507   -3.0971 C   0  0  0  0  0  0  0  0  0  0  0  0
    3.8858    3.7579   -2.8856 C   0  0  0  0  0  0  0  0  0  0  0  0
    5.2717    3.8409   -3.0204 C   0  0  0  0  0  0  0  0  0  0  0  0
    6.0056    2.6998   -3.3673 C   0  0  0  0  0  0  0  0  0  0  0  0
    5.3652    1.4874   -3.5798 C   0  0  0  0  0  0  0  0  0  0  0  0
    5.9709    5.1413   -2.8113 C   0  0  0  0  0  0  0  0  0  0  0  0
    3.1670    0.0007   -1.2508 H   0  0  0  0  0  0  0  0  0  0  0  0
   -0.4404   -0.0002   -4.5469 H   0  0  0  0  0  0  0  0  0  0  0  0
   -2.8919   -0.0315   -4.3140 H   0  0  0  0  0  0  0  0  0  0  0  0
   -2.5182   -0.0257   -0.0143 H   0  0  0  0  0  0  0  0  0  0  0  0
   -4.8470   -0.4680   -2.9222 H   0  0  0  0  0  0  0  0  0  0  0  0
   -4.7409    0.9851   -1.9177 H   0  0  0  0  0  0  0  0  0  0  0  0
   -4.7019   -0.6167   -1.1678 H   0  0  0  0  0  0  0  0  0  0  0  0
    1.6601    0.8004   -4.4585 H   0  0  0  0  0  0  0  0  0  0  0  0
    1.9960   -0.9657   -4.2685 H   0  0  0  0  0  0  0  0  0  0  0  0
    2.1441    2.4988   -2.9739 H   0  0  0  0  0  0  0  0  0  0  0  0
    3.3122    4.6414   -2.6078 H   0  0  0  0  0  0  0  0  0  0  0  0
    7.0880    2.7639   -3.4716 H   0  0  0  0  0  0  0  0  0  0  0  0
    5.9207    0.5915   -3.8448 H   0  0  0  0  0  0  0  0  0  0  0  0
    6.9842    5.0090   -2.4071 H   0  0  0  0  0  0  0  0  0  0  0  0
    5.4335    5.7967   -2.1118 H   0  0  0  0  0  0  0  0  0  0  0  0
    6.0680    5.6899   -3.7609 H   0  0  0  0  0  0  0  0  0  0  0  0
  1  2  1  0  0  0  0
  2  3  2  0  0  0  0
  4 22  1  0  0  0  0
  4  2  1  0  0  0  0
  5  6  1  0  0  0  0
  5  4  2  0  0  0  0
  6 11  2  0  0  0  0
  7  8  2  0  0  0  0
  7  6  1  0  0  0  0
  8  9  1  0  0  0  0
  9 12  1  0  0  0  0
  9 10  2  0  0  0  0
 10 25  1  0  0  0  0
 11 10  1  0  0  0  0
 11  1  1  0  0  0  0
 12 27  1  0  0  0  0
 12 28  1  0  0  0  0
 13 14  1  0  0  0  0
 13  5  1  0  0  0  0
 14 15  1  0  0  0  0
 15 16  1  0  0  0  0
 16 31  1  0  0  0  0
 16 17  2  0  0  0  0
 17 32  1  0  0  0  0
 18 17  1  0  0  0  0
 18 21  1  0  0  0  0
 19 18  2  0  0  0  0
 20 15  2  0  0  0  0
 20 19  1  0  0  0  0
 21 35  1  0  0  0  0
 21 36  1  0  0  0  0
 23  7  1  0  0  0  0
 24  8  1  0  0  0  0
 26 12  1  0  0  0  0
 29 13  1  0  0  0  0
 30 13  1  0  0  0  0
 33 19  1  0  0  0  0
 34 20  1  0  0  0  0
 37 21  1  0  0  0  0
M  END
$$$$
