rmsd239.gzmat
 OpenBabel08211713403D

 37 39  0  0  0  0  0  0  0  0999 V2000
    0.0000    0.0000    0.0000 O   0  0  0  0  0  0  0  0  0  0  0  0
    1.4086    0.0000    0.0000 C   0  0  0  0  0  0  0  0  0  0  0  0
    1.8768    0.0000    1.1030 O   0  0  0  0  0  0  0  0  0  0  0  0
    2.0730   -0.0054   -1.2861 C   0  0  0  0  0  0  0  0  0  0  0  0
    1.3816   -0.0196   -2.4445 C   0  0  0  0  0  0  0  0  0  0  0  0
   -0.0624    0.0016   -2.4149 C   0  0  0  0  0  0  0  0  0  0  0  0
   -0.8888    0.0228   -3.5528 C   0  0  0  0  0  0  0  0  0  0  0  0
   -2.2638    0.0534   -3.4265 C   0  0  0  0  0  0  0  0  0  0  0  0
   -2.8695    0.0625   -2.1526 C   0  0  0  0  0  0  0  0  0  0  0  0
   -2.0837    0.0418   -1.0121 C   0  0  0  0  0  0  0  0  0  0  0  0
   -0.6876    0.0135   -1.1580 C   0  0  0  0  0  0  0  0  0  0  0  0
   -4.3537    0.1120   -2.0485 C   0  0  0  0  0  0  0  0  0  0  0  0
    2.0650   -0.0466   -3.7786 C   0  0  0  0  0  0  0  0  0  0  0  0
    3.4767   -0.0525   -3.6723 O   0  0  0  0  0  0  0  0  0  0  0  0
    4.0987   -1.2371   -3.3879 C   0  0  0  0  0  0  0  0  0  0  0  0
    3.4677   -2.4259   -3.0341 C   0  0  0  0  0  0  0  0  0  0  0  0
    4.2575   -3.5406   -2.7540 C   0  0  0  0  0  0  0  0  0  0  0  0
    5.6485   -3.4665   -2.8308 C   0  0  0  0  0  0  0  0  0  0  0  0
    6.2608   -2.2582   -3.1864 C   0  0  0  0  0  0  0  0  0  0  0  0
    5.4951   -1.1361   -3.4679 C   0  0  0  0  0  0  0  0  0  0  0  0
    6.4838   -4.6607   -2.5166 C   0  0  0  0  0  0  0  0  0  0  0  0
    3.1666   -0.0006   -1.2478 H   0  0  0  0  0  0  0  0  0  0  0  0
   -0.4392    0.0190   -4.5456 H   0  0  0  0  0  0  0  0  0  0  0  0
   -2.8941    0.0727   -4.3123 H   0  0  0  0  0  0  0  0  0  0  0  0
   -2.5153    0.0506   -0.0131 H   0  0  0  0  0  0  0  0  0  0  0  0
   -4.8421   -0.5599   -2.7687 H   0  0  0  0  0  0  0  0  0  0  0  0
   -4.7247    1.1296   -2.2527 H   0  0  0  0  0  0  0  0  0  0  0  0
   -4.7211   -0.1678   -1.0504 H   0  0  0  0  0  0  0  0  0  0  0  0
    1.8994    0.9091   -4.3292 H   0  0  0  0  0  0  0  0  0  0  0  0
    1.7178   -0.8880   -4.4099 H   0  0  0  0  0  0  0  0  0  0  0  0
    2.3874   -2.4965   -2.9578 H   0  0  0  0  0  0  0  0  0  0  0  0
    3.7792   -4.4756   -2.4655 H   0  0  0  0  0  0  0  0  0  0  0  0
    7.3470   -2.1974   -3.2400 H   0  0  0  0  0  0  0  0  0  0  0  0
    5.9542   -0.1904   -3.7443 H   0  0  0  0  0  0  0  0  0  0  0  0
    7.4302   -4.6664   -3.0737 H   0  0  0  0  0  0  0  0  0  0  0  0
    5.9718   -5.6033   -2.7527 H   0  0  0  0  0  0  0  0  0  0  0  0
    6.7361   -4.6888   -1.4449 H   0  0  0  0  0  0  0  0  0  0  0  0
  2  1  1  0  0  0  0
  2  3  2  0  0  0  0
  4 22  1  0  0  0  0
  4  2  1  0  0  0  0
  5  6  1  0  0  0  0
  5  4  2  0  0  0  0
  6 11  2  0  0  0  0
  7  8  2  0  0  0  0
  7  6  1  0  0  0  0
  8  9  1  0  0  0  0
  9 12  1  0  0  0  0
  9 10  2  0  0  0  0
 10 25  1  0  0  0  0
 11 10  1  0  0  0  0
 11  1  1  0  0  0  0
 12 28  1  0  0  0  0
 13 14  1  0  0  0  0
 13  5  1  0  0  0  0
 14 15  1  0  0  0  0
 15 16  1  0  0  0  0
 16 31  1  0  0  0  0
 16 17  2  0  0  0  0
 17 32  1  0  0  0  0
 18 17  1  0  0  0  0
 18 21  1  0  0  0  0
 19 18  2  0  0  0  0
 20 15  2  0  0  0  0
 20 19  1  0  0  0  0
 21 37  1  0  0  0  0
 23  7  1  0  0  0  0
 24  8  1  0  0  0  0
 26 12  1  0  0  0  0
 27 12  1  0  0  0  0
 29 13  1  0  0  0  0
 30 13  1  0  0  0  0
 33 19  1  0  0  0  0
 34 20  1  0  0  0  0
 35 21  1  0  0  0  0
 36 21  1  0  0  0  0
M  END
$$$$
