37
rmsd9.gzmat
O          0.00000        0.00000        0.00000
C          1.40850        0.00000        0.00000
O          1.87580        0.00000        1.10350
C          2.07270        0.00160       -1.28630
C          1.38060        0.00120       -2.44460
C         -0.06280       -0.02030       -2.41500
C         -0.89010       -0.04910       -3.55240
C         -2.26490       -0.07000       -3.42440
C         -2.87060       -0.06110       -2.15000
C         -2.08440       -0.03320       -1.01020
C         -0.68770       -0.01740       -1.15770
C         -4.35590       -0.07590       -2.04940
C          2.07340        0.00330       -3.77440
O          3.47230        0.18930       -3.65450
C          3.93300        1.45980       -3.44180
C          3.14560        2.58350       -3.21160
C          3.77900        3.80740       -2.99630
C          5.16990        3.90200       -3.01290
C          5.94160        2.75690       -3.25000
C          5.33380        1.52920       -3.46450
C          5.84490        5.21190       -2.78700
H          3.16640        0.00740       -1.25100
H         -0.44240       -0.05720       -4.54640
H         -2.89550       -0.09410       -4.30960
H         -2.51500       -0.02530       -0.01070
H         -4.79700       -0.88120       -2.65570
H         -4.78580        0.87200       -2.41010
H         -4.71430       -0.21860       -1.01980
H          1.64520        0.74120       -4.47950
H          2.03090       -1.00820       -4.24140
H          2.06250        2.52490       -3.18170
H          3.17500        4.69440       -2.80940
H          7.02800        2.83210       -3.26470
H          5.91810        0.63080       -3.64520
H          6.74130        5.10750       -2.15950
H          5.19390        5.94250       -2.28870
H          6.16470        5.65940       -3.73990
