rmsd20.gzmat
 OpenBabel08211713403D

 37 39  0  0  0  0  0  0  0  0999 V2000
    0.0000    0.0000    0.0000 O   0  0  0  0  0  0  0  0  0  0  0  0
    1.4090    0.0000    0.0000 C   0  0  0  0  0  0  0  0  0  0  0  0
    1.8757    0.0000    1.1037 O   0  0  0  0  0  0  0  0  0  0  0  0
    2.0734   -0.0014   -1.2862 C   0  0  0  0  0  0  0  0  0  0  0  0
    1.3808    0.0103   -2.4440 C   0  0  0  0  0  0  0  0  0  0  0  0
   -0.0629    0.0094   -2.4146 C   0  0  0  0  0  0  0  0  0  0  0  0
   -0.8898    0.0076   -3.5525 C   0  0  0  0  0  0  0  0  0  0  0  0
   -2.2650   -0.0060   -3.4250 C   0  0  0  0  0  0  0  0  0  0  0  0
   -2.8710   -0.0180   -2.1507 C   0  0  0  0  0  0  0  0  0  0  0  0
   -2.0846   -0.0149   -1.0106 C   0  0  0  0  0  0  0  0  0  0  0  0
   -0.6880   -0.0016   -1.1578 C   0  0  0  0  0  0  0  0  0  0  0  0
   -4.3562   -0.0248   -2.0495 C   0  0  0  0  0  0  0  0  0  0  0  0
    2.0676    0.0009   -3.7764 C   0  0  0  0  0  0  0  0  0  0  0  0
    3.4771    0.0762   -3.6603 O   0  0  0  0  0  0  0  0  0  0  0  0
    4.0394    1.3116   -3.4888 C   0  0  0  0  0  0  0  0  0  0  0  0
    3.3539    2.4791   -3.1672 C   0  0  0  0  0  0  0  0  0  0  0  0
    4.0834    3.6579   -3.0117 C   0  0  0  0  0  0  0  0  0  0  0  0
    5.4680    3.6656   -3.1769 C   0  0  0  0  0  0  0  0  0  0  0  0
    6.1372    2.4756   -3.4931 C   0  0  0  0  0  0  0  0  0  0  0  0
    5.4322    1.2917   -3.6512 C   0  0  0  0  0  0  0  0  0  0  0  0
    6.2438    4.9305   -3.0300 C   0  0  0  0  0  0  0  0  0  0  0  0
    3.1671   -0.0135   -1.2519 H   0  0  0  0  0  0  0  0  0  0  0  0
   -0.4427    0.0139   -4.5467 H   0  0  0  0  0  0  0  0  0  0  0  0
   -2.8957   -0.0082   -4.3107 H   0  0  0  0  0  0  0  0  0  0  0  0
   -2.5154   -0.0245   -0.0113 H   0  0  0  0  0  0  0  0  0  0  0  0
   -4.8073   -0.7874   -2.7020 H   0  0  0  0  0  0  0  0  0  0  0  0
   -4.7760    0.9475   -2.3531 H   0  0  0  0  0  0  0  0  0  0  0  0
   -4.7141   -0.2235   -1.0291 H   0  0  0  0  0  0  0  0  0  0  0  0
    1.6885    0.7900   -4.4545 H   0  0  0  0  0  0  0  0  0  0  0  0
    1.9478   -0.9906   -4.2728 H   0  0  0  0  0  0  0  0  0  0  0  0
    2.2781    2.4867   -3.0227 H   0  0  0  0  0  0  0  0  0  0  0  0
    3.5602    4.5785   -2.7560 H   0  0  0  0  0  0  0  0  0  0  0  0
    7.2196    2.4820   -3.6171 H   0  0  0  0  0  0  0  0  0  0  0  0
    5.9349    0.3596   -3.8961 H   0  0  0  0  0  0  0  0  0  0  0  0
    7.1475    4.7867   -2.4204 H   0  0  0  0  0  0  0  0  0  0  0  0
    5.6623    5.7306   -2.5528 H   0  0  0  0  0  0  0  0  0  0  0  0
    6.5701    5.3090   -4.0105 H   0  0  0  0  0  0  0  0  0  0  0  0
  1  2  1  0  0  0  0
  2  3  2  0  0  0  0
  4 22  1  0  0  0  0
  4  2  1  0  0  0  0
  5  6  1  0  0  0  0
  5  4  2  0  0  0  0
  6 11  2  0  0  0  0
  7  8  2  0  0  0  0
  7  6  1  0  0  0  0
  8  9  1  0  0  0  0
  9 12  1  0  0  0  0
  9 10  2  0  0  0  0
 10 25  1  0  0  0  0
 11 10  1  0  0  0  0
 11  1  1  0  0  0  0
 12 28  1  0  0  0  0
 13 14  1  0  0  0  0
 13  5  1  0  0  0  0
 14 15  1  0  0  0  0
 15 16  2  0  0  0  0
 16 31  1  0  0  0  0
 16 17  1  0  0  0  0
 17 32  1  0  0  0  0
 18 21  1  0  0  0  0
 18 17  2  0  0  0  0
 19 18  1  0  0  0  0
 20 19  2  0  0  0  0
 20 15  1  0  0  0  0
 21 36  1  0  0  0  0
 21 35  1  0  0  0  0
 23  7  1  0  0  0  0
 24  8  1  0  0  0  0
 26 12  1  0  0  0  0
 27 12  1  0  0  0  0
 29 13  1  0  0  0  0
 30 13  1  0  0  0  0
 33 19  1  0  0  0  0
 34 20  1  0  0  0  0
 37 21  1  0  0  0  0
M  END
$$$$
