37
rmsd102.gzmat
O          0.00000        0.00000        0.00000
C          1.40840        0.00000        0.00000
O          1.87600        0.00000        1.10330
C          2.07270        0.00360       -1.28650
C          1.38080        0.00720       -2.44490
C         -0.06270       -0.01850       -2.41560
C         -0.88940       -0.04750       -3.55260
C         -2.26500       -0.06120       -3.42590
C         -2.87100       -0.04940       -2.15260
C         -2.08420       -0.02870       -1.01200
C         -0.68810       -0.01620       -1.15790
C         -4.35550       -0.04040       -2.04080
C          2.07270        0.02650       -3.77520
O          3.46910        0.23090       -3.65890
C          3.91210        1.49450       -3.37910
C          5.31050        1.56680       -3.31490
C          5.90160        2.78860       -3.02490
C          5.11390        3.92370       -2.80170
C          3.72350        3.82760       -2.87850
C          3.10800        2.61140       -3.16830
C          5.75020        5.23440       -2.48460
H          3.16650        0.01070       -1.25060
H         -0.44210       -0.06200       -4.54650
H         -2.89410       -0.08140       -4.31240
H         -2.51650       -0.02220       -0.01350
H         -4.84650       -0.54270       -2.88620
H         -4.73570        0.99420       -2.01560
H         -4.71130       -0.53370       -1.12400
H          1.63350        0.76480       -4.47380
H          2.04340       -0.98120       -4.25140
H          5.90810        0.67570       -3.48830
H          6.98680        2.86170       -2.96780
H          3.10990        4.71030       -2.70460
H          2.02530        2.55160       -3.21200
H          5.63670        5.94240       -3.31910
H          6.82580        5.14500       -2.28180
H          5.29750        5.70030       -1.59710
