rmsd232.gzmat
 OpenBabel08211713403D

 37 39  0  0  0  0  0  0  0  0999 V2000
    0.0000    0.0000    0.0000 O   0  0  0  0  0  0  0  0  0  0  0  0
    1.4084    0.0000    0.0000 C   0  0  0  0  0  0  0  0  0  0  0  0
    1.8752    0.0000    1.1035 O   0  0  0  0  0  0  0  0  0  0  0  0
    2.0731    0.0029   -1.2862 C   0  0  0  0  0  0  0  0  0  0  0  0
    1.3811    0.0037   -2.4444 C   0  0  0  0  0  0  0  0  0  0  0  0
   -0.0628   -0.0189   -2.4153 C   0  0  0  0  0  0  0  0  0  0  0  0
   -0.8895   -0.0516   -3.5525 C   0  0  0  0  0  0  0  0  0  0  0  0
   -2.2647   -0.0845   -3.4254 C   0  0  0  0  0  0  0  0  0  0  0  0
   -2.8699   -0.0799   -2.1515 C   0  0  0  0  0  0  0  0  0  0  0  0
   -2.0835   -0.0452   -1.0113 C   0  0  0  0  0  0  0  0  0  0  0  0
   -0.6877   -0.0204   -1.1577 C   0  0  0  0  0  0  0  0  0  0  0  0
   -4.3542   -0.0960   -2.0411 C   0  0  0  0  0  0  0  0  0  0  0  0
    2.0676    0.0090   -3.7769 C   0  0  0  0  0  0  0  0  0  0  0  0
    3.4762    0.0997   -3.6617 O   0  0  0  0  0  0  0  0  0  0  0  0
    4.0243    1.3409   -3.4862 C   0  0  0  0  0  0  0  0  0  0  0  0
    3.3275    2.4947   -3.1419 C   0  0  0  0  0  0  0  0  0  0  0  0
    4.0434    3.6803   -2.9762 C   0  0  0  0  0  0  0  0  0  0  0  0
    5.4254    3.7085   -3.1572 C   0  0  0  0  0  0  0  0  0  0  0  0
    6.1061    2.5316   -3.4964 C   0  0  0  0  0  0  0  0  0  0  0  0
    5.4151    1.3412   -3.6647 C   0  0  0  0  0  0  0  0  0  0  0  0
    6.1892    4.9788   -2.9980 C   0  0  0  0  0  0  0  0  0  0  0  0
    3.1669    0.0056   -1.2509 H   0  0  0  0  0  0  0  0  0  0  0  0
   -0.4429   -0.0548   -4.5468 H   0  0  0  0  0  0  0  0  0  0  0  0
   -2.8952   -0.1155   -4.3109 H   0  0  0  0  0  0  0  0  0  0  0  0
   -2.5168   -0.0396   -0.0131 H   0  0  0  0  0  0  0  0  0  0  0  0
   -4.8294   -0.6609   -2.8552 H   0  0  0  0  0  0  0  0  0  0  0  0
   -4.7565    0.9291   -2.0812 H   0  0  0  0  0  0  0  0  0  0  0  0
   -4.7023   -0.5402   -1.0972 H   0  0  0  0  0  0  0  0  0  0  0  0
    1.6794    0.7988   -4.4489 H   0  0  0  0  0  0  0  0  0  0  0  0
    1.9587   -0.9797   -4.2807 H   0  0  0  0  0  0  0  0  0  0  0  0
    2.2533    2.4861   -2.9873 H   0  0  0  0  0  0  0  0  0  0  0  0
    3.5129    4.5899   -2.6976 H   0  0  0  0  0  0  0  0  0  0  0  0
    7.1871    2.5530   -3.6286 H   0  0  0  0  0  0  0  0  0  0  0  0
    5.9273    0.4198   -3.9293 H   0  0  0  0  0  0  0  0  0  0  0  0
    7.0136    4.8658   -2.2788 H   0  0  0  0  0  0  0  0  0  0  0  0
    5.5656    5.8082   -2.6394 H   0  0  0  0  0  0  0  0  0  0  0  0
    6.6304    5.2988   -3.9537 H   0  0  0  0  0  0  0  0  0  0  0  0
  1  2  1  0  0  0  0
  2  3  2  0  0  0  0
  4 22  1  0  0  0  0
  4  2  1  0  0  0  0
  5  6  1  0  0  0  0
  5  4  2  0  0  0  0
  6 11  2  0  0  0  0
  7  8  2  0  0  0  0
  7  6  1  0  0  0  0
  8  9  1  0  0  0  0
  9 12  1  0  0  0  0
  9 10  2  0  0  0  0
 10 25  1  0  0  0  0
 11 10  1  0  0  0  0
 11  1  1  0  0  0  0
 12 28  1  0  0  0  0
 13 14  1  0  0  0  0
 13  5  1  0  0  0  0
 14 15  1  0  0  0  0
 15 16  2  0  0  0  0
 16 31  1  0  0  0  0
 16 17  1  0  0  0  0
 17 32  1  0  0  0  0
 18 21  1  0  0  0  0
 18 17  2  0  0  0  0
 19 18  1  0  0  0  0
 20 19  2  0  0  0  0
 20 15  1  0  0  0  0
 21 36  1  0  0  0  0
 21 35  1  0  0  0  0
 23  7  1  0  0  0  0
 24  8  1  0  0  0  0
 26 12  1  0  0  0  0
 27 12  1  0  0  0  0
 29 13  1  0  0  0  0
 30 13  1  0  0  0  0
 33 19  1  0  0  0  0
 34 20  1  0  0  0  0
 37 21  1  0  0  0  0
M  END
$$$$
