37
rmsd232.gzmat
O          0.00000        0.00000        0.00000
C          1.40840        0.00000        0.00000
O          1.87520        0.00000        1.10350
C          2.07310        0.00290       -1.28620
C          1.38110        0.00370       -2.44440
C         -0.06280       -0.01890       -2.41530
C         -0.88950       -0.05160       -3.55250
C         -2.26470       -0.08450       -3.42540
C         -2.86990       -0.07990       -2.15150
C         -2.08350       -0.04520       -1.01130
C         -0.68770       -0.02040       -1.15770
C         -4.35420       -0.09600       -2.04110
C          2.06760        0.00900       -3.77690
O          3.47620        0.09970       -3.66170
C          4.02430        1.34090       -3.48620
C          3.32750        2.49470       -3.14190
C          4.04340        3.68030       -2.97620
C          5.42540        3.70850       -3.15720
C          6.10610        2.53160       -3.49640
C          5.41510        1.34120       -3.66470
C          6.18920        4.97880       -2.99800
H          3.16690        0.00560       -1.25090
H         -0.44290       -0.05480       -4.54680
H         -2.89520       -0.11550       -4.31090
H         -2.51680       -0.03960       -0.01310
H         -4.82940       -0.66090       -2.85520
H         -4.75650        0.92910       -2.08120
H         -4.70230       -0.54020       -1.09720
H          1.67940        0.79880       -4.44890
H          1.95870       -0.97970       -4.28070
H          2.25330        2.48610       -2.98730
H          3.51290        4.58990       -2.69760
H          7.18710        2.55300       -3.62860
H          5.92730        0.41980       -3.92930
H          7.01360        4.86580       -2.27880
H          5.56560        5.80820       -2.63940
H          6.63040        5.29880       -3.95370
