37
rmsd18.gzmat
O          0.00000        0.00000        0.00000
C          1.40860        0.00000        0.00000
O          1.87480        0.00000        1.10380
C          2.07360        0.00220       -1.28620
C          1.38110        0.00470       -2.44420
C         -0.06290       -0.01400       -2.41460
C         -0.89000       -0.03750       -3.55250
C         -2.26490       -0.06160       -3.42570
C         -2.87070       -0.06690       -2.15120
C         -2.08490       -0.04390       -1.01080
C         -0.68820       -0.01780       -1.15750
C         -4.35560       -0.09100       -2.04790
C          2.06420        0.01140       -3.77860
O          3.47450        0.07470       -3.67260
C          4.04840        1.28850       -3.41000
C          5.44810        1.23930       -3.46400
C          6.16610        2.39830       -3.20340
C          5.50180        3.59100       -2.89460
C          4.10710        3.61370       -2.84410
C          3.36560        2.46210       -3.10160
C          6.27480        4.83390       -2.61040
H          3.16730        0.00410       -1.24930
H         -0.44240       -0.03990       -4.54650
H         -2.89560       -0.07910       -4.31120
H         -2.51750       -0.04810       -0.01210
H         -4.79970       -0.84620       -2.71320
H         -4.78610        0.88260       -2.33170
H         -4.70900       -0.31280       -1.03040
H          1.68690        0.81450       -4.44110
H          1.93600       -0.96980       -4.29280
H          5.94910        0.30510       -3.70460
H          7.25470        2.37730       -3.23780
H          3.58930        4.53930       -2.59490
H          2.28210        2.49270       -3.04360
H          5.96650        5.65990       -3.26720
H          7.35600        4.70260       -2.74840
H          6.12220        5.16760       -1.57270
