37
rmsd128.gzmat
O          0.00000        0.00000        0.00000
C          1.40850        0.00000        0.00000
O          1.87610        0.00000        1.10330
C          2.07300        0.00430       -1.28630
C          1.38110        0.01770       -2.44430
C         -0.06230        0.00550       -2.41500
C         -0.88810       -0.00450       -3.55290
C         -2.26380       -0.02310       -3.42670
C         -2.87030       -0.03220       -2.15370
C         -2.08410       -0.02070       -1.01230
C         -0.68780       -0.00460       -1.15790
C         -4.35430       -0.04010       -2.03840
C          2.07050        0.03140       -3.77530
O          3.47480        0.17370       -3.65770
C          3.97140        1.43040       -3.44230
C          3.22120        2.55070       -3.09710
C          3.88580        3.75790       -2.88560
C          5.27170        3.84090       -3.02040
C          6.00560        2.69980       -3.36730
C          5.36520        1.48740       -3.57980
C          5.97090        5.14130       -2.81130
H          3.16700        0.00070       -1.25080
H         -0.44040       -0.00020       -4.54690
H         -2.89190       -0.03150       -4.31400
H         -2.51820       -0.02570       -0.01430
H         -4.84700       -0.46800       -2.92220
H         -4.74090        0.98510       -1.91770
H         -4.70190       -0.61670       -1.16780
H          1.66010        0.80040       -4.45850
H          1.99600       -0.96570       -4.26850
H          2.14410        2.49880       -2.97390
H          3.31220        4.64140       -2.60780
H          7.08800        2.76390       -3.47160
H          5.92070        0.59150       -3.84480
H          6.98420        5.00900       -2.40710
H          5.43350        5.79670       -2.11180
H          6.06800        5.68990       -3.76090
