rmsd102.gzmat
 OpenBabel08211713403D

 37 39  0  0  0  0  0  0  0  0999 V2000
    0.0000    0.0000    0.0000 O   0  0  0  0  0  0  0  0  0  0  0  0
    1.4084    0.0000    0.0000 C   0  0  0  0  0  0  0  0  0  0  0  0
    1.8760    0.0000    1.1033 O   0  0  0  0  0  0  0  0  0  0  0  0
    2.0727    0.0036   -1.2865 C   0  0  0  0  0  0  0  0  0  0  0  0
    1.3808    0.0072   -2.4449 C   0  0  0  0  0  0  0  0  0  0  0  0
   -0.0627   -0.0185   -2.4156 C   0  0  0  0  0  0  0  0  0  0  0  0
   -0.8894   -0.0475   -3.5526 C   0  0  0  0  0  0  0  0  0  0  0  0
   -2.2650   -0.0612   -3.4259 C   0  0  0  0  0  0  0  0  0  0  0  0
   -2.8710   -0.0494   -2.1526 C   0  0  0  0  0  0  0  0  0  0  0  0
   -2.0842   -0.0287   -1.0120 C   0  0  0  0  0  0  0  0  0  0  0  0
   -0.6881   -0.0162   -1.1579 C   0  0  0  0  0  0  0  0  0  0  0  0
   -4.3555   -0.0404   -2.0408 C   0  0  0  0  0  0  0  0  0  0  0  0
    2.0727    0.0265   -3.7752 C   0  0  0  0  0  0  0  0  0  0  0  0
    3.4691    0.2309   -3.6589 O   0  0  0  0  0  0  0  0  0  0  0  0
    3.9121    1.4945   -3.3791 C   0  0  0  0  0  0  0  0  0  0  0  0
    5.3105    1.5668   -3.3149 C   0  0  0  0  0  0  0  0  0  0  0  0
    5.9016    2.7886   -3.0249 C   0  0  0  0  0  0  0  0  0  0  0  0
    5.1139    3.9237   -2.8017 C   0  0  0  0  0  0  0  0  0  0  0  0
    3.7235    3.8276   -2.8785 C   0  0  0  0  0  0  0  0  0  0  0  0
    3.1080    2.6114   -3.1683 C   0  0  0  0  0  0  0  0  0  0  0  0
    5.7502    5.2344   -2.4846 C   0  0  0  0  0  0  0  0  0  0  0  0
    3.1665    0.0107   -1.2506 H   0  0  0  0  0  0  0  0  0  0  0  0
   -0.4421   -0.0620   -4.5465 H   0  0  0  0  0  0  0  0  0  0  0  0
   -2.8941   -0.0814   -4.3124 H   0  0  0  0  0  0  0  0  0  0  0  0
   -2.5165   -0.0222   -0.0135 H   0  0  0  0  0  0  0  0  0  0  0  0
   -4.8465   -0.5427   -2.8862 H   0  0  0  0  0  0  0  0  0  0  0  0
   -4.7357    0.9942   -2.0156 H   0  0  0  0  0  0  0  0  0  0  0  0
   -4.7113   -0.5337   -1.1240 H   0  0  0  0  0  0  0  0  0  0  0  0
    1.6335    0.7648   -4.4738 H   0  0  0  0  0  0  0  0  0  0  0  0
    2.0434   -0.9812   -4.2514 H   0  0  0  0  0  0  0  0  0  0  0  0
    5.9081    0.6757   -3.4883 H   0  0  0  0  0  0  0  0  0  0  0  0
    6.9868    2.8617   -2.9678 H   0  0  0  0  0  0  0  0  0  0  0  0
    3.1099    4.7103   -2.7046 H   0  0  0  0  0  0  0  0  0  0  0  0
    2.0253    2.5516   -3.2120 H   0  0  0  0  0  0  0  0  0  0  0  0
    5.6367    5.9424   -3.3191 H   0  0  0  0  0  0  0  0  0  0  0  0
    6.8258    5.1450   -2.2818 H   0  0  0  0  0  0  0  0  0  0  0  0
    5.2975    5.7003   -1.5971 H   0  0  0  0  0  0  0  0  0  0  0  0
  2  1  1  0  0  0  0
  2  3  2  0  0  0  0
  4 22  1  0  0  0  0
  4  2  1  0  0  0  0
  5  6  1  0  0  0  0
  5  4  2  0  0  0  0
  6 11  2  0  0  0  0
  7  8  2  0  0  0  0
  7  6  1  0  0  0  0
  8  9  1  0  0  0  0
  9 12  1  0  0  0  0
  9 10  2  0  0  0  0
 10 25  1  0  0  0  0
 11 10  1  0  0  0  0
 11  1  1  0  0  0  0
 12 27  1  0  0  0  0
 12 28  1  0  0  0  0
 13 14  1  0  0  0  0
 13  5  1  0  0  0  0
 14 15  1  0  0  0  0
 15 16  2  0  0  0  0
 15 20  1  0  0  0  0
 16 17  1  0  0  0  0
 17 32  1  0  0  0  0
 17 18  2  0  0  0  0
 18 21  1  0  0  0  0
 19 18  1  0  0  0  0
 19 33  1  0  0  0  0
 20 19  2  0  0  0  0
 21 36  1  0  0  0  0
 21 37  1  0  0  0  0
 23  7  1  0  0  0  0
 24  8  1  0  0  0  0
 26 12  1  0  0  0  0
 29 13  1  0  0  0  0
 30 13  1  0  0  0  0
 31 16  1  0  0  0  0
 34 20  1  0  0  0  0
 35 21  1  0  0  0  0
M  END
$$$$
