37
rmsd41.gzmat
O          0.00000        0.00000        0.00000
C          1.40850        0.00000        0.00000
O          1.87560        0.00000        1.10360
C          2.07320        0.00220       -1.28620
C          1.38070        0.01030       -2.44420
C         -0.06320       -0.00240       -2.41480
C         -0.89050       -0.01570       -3.55210
C         -2.26600       -0.03290       -3.42440
C         -2.87110       -0.03740       -2.15020
C         -2.08440       -0.02610       -1.00980
C         -0.68820       -0.00930       -1.15770
C         -4.35570       -0.03540       -2.04130
C          2.06790        0.01640       -3.77660
O          3.47630        0.10830       -3.66040
C          4.02260        1.34460       -3.44810
C          5.41970        1.33700       -3.55530
C          6.11030        2.52380       -3.35060
C          5.42180        3.70340       -3.04570
C          4.03000        3.68440       -2.94160
C          3.31630        2.50400       -3.13900
C          6.16350        4.97710       -2.82000
H          3.16730       -0.00020       -1.25010
H         -0.44350       -0.01450       -4.54660
H         -2.89660       -0.04370       -4.31030
H         -2.51560       -0.02990       -0.01050
H         -4.83810       -0.58860       -2.85910
H         -4.74470        0.99550       -2.07530
H         -4.71150       -0.48050       -1.10050
H          1.68010        0.80580       -4.44970
H          1.95930       -0.97260       -4.28120
H          5.93990        0.41280       -3.79320
H          7.19660        2.53350       -3.42730
H          3.49240        4.59970       -2.69730
H          2.23650        2.50140       -3.03200
H          5.82030        5.76990       -3.50030
H          7.24590        4.87220       -2.97170
H          6.01770        5.34380       -1.79260
