rmsd41.gzmat
 OpenBabel08211713403D

 37 39  0  0  0  0  0  0  0  0999 V2000
    0.0000    0.0000    0.0000 O   0  0  0  0  0  0  0  0  0  0  0  0
    1.4085    0.0000    0.0000 C   0  0  0  0  0  0  0  0  0  0  0  0
    1.8756    0.0000    1.1036 O   0  0  0  0  0  0  0  0  0  0  0  0
    2.0732    0.0022   -1.2862 C   0  0  0  0  0  0  0  0  0  0  0  0
    1.3807    0.0103   -2.4442 C   0  0  0  0  0  0  0  0  0  0  0  0
   -0.0632   -0.0024   -2.4148 C   0  0  0  0  0  0  0  0  0  0  0  0
   -0.8905   -0.0157   -3.5521 C   0  0  0  0  0  0  0  0  0  0  0  0
   -2.2660   -0.0329   -3.4244 C   0  0  0  0  0  0  0  0  0  0  0  0
   -2.8711   -0.0374   -2.1502 C   0  0  0  0  0  0  0  0  0  0  0  0
   -2.0844   -0.0261   -1.0098 C   0  0  0  0  0  0  0  0  0  0  0  0
   -0.6882   -0.0093   -1.1577 C   0  0  0  0  0  0  0  0  0  0  0  0
   -4.3557   -0.0354   -2.0413 C   0  0  0  0  0  0  0  0  0  0  0  0
    2.0679    0.0164   -3.7766 C   0  0  0  0  0  0  0  0  0  0  0  0
    3.4763    0.1083   -3.6604 O   0  0  0  0  0  0  0  0  0  0  0  0
    4.0226    1.3446   -3.4481 C   0  0  0  0  0  0  0  0  0  0  0  0
    5.4197    1.3370   -3.5553 C   0  0  0  0  0  0  0  0  0  0  0  0
    6.1103    2.5238   -3.3506 C   0  0  0  0  0  0  0  0  0  0  0  0
    5.4218    3.7034   -3.0457 C   0  0  0  0  0  0  0  0  0  0  0  0
    4.0300    3.6844   -2.9416 C   0  0  0  0  0  0  0  0  0  0  0  0
    3.3163    2.5040   -3.1390 C   0  0  0  0  0  0  0  0  0  0  0  0
    6.1635    4.9771   -2.8200 C   0  0  0  0  0  0  0  0  0  0  0  0
    3.1673   -0.0002   -1.2501 H   0  0  0  0  0  0  0  0  0  0  0  0
   -0.4435   -0.0145   -4.5466 H   0  0  0  0  0  0  0  0  0  0  0  0
   -2.8966   -0.0437   -4.3103 H   0  0  0  0  0  0  0  0  0  0  0  0
   -2.5156   -0.0299   -0.0105 H   0  0  0  0  0  0  0  0  0  0  0  0
   -4.8381   -0.5886   -2.8591 H   0  0  0  0  0  0  0  0  0  0  0  0
   -4.7447    0.9955   -2.0753 H   0  0  0  0  0  0  0  0  0  0  0  0
   -4.7115   -0.4805   -1.1005 H   0  0  0  0  0  0  0  0  0  0  0  0
    1.6801    0.8058   -4.4497 H   0  0  0  0  0  0  0  0  0  0  0  0
    1.9593   -0.9726   -4.2812 H   0  0  0  0  0  0  0  0  0  0  0  0
    5.9399    0.4128   -3.7932 H   0  0  0  0  0  0  0  0  0  0  0  0
    7.1966    2.5335   -3.4273 H   0  0  0  0  0  0  0  0  0  0  0  0
    3.4924    4.5997   -2.6973 H   0  0  0  0  0  0  0  0  0  0  0  0
    2.2365    2.5014   -3.0320 H   0  0  0  0  0  0  0  0  0  0  0  0
    5.8203    5.7699   -3.5003 H   0  0  0  0  0  0  0  0  0  0  0  0
    7.2459    4.8722   -2.9717 H   0  0  0  0  0  0  0  0  0  0  0  0
    6.0177    5.3438   -1.7926 H   0  0  0  0  0  0  0  0  0  0  0  0
  2  1  1  0  0  0  0
  2  3  2  0  0  0  0
  4 22  1  0  0  0  0
  4  2  1  0  0  0  0
  5  6  1  0  0  0  0
  5  4  2  0  0  0  0
  6 11  2  0  0  0  0
  7  8  2  0  0  0  0
  7  6  1  0  0  0  0
  8  9  1  0  0  0  0
  9 12  1  0  0  0  0
  9 10  2  0  0  0  0
 10 25  1  0  0  0  0
 11 10  1  0  0  0  0
 11  1  1  0  0  0  0
 12 28  1  0  0  0  0
 13 14  1  0  0  0  0
 13  5  1  0  0  0  0
 14 15  1  0  0  0  0
 15 20  1  0  0  0  0
 16 15  2  0  0  0  0
 16 17  1  0  0  0  0
 17 18  2  0  0  0  0
 18 19  1  0  0  0  0
 18 21  1  0  0  0  0
 19 33  1  0  0  0  0
 20 34  1  0  0  0  0
 20 19  2  0  0  0  0
 21 37  1  0  0  0  0
 23  7  1  0  0  0  0
 24  8  1  0  0  0  0
 26 12  1  0  0  0  0
 27 12  1  0  0  0  0
 29 13  1  0  0  0  0
 30 13  1  0  0  0  0
 31 16  1  0  0  0  0
 32 17  1  0  0  0  0
 35 21  1  0  0  0  0
 36 21  1  0  0  0  0
M  END
$$$$
