37
rmsd20.gzmat
O          0.00000        0.00000        0.00000
C          1.40900        0.00000        0.00000
O          1.87570        0.00000        1.10370
C          2.07340       -0.00140       -1.28620
C          1.38080        0.01030       -2.44400
C         -0.06290        0.00940       -2.41460
C         -0.88980        0.00760       -3.55250
C         -2.26500       -0.00600       -3.42500
C         -2.87100       -0.01800       -2.15070
C         -2.08460       -0.01490       -1.01060
C         -0.68800       -0.00160       -1.15780
C         -4.35620       -0.02480       -2.04950
C          2.06760        0.00090       -3.77640
O          3.47710        0.07620       -3.66030
C          4.03940        1.31160       -3.48880
C          3.35390        2.47910       -3.16720
C          4.08340        3.65790       -3.01170
C          5.46800        3.66560       -3.17690
C          6.13720        2.47560       -3.49310
C          5.43220        1.29170       -3.65120
C          6.24380        4.93050       -3.03000
H          3.16710       -0.01350       -1.25190
H         -0.44270        0.01390       -4.54670
H         -2.89570       -0.00820       -4.31070
H         -2.51540       -0.02450       -0.01130
H         -4.80730       -0.78740       -2.70200
H         -4.77600        0.94750       -2.35310
H         -4.71410       -0.22350       -1.02910
H          1.68850        0.79000       -4.45450
H          1.94780       -0.99060       -4.27280
H          2.27810        2.48670       -3.02270
H          3.56020        4.57850       -2.75600
H          7.21960        2.48200       -3.61710
H          5.93490        0.35960       -3.89610
H          7.14750        4.78670       -2.42040
H          5.66230        5.73060       -2.55280
H          6.57010        5.30900       -4.01050
