rmsd85.gzmat
 OpenBabel08211713363D

 20 20  0  0  0  0  0  0  0  0999 V2000
    0.0000    0.0000    0.0000 S   0  0  0  0  0  0  0  0  0  0  0  0
    1.4272    0.0000    0.0000 O   0  0  0  0  0  0  0  0  0  0  0  0
   -0.8029    0.0000   -1.1739 O   0  0  0  0  0  0  0  0  0  0  0  0
   -0.4532    1.3175    0.9425 O   0  0  0  0  0  0  0  0  0  0  0  0
   -1.7693    1.6448    1.0558 C   0  0  0  0  0  0  0  0  0  0  0  0
   -2.7296    0.7869    1.5670 C   0  0  0  0  0  0  0  0  0  0  0  0
   -4.0340    1.2760    1.7145 C   0  0  0  0  0  0  0  0  0  0  0  0
   -5.0571    0.3957    2.2464 N   0  0  0  0  0  0  0  0  0  0  0  0
   -6.1909    0.8344    2.3610 O   0  0  0  0  0  0  0  0  0  0  0  0
   -4.7383   -0.7400    2.5596 O   0  0  0  0  0  0  0  0  0  0  0  0
   -4.3762    2.5879    1.3660 C   0  0  0  0  0  0  0  0  0  0  0  0
   -3.4032    3.4476    0.8740 C   0  0  0  0  0  0  0  0  0  0  0  0
   -2.0934    2.9810    0.7256 C   0  0  0  0  0  0  0  0  0  0  0  0
   -1.1813    3.8593    0.2727 O   0  0  0  0  0  0  0  0  0  0  0  0
   -0.4925   -1.1867    1.0113 O   0  0  0  0  0  0  0  0  0  0  0  0
   -2.4910   -0.2484    1.8514 H   0  0  0  0  0  0  0  0  0  0  0  0
   -5.4102    2.9337    1.4853 H   0  0  0  0  0  0  0  0  0  0  0  0
   -3.6400    4.4763    0.6027 H   0  0  0  0  0  0  0  0  0  0  0  0
   -0.2672    3.4540    0.2438 H   0  0  0  0  0  0  0  0  0  0  0  0
    0.1922   -1.6227    1.5511 H   0  0  0  0  0  0  0  0  0  0  0  0
  1  4  1  0  0  0  0
  1 15  1  0  0  0  0
  2  1  2  0  0  0  0
  3  1  2  0  0  0  0
  4  5  1  0  0  0  0
  5  6  2  0  0  0  0
  6  7  1  0  0  0  0
  6 16  1  0  0  0  0
  7  8  1  0  0  0  0
  8  9  2  0  0  0  0
  8 10  2  0  0  0  0
 11 17  1  0  0  0  0
 11  7  2  0  0  0  0
 12 11  1  0  0  0  0
 13 12  2  0  0  0  0
 13  5  1  0  0  0  0
 14 13  1  0  0  0  0
 15 20  1  0  0  0  0
 18 12  1  0  0  0  0
 19 14  1  0  0  0  0
M  END
$$$$
