rmsd88.gzmat
 OpenBabel08211713363D

 20 20  0  0  0  0  0  0  0  0999 V2000
    0.0000    0.0000    0.0000 S   0  0  0  0  0  0  0  0  0  0  0  0
    1.4274    0.0000    0.0000 O   0  0  0  0  0  0  0  0  0  0  0  0
   -0.8029    0.0000   -1.1739 O   0  0  0  0  0  0  0  0  0  0  0  0
   -0.4516    1.3162    0.9458 O   0  0  0  0  0  0  0  0  0  0  0  0
   -1.7671    1.6245    1.1049 C   0  0  0  0  0  0  0  0  0  0  0  0
   -2.7098    0.7420    1.6054 C   0  0  0  0  0  0  0  0  0  0  0  0
   -4.0129    1.2167    1.8048 C   0  0  0  0  0  0  0  0  0  0  0  0
   -5.0163    0.3054    2.3222 N   0  0  0  0  0  0  0  0  0  0  0  0
   -6.1555    0.7222    2.4618 O   0  0  0  0  0  0  0  0  0  0  0  0
   -4.6756   -0.8335    2.5984 O   0  0  0  0  0  0  0  0  0  0  0  0
   -4.3707    2.5399    1.5220 C   0  0  0  0  0  0  0  0  0  0  0  0
   -3.4147    3.4240    1.0394 C   0  0  0  0  0  0  0  0  0  0  0  0
   -2.1078    2.9712    0.8358 C   0  0  0  0  0  0  0  0  0  0  0  0
   -1.2121    3.8715    0.3929 O   0  0  0  0  0  0  0  0  0  0  0  0
   -0.4932   -1.1872    1.0111 O   0  0  0  0  0  0  0  0  0  0  0  0
   -2.4611   -0.3027    1.8449 H   0  0  0  0  0  0  0  0  0  0  0  0
   -5.4022    2.8759    1.6852 H   0  0  0  0  0  0  0  0  0  0  0  0
   -3.6638    4.4616    0.8177 H   0  0  0  0  0  0  0  0  0  0  0  0
   -0.2989    3.4695    0.3198 H   0  0  0  0  0  0  0  0  0  0  0  0
    0.1889   -1.6239    1.5532 H   0  0  0  0  0  0  0  0  0  0  0  0
  1  4  1  0  0  0  0
  1 15  1  0  0  0  0
  2  1  2  0  0  0  0
  3  1  2  0  0  0  0
  4  5  1  0  0  0  0
  5  6  2  0  0  0  0
  6  7  1  0  0  0  0
  6 16  1  0  0  0  0
  7  8  1  0  0  0  0
  8  9  2  0  0  0  0
  8 10  2  0  0  0  0
 11 17  1  0  0  0  0
 11  7  2  0  0  0  0
 12 11  1  0  0  0  0
 13 12  2  0  0  0  0
 13  5  1  0  0  0  0
 14 13  1  0  0  0  0
 15 20  1  0  0  0  0
 18 12  1  0  0  0  0
 19 14  1  0  0  0  0
M  END
$$$$
