rmsd65.gzmat
 OpenBabel08211713363D

 20 20  0  0  0  0  0  0  0  0999 V2000
    0.0000    0.0000    0.0000 S   0  0  0  0  0  0  0  0  0  0  0  0
    1.4274    0.0000    0.0000 O   0  0  0  0  0  0  0  0  0  0  0  0
   -0.8034    0.0000   -1.1737 O   0  0  0  0  0  0  0  0  0  0  0  0
   -0.4539    1.3162    0.9451 O   0  0  0  0  0  0  0  0  0  0  0  0
   -1.7665    1.6625    1.0401 C   0  0  0  0  0  0  0  0  0  0  0  0
   -2.7562    0.8031    1.4871 C   0  0  0  0  0  0  0  0  0  0  0  0
   -4.0574    1.3079    1.6129 C   0  0  0  0  0  0  0  0  0  0  0  0
   -5.1101    0.4163    2.0634 N   0  0  0  0  0  0  0  0  0  0  0  0
   -6.2587    0.8303    2.0567 O   0  0  0  0  0  0  0  0  0  0  0  0
   -4.7994   -0.7061    2.4291 O   0  0  0  0  0  0  0  0  0  0  0  0
   -4.3662    2.6396    1.3138 C   0  0  0  0  0  0  0  0  0  0  0  0
   -3.3626    3.5020    0.8908 C   0  0  0  0  0  0  0  0  0  0  0  0
   -2.0581    3.0177    0.7577 C   0  0  0  0  0  0  0  0  0  0  0  0
   -1.1174    3.8957    0.3662 O   0  0  0  0  0  0  0  0  0  0  0  0
   -0.4925   -1.1896    1.0081 O   0  0  0  0  0  0  0  0  0  0  0  0
   -2.5446   -0.2466    1.7385 H   0  0  0  0  0  0  0  0  0  0  0  0
   -5.3973    3.0000    1.4154 H   0  0  0  0  0  0  0  0  0  0  0  0
   -3.5736    4.5463    0.6598 H   0  0  0  0  0  0  0  0  0  0  0  0
   -0.2112    3.4726    0.3446 H   0  0  0  0  0  0  0  0  0  0  0  0
    0.1925   -1.6416    1.5329 H   0  0  0  0  0  0  0  0  0  0  0  0
  1  4  1  0  0  0  0
  1 15  1  0  0  0  0
  2  1  2  0  0  0  0
  3  1  2  0  0  0  0
  4  5  1  0  0  0  0
  5  6  2  0  0  0  0
  6  7  1  0  0  0  0
  6 16  1  0  0  0  0
  7  8  1  0  0  0  0
  8 10  2  0  0  0  0
  9  8  2  0  0  0  0
 11 17  1  0  0  0  0
 11  7  2  0  0  0  0
 12 11  1  0  0  0  0
 13 12  2  0  0  0  0
 13  5  1  0  0  0  0
 14 13  1  0  0  0  0
 15 20  1  0  0  0  0
 18 12  1  0  0  0  0
 19 14  1  0  0  0  0
M  END
$$$$
