20
rmsd133.gzmat
S          0.00000        0.00000        0.00000
O          1.42730        0.00000        0.00000
O         -0.80350        0.00000       -1.17400
O         -0.45270        1.31740        0.94310
C         -1.76980        1.62600        1.08970
C         -2.70590        0.75410        1.62090
C         -4.01190        1.22650        1.80500
N         -5.00930        0.32780        2.35500
O         -6.16040        0.72680        2.43780
O         -4.65210       -0.78260        2.71420
C         -4.37880        2.53700        1.47660
C         -3.42920        3.41130        0.96470
C         -2.11910        2.96000        0.77580
O         -1.23040        3.85080        0.30130
O         -0.49240       -1.18890        1.00940
H         -2.44820       -0.27960        1.89490
H         -5.41300        2.87050        1.62790
H         -3.68510        4.43970        0.70920
H         -0.31270        3.45620        0.24620
H          0.19200       -1.62890        1.54650
