20
rmsd44.gzmat
S          0.00000        0.00000        0.00000
O          1.42740        0.00000        0.00000
O         -0.80580        0.00000       -1.17150
O         -0.44820        1.31520        0.94860
C         -1.74100        1.73790        0.96970
C         -2.81660        0.92020        1.27260
C         -4.08840        1.50620        1.33580
N         -5.23190        0.66350        1.63300
O         -6.34180        1.17290        1.61890
O         -5.03250       -0.51410        1.88410
C         -4.28450        2.87460        1.11910
C         -3.19660        3.69190        0.83920
C         -1.92070        3.12630        0.76670
O         -0.89510        3.95800        0.50990
O         -0.49420       -1.18730        1.00870
H         -2.69390       -0.15620        1.45900
H         -5.29460        3.29910        1.17230
H         -3.32010        4.76250        0.67490
H         -0.02100        3.47080        0.52300
H          0.18760       -1.62150        1.55320
