
     RDKit          3D

 82 86  0  0  0  0  0  0  0  0999 V2000
    0.3854    0.1409    0.7585 N   0  0  0  0  0  0  0  0  0  0  0  0
    2.0580    0.3070    0.9126 S   0  0  0  0  0  0  0  0  0  0  0  0
    2.3307    0.4591    2.3399 O   0  0  0  0  0  0  0  0  0  0  0  0
    2.6530   -0.7777    0.1329 O   0  0  0  0  0  0  0  0  0  0  0  0
    2.4972    1.7207    0.1471 N   0  0  0  0  0  0  0  0  0  0  0  0
    2.5077    1.6875   -1.3144 C   0  0  1  0  0  0  0  0  0  0  0  0
    2.6191    0.6320   -1.5766 H   0  0  0  0  0  0  0  0  0  0  0  0
    1.1952    2.1656   -1.9491 C   0  0  1  0  0  0  0  0  0  0  0  0
    1.1061    1.6700   -2.9356 H   0  0  0  0  0  0  0  0  0  0  0  0
   -0.0428    1.8177   -1.1059 C   0  0  2  0  0  0  0  0  0  0  0  0
   -0.0266    2.4828   -0.2358 H   0  0  0  0  0  0  0  0  0  0  0  0
   -0.2135    0.3746   -0.5573 C   0  0  1  0  0  0  0  0  0  0  0  0
   -1.2933    0.2961   -0.3761 H   0  0  0  0  0  0  0  0  0  0  0  0
    0.1125   -0.7282   -1.5773 C   0  0  0  0  0  0  0  0  0  0  0  0
   -0.6726   -0.5266   -2.7485 O   0  0  0  0  0  0  0  0  0  0  0  0
   -1.9959   -0.8748   -2.7577 C   0  0  0  0  0  0  0  0  0  0  0  0
   -2.7231   -0.4598   -3.8841 C   0  0  0  0  0  0  0  0  0  0  0  0
   -4.0826   -0.7478   -3.9824 C   0  0  0  0  0  0  0  0  0  0  0  0
   -4.7344   -1.4517   -2.9633 C   0  0  0  0  0  0  0  0  0  0  0  0
   -4.0051   -1.8677   -1.8492 C   0  0  0  0  0  0  0  0  0  0  0  0
   -2.6391   -1.5853   -1.7354 C   0  0  0  0  0  0  0  0  0  0  0  0
   -1.2027    2.2204   -1.8398 O   0  0  0  0  0  0  0  0  0  0  0  0
    1.2245    3.5714   -2.1124 O   0  0  0  0  0  0  0  0  0  0  0  0
    3.7480    2.3883   -1.8849 C   0  0  0  0  0  0  0  0  0  0  0  0
    3.8868    2.1049   -3.2630 O   0  0  0  0  0  0  0  0  0  0  0  0
    4.2847    0.8643   -3.6633 C   0  0  0  0  0  0  0  0  0  0  0  0
    4.6766   -0.1694   -2.7978 C   0  0  0  0  0  0  0  0  0  0  0  0
    5.0672   -1.4027   -3.3330 C   0  0  0  0  0  0  0  0  0  0  0  0
    5.0768   -1.6198   -4.7105 C   0  0  0  0  0  0  0  0  0  0  0  0
    4.6863   -0.5826   -5.5670 C   0  0  0  0  0  0  0  0  0  0  0  0
    4.2911    0.6485   -5.0513 C   0  0  0  0  0  0  0  0  0  0  0  0
    2.4233    3.0016    0.8622 C   0  0  0  0  0  0  0  0  0  0  0  0
    3.7894    3.5906    1.1364 C   0  0  0  0  0  0  0  0  0  0  0  0
    4.0846    4.9049    0.7579 C   0  0  0  0  0  0  0  0  0  0  0  0
    5.3469    5.4512    1.0110 C   0  0  0  0  0  0  0  0  0  0  0  0
    6.3259    4.6821    1.6433 C   0  0  0  0  0  0  0  0  0  0  0  0
    6.0362    3.3670    2.0251 C   0  0  0  0  0  0  0  0  0  0  0  0
    4.7757    2.8240    1.7743 C   0  0  0  0  0  0  0  0  0  0  0  0
   -0.4637    0.3069    1.9536 C   0  0  0  0  0  0  0  0  0  0  0  0
   -0.8639    1.7353    2.2524 C   0  0  0  0  0  0  0  0  0  0  0  0
   -1.8617    2.3577    1.4912 C   0  0  0  0  0  0  0  0  0  0  0  0
   -2.1566    3.7153    1.6499 C   0  0  0  0  0  0  0  0  0  0  0  0
   -1.4952    4.4459    2.6473 C   0  0  0  0  0  0  0  0  0  0  0  0
   -0.5234    3.8297    3.4352 C   0  0  0  0  0  0  0  0  0  0  0  0
   -0.1964    2.4845    3.2305 C   0  0  0  0  0  0  0  0  0  0  0  0
   -3.1730    4.4247    0.7930 C   0  0  0  0  0  0  0  0  0  0  0  0
   -3.7896    5.3946    1.2108 O   0  0  0  0  0  0  0  0  0  0  0  0
   -3.3303    3.9106   -0.4620 N   0  0  0  0  0  0  0  0  0  0  0  0
   -4.2486    4.4986   -1.4115 C   0  0  0  0  0  0  0  0  0  0  0  0
    1.1538   -0.7059   -1.9129 H   0  0  0  0  0  0  0  0  0  0  0  0
   -0.0577   -1.7184   -1.1298 H   0  0  0  0  0  0  0  0  0  0  0  0
   -2.1962    0.0760   -4.6769 H   0  0  0  0  0  0  0  0  0  0  0  0
   -4.6376   -0.4213   -4.8651 H   0  0  0  0  0  0  0  0  0  0  0  0
   -5.8003   -1.6745   -3.0400 H   0  0  0  0  0  0  0  0  0  0  0  0
   -4.4995   -2.4218   -1.0477 H   0  0  0  0  0  0  0  0  0  0  0  0
   -2.0941   -1.9271   -0.8560 H   0  0  0  0  0  0  0  0  0  0  0  0
   -1.3201    1.5943   -2.5712 H   0  0  0  0  0  0  0  0  0  0  0  0
    0.3380    3.8337   -2.4015 H   0  0  0  0  0  0  0  0  0  0  0  0
    4.6349    2.0767   -1.3110 H   0  0  0  0  0  0  0  0  0  0  0  0
    3.6525    3.4770   -1.8137 H   0  0  0  0  0  0  0  0  0  0  0  0
    4.6704   -0.0449   -1.7157 H   0  0  0  0  0  0  0  0  0  0  0  0
    5.3629   -2.2017   -2.6488 H   0  0  0  0  0  0  0  0  0  0  0  0
    5.3824   -2.5865   -5.1160 H   0  0  0  0  0  0  0  0  0  0  0  0
    4.6888   -0.7353   -6.6492 H   0  0  0  0  0  0  0  0  0  0  0  0
    3.9834    1.4698   -5.7013 H   0  0  0  0  0  0  0  0  0  0  0  0
    1.8900    2.8366    1.8071 H   0  0  0  0  0  0  0  0  0  0  0  0
    1.8233    3.7038    0.2672 H   0  0  0  0  0  0  0  0  0  0  0  0
    3.3221    5.5028    0.2509 H   0  0  0  0  0  0  0  0  0  0  0  0
    5.5668    6.4771    0.7060 H   0  0  0  0  0  0  0  0  0  0  0  0
    7.3148    5.1043    1.8375 H   0  0  0  0  0  0  0  0  0  0  0  0
    6.7982    2.7619    2.5226 H   0  0  0  0  0  0  0  0  0  0  0  0
    4.5442    1.7992    2.0721 H   0  0  0  0  0  0  0  0  0  0  0  0
    0.0750   -0.1291    2.8019 H   0  0  0  0  0  0  0  0  0  0  0  0
   -1.3595   -0.3097    1.7776 H   0  0  0  0  0  0  0  0  0  0  0  0
   -2.4189    1.7771    0.7537 H   0  0  0  0  0  0  0  0  0  0  0  0
   -1.7629    5.4950    2.7849 H   0  0  0  0  0  0  0  0  0  0  0  0
   -0.0057    4.4013    4.2091 H   0  0  0  0  0  0  0  0  0  0  0  0
    0.5877    2.0096    3.8243 H   0  0  0  0  0  0  0  0  0  0  0  0
   -2.6522    3.2398   -0.8195 H   0  0  0  0  0  0  0  0  0  0  0  0
   -4.9149    5.1806   -0.8679 H   0  0  0  0  0  0  0  0  0  0  0  0
   -4.8499    3.7201   -1.9086 H   0  0  0  0  0  0  0  0  0  0  0  0
   -3.7215    5.0787   -2.1901 H   0  0  0  0  0  0  0  0  0  0  0  0
  2  1  1  0
  1 12  1  0
  1 39  1  0
  2  3  2  0
  2  4  2  0
  2  5  1  0
  5  6  1  0
  5 32  1  0
  6  7  1  1
  6  8  1  0
  6 24  1  0
  8  9  1  6
  8 10  1  0
  8 23  1  0
 10 11  1  1
 10 12  1  0
 10 22  1  0
 12 13  1  1
 12 14  1  0
 14 15  1  0
 14 50  1  0
 14 51  1  0
 15 16  1  0
 16 17  2  0
 16 21  1  0
 17 18  1  0
 17 52  1  0
 18 19  2  0
 18 53  1  0
 19 20  1  0
 19 54  1  0
 20 21  2  0
 20 55  1  0
 21 56  1  0
 22 57  1  0
 23 58  1  0
 24 25  1  0
 24 59  1  0
 24 60  1  0
 25 26  1  0
 26 27  2  0
 26 31  1  0
 27 28  1  0
 27 61  1  0
 28 29  2  0
 28 62  1  0
 29 30  1  0
 29 63  1  0
 30 31  2  0
 30 64  1  0
 31 65  1  0
 32 33  1  0
 32 66  1  0
 32 67  1  0
 33 34  2  0
 33 38  1  0
 34 35  1  0
 34 68  1  0
 35 36  2  0
 35 69  1  0
 36 37  1  0
 36 70  1  0
 37 38  2  0
 37 71  1  0
 38 72  1  0
 39 40  1  0
 39 73  1  0
 39 74  1  0
 40 41  2  0
 40 45  1  0
 41 42  1  0
 41 75  1  0
 42 43  2  0
 42 46  1  0
 43 44  1  0
 43 76  1  0
 44 45  2  0
 44 77  1  0
 45 78  1  0
 46 47  2  0
 46 48  1  0
 48 49  1  0
 48 79  1  0
 49 80  1  0
 49 81  1  0
 49 82  1  0
M  END

