rmsd103.gzmat
 OpenBabel08211713423D

 82 86  0  0  1  0  0  0  0  0999 V2000
    0.0000    0.0000    0.0000 N   0  0  0  0  0  0  0  0  0  0  0  0
    1.7455    0.0000    0.0000 S   0  0  0  0  0  0  0  0  0  0  0  0
    2.1930    0.0000    1.3716 O   0  0  0  0  0  0  0  0  0  0  0  0
    2.1096   -1.0318   -0.9368 O   0  0  0  0  0  0  0  0  0  0  0  0
    2.1896    1.4984   -0.7302 N   0  0  0  0  0  0  0  0  0  0  0  0
    2.0730    1.6076   -2.1814 C   0  0  1  0  0  0  0  0  0  0  0  0
    2.2283    0.5740   -2.6274 H   0  0  0  0  0  0  0  0  0  0  0  0
    0.6784    2.1236   -2.6361 C   0  0  1  0  0  0  0  0  0  0  0  0
    0.4374    1.7364   -3.6537 H   0  0  0  0  0  0  0  0  0  0  0  0
   -0.4867    1.8469   -1.6619 C   0  0  2  0  0  0  0  0  0  0  0  0
   -0.4168    2.5250   -0.7752 H   0  0  0  0  0  0  0  0  0  0  0  0
   -0.7244    0.3818   -1.2064 C   0  0  1  0  0  0  0  0  0  0  0  0
   -1.8366    0.3232   -0.9857 H   0  0  0  0  0  0  0  0  0  0  0  0
   -0.4466   -0.6510   -2.3254 C   0  0  0  0  0  0  0  0  0  0  0  0
   -1.3346   -0.3881   -3.4012 O   0  0  0  0  0  0  0  0  0  0  0  0
   -2.6205   -0.8327   -3.3098 C   0  0  0  0  0  0  0  0  0  0  0  0
   -3.1328   -1.6183   -2.2799 C   0  0  0  0  0  0  0  0  0  0  0  0
   -4.4773   -1.9855   -2.3334 C   0  0  0  0  0  0  0  0  0  0  0  0
   -5.2832   -1.5721   -3.3902 C   0  0  0  0  0  0  0  0  0  0  0  0
   -4.7474   -0.7886   -4.4158 C   0  0  0  0  0  0  0  0  0  0  0  0
   -3.4118   -0.4109   -4.3877 C   0  0  0  0  0  0  0  0  0  0  0  0
   -1.6575    2.3126   -2.3003 O   0  0  0  0  0  0  0  0  0  0  0  0
    0.8109    3.5296   -2.7379 O   0  0  0  0  0  0  0  0  0  0  0  0
    3.1801    2.5064   -2.7801 C   0  0  0  0  0  0  0  0  0  0  0  0
    4.3506    1.7369   -3.0115 O   0  0  0  0  0  0  0  0  0  0  0  0
    4.3560    0.8650   -4.0549 C   0  0  0  0  0  0  0  0  0  0  0  0
    5.4989    0.0487   -4.0732 C   0  0  0  0  0  0  0  0  0  0  0  0
    5.6382   -0.8771   -5.0963 C   0  0  0  0  0  0  0  0  0  0  0  0
    4.6570   -0.9937   -6.0858 C   0  0  0  0  0  0  0  0  0  0  0  0
    3.5331   -0.1745   -6.0521 C   0  0  0  0  0  0  0  0  0  0  0  0
    3.3693    0.7663   -5.0351 C   0  0  0  0  0  0  0  0  0  0  0  0
    2.1799    2.7472    0.0373 C   0  0  0  0  0  0  0  0  0  0  0  0
    3.5233    3.0897    0.6346 C   0  0  0  0  0  0  0  0  0  0  0  0
    4.6991    2.4315    0.2830 C   0  0  0  0  0  0  0  0  0  0  0  0
    5.9069    2.8014    0.8733 C   0  0  0  0  0  0  0  0  0  0  0  0
    5.9453    3.8343    1.8063 C   0  0  0  0  0  0  0  0  0  0  0  0
    4.7698    4.5020    2.1502 C   0  0  0  0  0  0  0  0  0  0  0  0
    3.5621    4.1306    1.5680 C   0  0  0  0  0  0  0  0  0  0  0  0
   -0.7460    0.1185    1.2629 C   0  0  0  0  0  0  0  0  0  0  0  0
   -0.4755    1.4108    1.9873 C   0  0  0  0  0  0  0  0  0  0  0  0
    0.5367    1.4283    2.9463 C   0  0  0  0  0  0  0  0  0  0  0  0
    0.9403    2.6397    3.5021 C   0  0  0  0  0  0  0  0  0  0  0  0
    0.2499    3.8152    3.2105 C   0  0  0  0  0  0  0  0  0  0  0  0
   -0.8198    3.7780    2.3167 C   0  0  0  0  0  0  0  0  0  0  0  0
   -1.1705    2.5829    1.6898 C   0  0  0  0  0  0  0  0  0  0  0  0
    2.1564    2.7001    4.3650 C   0  0  0  0  0  0  0  0  0  0  0  0
    2.2499    3.4357    5.3301 O   0  0  0  0  0  0  0  0  0  0  0  0
    3.1768    1.8678    3.9735 N   0  0  0  0  0  0  0  0  0  0  0  0
    4.4720    1.9206    4.6464 C   0  0  0  0  0  0  0  0  0  0  0  0
    0.5406   -0.5524   -2.8182 H   0  0  0  0  0  0  0  0  0  0  0  0
   -0.5251   -1.6907   -1.9590 H   0  0  0  0  0  0  0  0  0  0  0  0
   -2.5118   -1.9551   -1.4554 H   0  0  0  0  0  0  0  0  0  0  0  0
   -4.8961   -2.6031   -1.5386 H   0  0  0  0  0  0  0  0  0  0  0  0
   -6.3308   -1.8611   -3.4223 H   0  0  0  0  0  0  0  0  0  0  0  0
   -5.3827   -0.4719   -5.2437 H   0  0  0  0  0  0  0  0  0  0  0  0
   -2.9749    0.1884   -5.1818 H   0  0  0  0  0  0  0  0  0  0  0  0
   -1.9255    1.6999   -3.0231 H   0  0  0  0  0  0  0  0  0  0  0  0
   -0.0731    3.9419   -2.8710 H   0  0  0  0  0  0  0  0  0  0  0  0
    3.5602    3.2624   -2.0626 H   0  0  0  0  0  0  0  0  0  0  0  0
    2.8600    3.0274   -3.6983 H   0  0  0  0  0  0  0  0  0  0  0  0
    6.2450    0.1499   -3.2896 H   0  0  0  0  0  0  0  0  0  0  0  0
    6.5164   -1.5213   -5.1289 H   0  0  0  0  0  0  0  0  0  0  0  0
    4.7753   -1.7250   -6.8803 H   0  0  0  0  0  0  0  0  0  0  0  0
    2.7704   -0.2667   -6.8248 H   0  0  0  0  0  0  0  0  0  0  0  0
    2.4948    1.4063   -5.0285 H   0  0  0  0  0  0  0  0  0  0  0  0
    1.4175    2.7050    0.8556 H   0  0  0  0  0  0  0  0  0  0  0  0
    1.8547    3.5988   -0.6206 H   0  0  0  0  0  0  0  0  0  0  0  0
    4.6815    1.6284   -0.4577 H   0  0  0  0  0  0  0  0  0  0  0  0
    6.8217    2.2801    0.5998 H   0  0  0  0  0  0  0  0  0  0  0  0
    6.8882    4.1231    2.2639 H   0  0  0  0  0  0  0  0  0  0  0  0
    4.7940    5.3088    2.8809 H   0  0  0  0  0  0  0  0  0  0  0  0
    2.6479    4.6499    1.8490 H   0  0  0  0  0  0  0  0  0  0  0  0
   -0.4638   -0.7565    1.9055 H   0  0  0  0  0  0  0  0  0  0  0  0
   -1.8376   -0.0050    1.0703 H   0  0  0  0  0  0  0  0  0  0  0  0
    1.0351    0.4960    3.2371 H   0  0  0  0  0  0  0  0  0  0  0  0
    0.5497    4.7509    3.6877 H   0  0  0  0  0  0  0  0  0  0  0  0
   -1.3769    4.6879    2.1005 H   0  0  0  0  0  0  0  0  0  0  0  0
   -1.9884    2.5680    0.9702 H   0  0  0  0  0  0  0  0  0  0  0  0
    3.1204    1.3256    3.1148 H   0  0  0  0  0  0  0  0  0  0  0  0
    4.3889    2.4302    5.6263 H   0  0  0  0  0  0  0  0  0  0  0  0
    5.2082    2.4761    4.0355 H   0  0  0  0  0  0  0  0  0  0  0  0
    4.8487    0.8984    4.8181 H   0  0  0  0  0  0  0  0  0  0  0  0
  1 39  1  0  0  0  0
  2  1  1  0  0  0  0
  2  3  2  0  0  0  0
  4  2  2  0  0  0  0
  5  2  1  0  0  0  0
  5 32  1  0  0  0  0
  6  8  1  0  0  0  0
  6  5  1  0  0  0  0
  6  7  1  6  0  0  0
  8 10  1  0  0  0  0
  8  9  1  6  0  0  0
 10 12  1  0  0  0  0
 10 11  1  1  0  0  0
 12 13  1  1  0  0  0
 12  1  1  0  0  0  0
 14 51  1  0  0  0  0
 14 12  1  0  0  0  0
 15 16  1  0  0  0  0
 15 14  1  0  0  0  0
 16 17  2  0  0  0  0
 17 52  1  0  0  0  0
 18 17  1  0  0  0  0
 18 53  1  0  0  0  0
 19 18  2  0  0  0  0
 20 21  2  0  0  0  0
 20 19  1  0  0  0  0
 21 16  1  0  0  0  0
 22 10  1  0  0  0  0
 23  8  1  0  0  0  0
 24  6  1  0  0  0  0
 24 59  1  0  0  0  0
 25 24  1  0  0  0  0
 26 25  1  0  0  0  0
 27 26  1  0  0  0  0
 27 61  1  0  0  0  0
 28 27  2  0  0  0  0
 29 30  2  0  0  0  0
 29 28  1  0  0  0  0
 30 31  1  0  0  0  0
 31 65  1  0  0  0  0
 31 26  2  0  0  0  0
 32 33  1  0  0  0  0
 32 66  1  0  0  0  0
 33 38  1  0  0  0  0
 34 33  2  0  0  0  0
 34 35  1  0  0  0  0
 35 36  2  0  0  0  0
 36 37  1  0  0  0  0
 36 70  1  0  0  0  0
 37 71  1  0  0  0  0
 38 72  1  0  0  0  0
 38 37  2  0  0  0  0
 39 73  1  0  0  0  0
 39 40  1  0  0  0  0
 40 41  1  0  0  0  0
 41 75  1  0  0  0  0
 41 42  2  0  0  0  0
 42 46  1  0  0  0  0
 43 42  1  0  0  0  0
 43 76  1  0  0  0  0
 44 43  2  0  0  0  0
 45 40  2  0  0  0  0
 45 44  1  0  0  0  0
 46 47  2  0  0  0  0
 48 46  1  0  0  0  0
 48 49  1  0  0  0  0
 49 82  1  0  0  0  0
 49 80  1  0  0  0  0
 50 14  1  0  0  0  0
 54 19  1  0  0  0  0
 55 20  1  0  0  0  0
 56 21  1  0  0  0  0
 57 22  1  0  0  0  0
 58 23  1  0  0  0  0
 60 24  1  0  0  0  0
 62 28  1  0  0  0  0
 63 29  1  0  0  0  0
 64 30  1  0  0  0  0
 67 32  1  0  0  0  0
 68 34  1  0  0  0  0
 69 35  1  0  0  0  0
 74 39  1  0  0  0  0
 77 44  1  0  0  0  0
 78 45  1  0  0  0  0
 79 48  1  0  0  0  0
 81 49  1  0  0  0  0
M  END
$$$$
