rmsd140.gzmat
 OpenBabel08211713423D

 82 86  0  0  1  0  0  0  0  0999 V2000
    0.0000    0.0000    0.0000 N   0  0  0  0  0  0  0  0  0  0  0  0
    1.7407    0.0000    0.0000 S   0  0  0  0  0  0  0  0  0  0  0  0
    2.1377    0.0000    1.3871 O   0  0  0  0  0  0  0  0  0  0  0  0
    2.1627   -1.0425   -0.9072 O   0  0  0  0  0  0  0  0  0  0  0  0
    2.1933    1.4985   -0.7116 N   0  0  0  0  0  0  0  0  0  0  0  0
    2.0053    1.6488   -2.1532 C   0  0  1  0  0  0  0  0  0  0  0  0
    2.2664    0.6428   -2.6200 H   0  0  0  0  0  0  0  0  0  0  0  0
    0.5708    2.0206   -2.6255 C   0  0  1  0  0  0  0  0  0  0  0  0
    0.3923    1.5734   -3.6358 H   0  0  0  0  0  0  0  0  0  0  0  0
   -0.5951    1.6747   -1.6806 C   0  0  2  0  0  0  0  0  0  0  0  0
   -0.5911    2.3397   -0.7773 H   0  0  0  0  0  0  0  0  0  0  0  0
   -0.7408    0.1925   -1.2464 C   0  0  1  0  0  0  0  0  0  0  0  0
   -1.8457    0.0524   -1.0295 H   0  0  0  0  0  0  0  0  0  0  0  0
   -0.3656   -0.8136   -2.3601 C   0  0  0  0  0  0  0  0  0  0  0  0
   -1.0793   -0.4882   -3.5397 O   0  0  0  0  0  0  0  0  0  0  0  0
   -2.3918   -0.8524   -3.6402 C   0  0  0  0  0  0  0  0  0  0  0  0
   -3.0896   -1.6350   -2.7260 C   0  0  0  0  0  0  0  0  0  0  0  0
   -4.4410   -1.8849   -2.9611 C   0  0  0  0  0  0  0  0  0  0  0  0
   -5.0682   -1.3720   -4.0941 C   0  0  0  0  0  0  0  0  0  0  0  0
   -4.3447   -0.6046   -5.0090 C   0  0  0  0  0  0  0  0  0  0  0  0
   -2.9990   -0.3346   -4.7932 C   0  0  0  0  0  0  0  0  0  0  0  0
   -1.7767    2.0871   -2.3316 O   0  0  0  0  0  0  0  0  0  0  0  0
    0.5766    3.4247   -2.8159 O   0  0  0  0  0  0  0  0  0  0  0  0
    2.9882    2.6605   -2.7906 C   0  0  0  0  0  0  0  0  0  0  0  0
    4.2391    2.0241   -3.0076 O   0  0  0  0  0  0  0  0  0  0  0  0
    5.0403    1.9216   -1.8972 C   0  0  0  0  0  0  0  0  0  0  0  0
    5.6114    3.0565   -1.3209 C   0  0  0  0  0  0  0  0  0  0  0  0
    6.4956    2.8848   -0.2584 C   0  0  0  0  0  0  0  0  0  0  0  0
    6.7932    1.6060    0.2102 C   0  0  0  0  0  0  0  0  0  0  0  0
    6.2151    0.4841   -0.3863 C   0  0  0  0  0  0  0  0  0  0  0  0
    5.3308    0.6308   -1.4497 C   0  0  0  0  0  0  0  0  0  0  0  0
    2.3970    2.6592    0.1606 C   0  0  0  0  0  0  0  0  0  0  0  0
    1.1372    3.4056    0.5161 C   0  0  0  0  0  0  0  0  0  0  0  0
    0.3562    2.9820    1.5926 C   0  0  0  0  0  0  0  0  0  0  0  0
   -0.8256    3.6514    1.9008 C   0  0  0  0  0  0  0  0  0  0  0  0
   -1.2207    4.7549    1.1463 C   0  0  0  0  0  0  0  0  0  0  0  0
   -0.4272    5.1948    0.0884 C   0  0  0  0  0  0  0  0  0  0  0  0
    0.7512    4.5217   -0.2271 C   0  0  0  0  0  0  0  0  0  0  0  0
   -0.6953   -0.7832    1.0288 C   0  0  0  0  0  0  0  0  0  0  0  0
   -1.1211   -2.1656    0.5938 C   0  0  0  0  0  0  0  0  0  0  0  0
   -2.4740   -2.5040    0.6462 C   0  0  0  0  0  0  0  0  0  0  0  0
   -2.8877   -3.7727    0.2425 C   0  0  0  0  0  0  0  0  0  0  0  0
   -1.9665   -4.7025   -0.2354 C   0  0  0  0  0  0  0  0  0  0  0  0
   -0.6150   -4.3669   -0.2728 C   0  0  0  0  0  0  0  0  0  0  0  0
   -0.1917   -3.1086    0.1498 C   0  0  0  0  0  0  0  0  0  0  0  0
   -4.3437   -4.0830    0.2910 C   0  0  0  0  0  0  0  0  0  0  0  0
   -5.1938   -3.3293   -0.1434 O   0  0  0  0  0  0  0  0  0  0  0  0
   -4.6842   -5.2829    0.8743 N   0  0  0  0  0  0  0  0  0  0  0  0
   -6.0873   -5.6812    0.9780 C   0  0  0  0  0  0  0  0  0  0  0  0
    0.6840   -0.7419   -2.7119 H   0  0  0  0  0  0  0  0  0  0  0  0
   -0.5370   -1.8589   -2.0492 H   0  0  0  0  0  0  0  0  0  0  0  0
   -2.6112   -2.0521   -1.8451 H   0  0  0  0  0  0  0  0  0  0  0  0
   -5.0106   -2.4819   -2.2409 H   0  0  0  0  0  0  0  0  0  0  0  0
   -6.1228   -1.5704   -4.2649 H   0  0  0  0  0  0  0  0  0  0  0  0
   -4.8388   -0.2117   -5.8969 H   0  0  0  0  0  0  0  0  0  0  0  0
   -2.4182    0.2538   -5.4966 H   0  0  0  0  0  0  0  0  0  0  0  0
   -1.9741    1.5107   -3.1042 H   0  0  0  0  0  0  0  0  0  0  0  0
   -0.3463    3.7686   -2.8156 H   0  0  0  0  0  0  0  0  0  0  0  0
    3.0926    3.5930   -2.2171 H   0  0  0  0  0  0  0  0  0  0  0  0
    2.6844    2.9152   -3.8277 H   0  0  0  0  0  0  0  0  0  0  0  0
    5.3836    4.0447   -1.7063 H   0  0  0  0  0  0  0  0  0  0  0  0
    6.9556    3.7545    0.2074 H   0  0  0  0  0  0  0  0  0  0  0  0
    7.4770    1.4811    1.0457 H   0  0  0  0  0  0  0  0  0  0  0  0
    6.4477   -0.5114   -0.0111 H   0  0  0  0  0  0  0  0  0  0  0  0
    4.8553   -0.2295   -1.9194 H   0  0  0  0  0  0  0  0  0  0  0  0
    3.1359    3.3476   -0.3214 H   0  0  0  0  0  0  0  0  0  0  0  0
    2.9157    2.3147    1.0961 H   0  0  0  0  0  0  0  0  0  0  0  0
    0.6659    2.1221    2.1899 H   0  0  0  0  0  0  0  0  0  0  0  0
   -1.4414    3.3120    2.7304 H   0  0  0  0  0  0  0  0  0  0  0  0
   -2.1489    5.2721    1.3812 H   0  0  0  0  0  0  0  0  0  0  0  0
   -0.7327    6.0606   -0.4948 H   0  0  0  0  0  0  0  0  0  0  0  0
    1.3596    4.8563   -1.0680 H   0  0  0  0  0  0  0  0  0  0  0  0
   -1.5861   -0.1846    1.3540 H   0  0  0  0  0  0  0  0  0  0  0  0
   -0.0542   -0.8596    1.9463 H   0  0  0  0  0  0  0  0  0  0  0  0
   -3.2194   -1.7803    0.9855 H   0  0  0  0  0  0  0  0  0  0  0  0
   -2.2966   -5.6780   -0.5897 H   0  0  0  0  0  0  0  0  0  0  0  0
    0.1142   -5.0896   -0.6371 H   0  0  0  0  0  0  0  0  0  0  0  0
    0.8754   -2.8684    0.1158 H   0  0  0  0  0  0  0  0  0  0  0  0
   -3.9996   -5.9028    1.2658 H   0  0  0  0  0  0  0  0  0  0  0  0
   -6.7570   -4.8615    0.6451 H   0  0  0  0  0  0  0  0  0  0  0  0
   -6.3475   -5.9258    2.0213 H   0  0  0  0  0  0  0  0  0  0  0  0
   -6.2891   -6.5587    0.3392 H   0  0  0  0  0  0  0  0  0  0  0  0
  1  2  1  0  0  0  0
  1 39  1  0  0  0  0
  2  3  2  0  0  0  0
  4  2  2  0  0  0  0
  5  2  1  0  0  0  0
  5 32  1  0  0  0  0
  6  8  1  0  0  0  0
  6  5  1  0  0  0  0
  6  7  1  6  0  0  0
  8 10  1  0  0  0  0
  8  9  1  6  0  0  0
 10 12  1  0  0  0  0
 10 11  1  1  0  0  0
 12 13  1  1  0  0  0
 12  1  1  0  0  0  0
 14 51  1  0  0  0  0
 14 12  1  0  0  0  0
 15 14  1  0  0  0  0
 16 15  1  0  0  0  0
 16 17  2  0  0  0  0
 17 52  1  0  0  0  0
 18 17  1  0  0  0  0
 18 53  1  0  0  0  0
 19 18  2  0  0  0  0
 20 21  2  0  0  0  0
 20 19  1  0  0  0  0
 21 16  1  0  0  0  0
 22 10  1  0  0  0  0
 23 58  1  0  0  0  0
 23  8  1  0  0  0  0
 24 59  1  0  0  0  0
 24  6  1  0  0  0  0
 25 24  1  0  0  0  0
 25 26  1  0  0  0  0
 26 31  2  0  0  0  0
 26 27  1  0  0  0  0
 27 28  2  0  0  0  0
 28 62  1  0  0  0  0
 28 29  1  0  0  0  0
 29 63  1  0  0  0  0
 30 64  1  0  0  0  0
 30 29  2  0  0  0  0
 31 30  1  0  0  0  0
 32 33  1  0  0  0  0
 32 67  1  0  0  0  0
 33 34  2  0  0  0  0
 34 35  1  0  0  0  0
 34 68  1  0  0  0  0
 35 69  1  0  0  0  0
 36 70  1  0  0  0  0
 36 35  2  0  0  0  0
 37 36  1  0  0  0  0
 38 37  2  0  0  0  0
 38 33  1  0  0  0  0
 39 73  1  0  0  0  0
 39 74  1  0  0  0  0
 40 41  1  0  0  0  0
 40 39  1  0  0  0  0
 41 75  1  0  0  0  0
 42 46  1  0  0  0  0
 42 41  2  0  0  0  0
 43 42  1  0  0  0  0
 44 43  2  0  0  0  0
 44 45  1  0  0  0  0
 45 40  2  0  0  0  0
 46 48  1  0  0  0  0
 47 46  2  0  0  0  0
 48 49  1  0  0  0  0
 48 79  1  0  0  0  0
 49 81  1  0  0  0  0
 50 14  1  0  0  0  0
 54 19  1  0  0  0  0
 55 20  1  0  0  0  0
 56 21  1  0  0  0  0
 57 22  1  0  0  0  0
 60 24  1  0  0  0  0
 61 27  1  0  0  0  0
 65 31  1  0  0  0  0
 66 32  1  0  0  0  0
 71 37  1  0  0  0  0
 72 38  1  0  0  0  0
 76 43  1  0  0  0  0
 77 44  1  0  0  0  0
 78 45  1  0  0  0  0
 80 49  1  0  0  0  0
 82 49  1  0  0  0  0
M  END
$$$$
