rmsd1.gzmat
 OpenBabel08211713423D

 82 86  0  0  1  0  0  0  0  0999 V2000
    0.0000    0.0000    0.0000 N   0  0  0  0  0  0  0  0  0  0  0  0
    1.7484    0.0000    0.0000 S   0  0  0  0  0  0  0  0  0  0  0  0
    2.1607    0.0000    1.3776 O   0  0  0  0  0  0  0  0  0  0  0  0
    2.1671   -1.0475   -0.9115 O   0  0  0  0  0  0  0  0  0  0  0  0
    2.1650    1.5115   -0.7271 N   0  0  0  0  0  0  0  0  0  0  0  0
    1.9229    1.6001   -2.1696 C   0  0  1  0  0  0  0  0  0  0  0  0
    2.0900    0.5705   -2.6244 H   0  0  0  0  0  0  0  0  0  0  0  0
    0.5096    2.0742   -2.5860 C   0  0  1  0  0  0  0  0  0  0  0  0
    0.3542    1.8400   -3.6696 H   0  0  0  0  0  0  0  0  0  0  0  0
   -0.6956    1.5614   -1.7643 C   0  0  2  0  0  0  0  0  0  0  0  0
   -0.8808    2.2431   -0.8949 H   0  0  0  0  0  0  0  0  0  0  0  0
   -0.7053    0.0877   -1.2837 C   0  0  1  0  0  0  0  0  0  0  0  0
   -1.8013   -0.1568   -1.0954 H   0  0  0  0  0  0  0  0  0  0  0  0
   -0.2328   -0.9069   -2.3694 C   0  0  0  0  0  0  0  0  0  0  0  0
   -1.4125   -1.1395   -3.1396 O   0  0  0  0  0  0  0  0  0  0  0  0
   -1.5789   -2.3994   -3.6378 C   0  0  0  0  0  0  0  0  0  0  0  0
   -0.5364   -3.2912   -3.8845 C   0  0  0  0  0  0  0  0  0  0  0  0
   -0.8503   -4.5511   -4.3908 C   0  0  0  0  0  0  0  0  0  0  0  0
   -2.1733   -4.8978   -4.6557 C   0  0  0  0  0  0  0  0  0  0  0  0
   -3.1987   -3.9781   -4.4266 C   0  0  0  0  0  0  0  0  0  0  0  0
   -2.9137   -2.7179   -3.9145 C   0  0  0  0  0  0  0  0  0  0  0  0
   -1.8331    1.7805   -2.5703 O   0  0  0  0  0  0  0  0  0  0  0  0
    0.5083    3.4861   -2.4472 O   0  0  0  0  0  0  0  0  0  0  0  0
    3.0060    2.5018   -2.8182 C   0  0  0  0  0  0  0  0  0  0  0  0
    3.2416    2.0176   -4.1311 O   0  0  0  0  0  0  0  0  0  0  0  0
    2.3883    2.4052   -5.1223 C   0  0  0  0  0  0  0  0  0  0  0  0
    1.7296    3.6336   -5.1699 C   0  0  0  0  0  0  0  0  0  0  0  0
    0.9352    3.9207   -6.2772 C   0  0  0  0  0  0  0  0  0  0  0  0
    0.8016    2.9956   -7.3106 C   0  0  0  0  0  0  0  0  0  0  0  0
    1.4717    1.7726   -7.2474 C   0  0  0  0  0  0  0  0  0  0  0  0
    2.2699    1.4633   -6.1532 C   0  0  0  0  0  0  0  0  0  0  0  0
    1.9252    2.7357    0.0632 C   0  0  0  0  0  0  0  0  0  0  0  0
    3.0762    3.6973   -0.1068 C   0  0  0  0  0  0  0  0  0  0  0  0
    2.8438    4.9677   -0.6365 C   0  0  0  0  0  0  0  0  0  0  0  0
    3.9005    5.8630   -0.7844 C   0  0  0  0  0  0  0  0  0  0  0  0
    5.1892    5.4895   -0.4067 C   0  0  0  0  0  0  0  0  0  0  0  0
    5.4203    4.2207    0.1227 C   0  0  0  0  0  0  0  0  0  0  0  0
    4.3652    3.3247    0.2763 C   0  0  0  0  0  0  0  0  0  0  0  0
   -0.6663   -0.8671    0.9964 C   0  0  0  0  0  0  0  0  0  0  0  0
   -0.8797   -2.2749    0.5008 C   0  0  0  0  0  0  0  0  0  0  0  0
    0.2267   -3.0826    0.2415 C   0  0  0  0  0  0  0  0  0  0  0  0
    0.0602   -4.2762   -0.4563 C   0  0  0  0  0  0  0  0  0  0  0  0
   -1.2165   -4.7631   -0.7314 C   0  0  0  0  0  0  0  0  0  0  0  0
   -2.3287   -4.0068   -0.3649 C   0  0  0  0  0  0  0  0  0  0  0  0
   -2.1607   -2.7496    0.2147 C   0  0  0  0  0  0  0  0  0  0  0  0
    1.2445   -5.0065   -0.9933 C   0  0  0  0  0  0  0  0  0  0  0  0
    1.3135   -6.2194   -1.0463 O   0  0  0  0  0  0  0  0  0  0  0  0
    2.2258   -4.1964   -1.5183 N   0  0  0  0  0  0  0  0  0  0  0  0
    3.4355   -4.7877   -2.0861 C   0  0  0  0  0  0  0  0  0  0  0  0
    0.5246   -0.5129   -3.0652 H   0  0  0  0  0  0  0  0  0  0  0  0
    0.1472   -1.8450   -1.9195 H   0  0  0  0  0  0  0  0  0  0  0  0
    0.4991   -3.0277   -3.6878 H   0  0  0  0  0  0  0  0  0  0  0  0
   -0.0507   -5.2702   -4.5737 H   0  0  0  0  0  0  0  0  0  0  0  0
   -2.4087   -5.8861   -5.0422 H   0  0  0  0  0  0  0  0  0  0  0  0
   -4.2305   -4.2510   -4.6445 H   0  0  0  0  0  0  0  0  0  0  0  0
   -3.6970   -1.9918   -3.7224 H   0  0  0  0  0  0  0  0  0  0  0  0
   -1.9469    1.0583   -3.2296 H   0  0  0  0  0  0  0  0  0  0  0  0
   -0.3392    3.8470   -2.7925 H   0  0  0  0  0  0  0  0  0  0  0  0
    3.9945    2.3489   -2.3372 H   0  0  0  0  0  0  0  0  0  0  0  0
    2.7576    3.5738   -2.7983 H   0  0  0  0  0  0  0  0  0  0  0  0
    1.8283    4.3530   -4.3607 H   0  0  0  0  0  0  0  0  0  0  0  0
    0.4158    4.8764   -6.3337 H   0  0  0  0  0  0  0  0  0  0  0  0
    0.1763    3.2266   -8.1686 H   0  0  0  0  0  0  0  0  0  0  0  0
    1.3651    1.0543   -8.0594 H   0  0  0  0  0  0  0  0  0  0  0  0
    2.7995    0.5171   -6.0844 H   0  0  0  0  0  0  0  0  0  0  0  0
    1.8361    2.4835    1.1512 H   0  0  0  0  0  0  0  0  0  0  0  0
    0.9625    3.2263   -0.2248 H   0  0  0  0  0  0  0  0  0  0  0  0
    1.8387    5.2533   -0.9472 H   0  0  0  0  0  0  0  0  0  0  0  0
    3.7197    6.8528   -1.1992 H   0  0  0  0  0  0  0  0  0  0  0  0
    6.0154    6.1876   -0.5255 H   0  0  0  0  0  0  0  0  0  0  0  0
    6.4264    3.9290    0.4171 H   0  0  0  0  0  0  0  0  0  0  0  0
    4.5428    2.3308    0.6878 H   0  0  0  0  0  0  0  0  0  0  0  0
   -1.6380   -0.3839    1.2632 H   0  0  0  0  0  0  0  0  0  0  0  0
   -0.0753   -0.8649    1.9479 H   0  0  0  0  0  0  0  0  0  0  0  0
    1.2262   -2.7794    0.5605 H   0  0  0  0  0  0  0  0  0  0  0  0
   -1.3341   -5.7248   -1.2370 H   0  0  0  0  0  0  0  0  0  0  0  0
   -3.3301   -4.3875   -0.5602 H   0  0  0  0  0  0  0  0  0  0  0  0
   -3.0345   -2.1388    0.4342 H   0  0  0  0  0  0  0  0  0  0  0  0
    2.2146   -3.1856   -1.4095 H   0  0  0  0  0  0  0  0  0  0  0  0
    3.7041   -4.2665   -3.0207 H   0  0  0  0  0  0  0  0  0  0  0  0
    3.2815   -5.8599   -2.3176 H   0  0  0  0  0  0  0  0  0  0  0  0
    4.2814   -4.7139   -1.3804 H   0  0  0  0  0  0  0  0  0  0  0  0
  1  2  1  0  0  0  0
  1 39  1  0  0  0  0
  2  3  2  0  0  0  0
  4  2  2  0  0  0  0
  5  2  1  0  0  0  0
  5 32  1  0  0  0  0
  6  8  1  0  0  0  0
  6  5  1  0  0  0  0
  6  7  1  6  0  0  0
  8 23  1  0  0  0  0
  8 10  1  0  0  0  0
  8  9  1  6  0  0  0
 10 12  1  0  0  0  0
 10 11  1  1  0  0  0
 12 13  1  1  0  0  0
 12  1  1  0  0  0  0
 14 51  1  0  0  0  0
 14 12  1  0  0  0  0
 15 14  1  0  0  0  0
 16 15  1  0  0  0  0
 17 52  1  0  0  0  0
 17 16  1  0  0  0  0
 18 17  2  0  0  0  0
 19 20  2  0  0  0  0
 19 18  1  0  0  0  0
 20 21  1  0  0  0  0
 21 56  1  0  0  0  0
 21 16  2  0  0  0  0
 22 10  1  0  0  0  0
 24 60  1  0  0  0  0
 24 59  1  0  0  0  0
 24  6  1  0  0  0  0
 25 24  1  0  0  0  0
 26 25  1  0  0  0  0
 27 26  1  0  0  0  0
 27 61  1  0  0  0  0
 28 27  2  0  0  0  0
 29 30  2  0  0  0  0
 29 28  1  0  0  0  0
 30 31  1  0  0  0  0
 31 65  1  0  0  0  0
 31 26  2  0  0  0  0
 32 66  1  0  0  0  0
 33 32  1  0  0  0  0
 33 38  2  0  0  0  0
 34 33  1  0  0  0  0
 35 34  2  0  0  0  0
 35 36  1  0  0  0  0
 36 37  2  0  0  0  0
 37 38  1  0  0  0  0
 37 71  1  0  0  0  0
 38 72  1  0  0  0  0
 39 73  1  0  0  0  0
 39 74  1  0  0  0  0
 40 39  1  0  0  0  0
 41 40  2  0  0  0  0
 41 75  1  0  0  0  0
 42 41  1  0  0  0  0
 43 42  2  0  0  0  0
 43 44  1  0  0  0  0
 44 45  2  0  0  0  0
 45 78  1  0  0  0  0
 45 40  1  0  0  0  0
 46 42  1  0  0  0  0
 47 46  2  0  0  0  0
 48 79  1  0  0  0  0
 48 46  1  0  0  0  0
 49 48  1  0  0  0  0
 49 82  1  0  0  0  0
 50 14  1  0  0  0  0
 53 18  1  0  0  0  0
 54 19  1  0  0  0  0
 55 20  1  0  0  0  0
 57 22  1  0  0  0  0
 58 23  1  0  0  0  0
 62 28  1  0  0  0  0
 63 29  1  0  0  0  0
 64 30  1  0  0  0  0
 67 32  1  0  0  0  0
 68 34  1  0  0  0  0
 69 35  1  0  0  0  0
 70 36  1  0  0  0  0
 76 43  1  0  0  0  0
 77 44  1  0  0  0  0
 80 49  1  0  0  0  0
 81 49  1  0  0  0  0
M  END
$$$$
