rmsd3.gzmat
 OpenBabel08211713423D

 82 86  0  0  1  0  0  0  0  0999 V2000
    0.0000    0.0000    0.0000 N   0  0  0  0  0  0  0  0  0  0  0  0
    1.7492    0.0000    0.0000 S   0  0  0  0  0  0  0  0  0  0  0  0
    2.1506    0.0000    1.3816 O   0  0  0  0  0  0  0  0  0  0  0  0
    2.1694   -1.0614   -0.8986 O   0  0  0  0  0  0  0  0  0  0  0  0
    2.1738    1.4818   -0.7475 N   0  0  0  0  0  0  0  0  0  0  0  0
    2.0163    1.5535   -2.2001 C   0  0  1  0  0  0  0  0  0  0  0  0
    2.1731    0.5111   -2.6302 H   0  0  0  0  0  0  0  0  0  0  0  0
    0.6122    2.0407   -2.6419 C   0  0  1  0  0  0  0  0  0  0  0  0
    0.3964    1.6744   -3.6745 H   0  0  0  0  0  0  0  0  0  0  0  0
   -0.5568    1.6968   -1.6913 C   0  0  2  0  0  0  0  0  0  0  0  0
   -0.5445    2.3615   -0.7917 H   0  0  0  0  0  0  0  0  0  0  0  0
   -0.7209    0.2129   -1.2590 C   0  0  1  0  0  0  0  0  0  0  0  0
   -1.8266    0.0872   -1.0473 H   0  0  0  0  0  0  0  0  0  0  0  0
   -0.3638   -0.7738   -2.3959 C   0  0  0  0  0  0  0  0  0  0  0  0
   -1.0077   -0.3303   -3.5806 O   0  0  0  0  0  0  0  0  0  0  0  0
   -2.2246   -0.8517   -3.9100 C   0  0  0  0  0  0  0  0  0  0  0  0
   -2.5972   -0.5560   -5.2292 C   0  0  0  0  0  0  0  0  0  0  0  0
   -3.8372   -0.9902   -5.6783 C   0  0  0  0  0  0  0  0  0  0  0  0
   -4.6875   -1.7045   -4.8301 C   0  0  0  0  0  0  0  0  0  0  0  0
   -4.2954   -1.9889   -3.5252 C   0  0  0  0  0  0  0  0  0  0  0  0
   -3.0550   -1.5631   -3.0503 C   0  0  0  0  0  0  0  0  0  0  0  0
   -1.7367    2.1068   -2.3466 O   0  0  0  0  0  0  0  0  0  0  0  0
    0.6993    3.4534   -2.7018 O   0  0  0  0  0  0  0  0  0  0  0  0
    3.1076    2.4257   -2.8647 C   0  0  0  0  0  0  0  0  0  0  0  0
    4.1235    1.5645   -3.3607 O   0  0  0  0  0  0  0  0  0  0  0  0
    5.0738    1.2051   -2.4309 C   0  0  0  0  0  0  0  0  0  0  0  0
    6.1013    2.0956   -2.1206 C   0  0  0  0  0  0  0  0  0  0  0  0
    7.1132    1.6666   -1.2659 C   0  0  0  0  0  0  0  0  0  0  0  0
    7.0838    0.3779   -0.7329 C   0  0  0  0  0  0  0  0  0  0  0  0
    6.0458   -0.4955   -1.0577 C   0  0  0  0  0  0  0  0  0  0  0  0
    5.0292   -0.0911   -1.9183 C   0  0  0  0  0  0  0  0  0  0  0  0
    2.1272    2.7371    0.0193 C   0  0  0  0  0  0  0  0  0  0  0  0
    3.5121    3.1726    0.4394 C   0  0  0  0  0  0  0  0  0  0  0  0
    4.0362    4.3695   -0.0536 C   0  0  0  0  0  0  0  0  0  0  0  0
    5.3088    4.7853    0.3292 C   0  0  0  0  0  0  0  0  0  0  0  0
    6.0604    4.0106    1.2112 C   0  0  0  0  0  0  0  0  0  0  0  0
    5.5303    2.8256    1.7169 C   0  0  0  0  0  0  0  0  0  0  0  0
    4.2564    2.4085    1.3372 C   0  0  0  0  0  0  0  0  0  0  0  0
   -0.6517   -0.9412    0.9343 C   0  0  0  0  0  0  0  0  0  0  0  0
   -0.8002   -2.3310    0.3696 C   0  0  0  0  0  0  0  0  0  0  0  0
    0.3389   -3.0800    0.0750 C   0  0  0  0  0  0  0  0  0  0  0  0
    0.2256   -4.2361   -0.6921 C   0  0  0  0  0  0  0  0  0  0  0  0
   -1.0297   -4.7483   -1.0170 C   0  0  0  0  0  0  0  0  0  0  0  0
   -2.1733   -4.0679   -0.6019 C   0  0  0  0  0  0  0  0  0  0  0  0
   -2.0595   -2.8484    0.0654 C   0  0  0  0  0  0  0  0  0  0  0  0
    1.4465   -4.9174   -1.2176 C   0  0  0  0  0  0  0  0  0  0  0  0
    1.5303   -6.1279   -1.3157 O   0  0  0  0  0  0  0  0  0  0  0  0
    2.4424   -4.0769   -1.6493 N   0  0  0  0  0  0  0  0  0  0  0  0
    3.6812   -4.6232   -2.1989 C   0  0  0  0  0  0  0  0  0  0  0  0
    0.7035   -0.7609   -2.7011 H   0  0  0  0  0  0  0  0  0  0  0  0
   -0.6169   -1.8180   -2.1421 H   0  0  0  0  0  0  0  0  0  0  0  0
   -1.9171   -0.0091   -5.8766 H   0  0  0  0  0  0  0  0  0  0  0  0
   -4.1479   -0.7759   -6.7010 H   0  0  0  0  0  0  0  0  0  0  0  0
   -5.6556   -2.0407   -5.1928 H   0  0  0  0  0  0  0  0  0  0  0  0
   -4.9589   -2.5485   -2.8660 H   0  0  0  0  0  0  0  0  0  0  0  0
   -2.7563   -1.7910   -2.0328 H   0  0  0  0  0  0  0  0  0  0  0  0
   -1.9286    1.5254   -3.1163 H   0  0  0  0  0  0  0  0  0  0  0  0
   -0.1932    3.8361   -2.8610 H   0  0  0  0  0  0  0  0  0  0  0  0
    3.5199    3.1930   -2.1934 H   0  0  0  0  0  0  0  0  0  0  0  0
    2.7427    2.9102   -3.7920 H   0  0  0  0  0  0  0  0  0  0  0  0
    6.1041    3.0970   -2.5391 H   0  0  0  0  0  0  0  0  0  0  0  0
    7.9260    2.3432   -1.0085 H   0  0  0  0  0  0  0  0  0  0  0  0
    7.8723    0.0543   -0.0582 H   0  0  0  0  0  0  0  0  0  0  0  0
    6.0236   -1.4969   -0.6308 H   0  0  0  0  0  0  0  0  0  0  0  0
    4.2096   -0.7610   -2.1780 H   0  0  0  0  0  0  0  0  0  0  0  0
    1.4899    2.6287    0.9314 H   0  0  0  0  0  0  0  0  0  0  0  0
    1.6375    3.5366   -0.5954 H   0  0  0  0  0  0  0  0  0  0  0  0
    3.4537    4.9841   -0.7378 H   0  0  0  0  0  0  0  0  0  0  0  0
    5.7170    5.7151   -0.0617 H   0  0  0  0  0  0  0  0  0  0  0  0
    7.0569    4.3317    1.5057 H   0  0  0  0  0  0  0  0  0  0  0  0
    6.1106    2.2196    2.4091 H   0  0  0  0  0  0  0  0  0  0  0  0
    3.8488    1.4806    1.7469 H   0  0  0  0  0  0  0  0  0  0  0  0
   -1.6452   -0.5113    1.2111 H   0  0  0  0  0  0  0  0  0  0  0  0
   -0.0750   -0.9625    1.8958 H   0  0  0  0  0  0  0  0  0  0  0  0
    1.3240   -2.7648    0.4280 H   0  0  0  0  0  0  0  0  0  0  0  0
   -1.1047   -5.6782   -1.5865 H   0  0  0  0  0  0  0  0  0  0  0  0
   -3.1573   -4.4816   -0.8170 H   0  0  0  0  0  0  0  0  0  0  0  0
   -2.9579   -2.3023    0.3477 H   0  0  0  0  0  0  0  0  0  0  0  0
    2.4032   -3.0684   -1.5157 H   0  0  0  0  0  0  0  0  0  0  0  0
    3.5743   -5.7004   -2.4316 H   0  0  0  0  0  0  0  0  0  0  0  0
    4.5118   -4.5144   -1.4802 H   0  0  0  0  0  0  0  0  0  0  0  0
    3.9434   -4.0960   -3.1328 H   0  0  0  0  0  0  0  0  0  0  0  0
  1 39  1  0  0  0  0
  2  1  1  0  0  0  0
  2  3  2  0  0  0  0
  4  2  2  0  0  0  0
  5  2  1  0  0  0  0
  5 32  1  0  0  0  0
  6  8  1  0  0  0  0
  6  5  1  0  0  0  0
  6  7  1  6  0  0  0
  8 10  1  0  0  0  0
  8  9  1  6  0  0  0
 10 12  1  0  0  0  0
 10 11  1  1  0  0  0
 12 13  1  1  0  0  0
 12  1  1  0  0  0  0
 14 51  1  0  0  0  0
 14 12  1  0  0  0  0
 15 14  1  0  0  0  0
 16 15  1  0  0  0  0
 16 21  2  0  0  0  0
 17 16  1  0  0  0  0
 18 17  2  0  0  0  0
 18 19  1  0  0  0  0
 19 20  2  0  0  0  0
 20 21  1  0  0  0  0
 20 55  1  0  0  0  0
 21 56  1  0  0  0  0
 22 10  1  0  0  0  0
 23  8  1  0  0  0  0
 24  6  1  0  0  0  0
 24 59  1  0  0  0  0
 25 24  1  0  0  0  0
 25 26  1  0  0  0  0
 26 27  2  0  0  0  0
 26 31  1  0  0  0  0
 27 28  1  0  0  0  0
 28 62  1  0  0  0  0
 28 29  2  0  0  0  0
 29 63  1  0  0  0  0
 30 29  1  0  0  0  0
 30 64  1  0  0  0  0
 31 30  2  0  0  0  0
 32 33  1  0  0  0  0
 32 66  1  0  0  0  0
 33 38  2  0  0  0  0
 34 35  2  0  0  0  0
 34 33  1  0  0  0  0
 35 36  1  0  0  0  0
 36 70  1  0  0  0  0
 36 37  2  0  0  0  0
 37 71  1  0  0  0  0
 38 37  1  0  0  0  0
 38 72  1  0  0  0  0
 39 73  1  0  0  0  0
 39 74  1  0  0  0  0
 40 39  1  0  0  0  0
 41 40  2  0  0  0  0
 41 75  1  0  0  0  0
 42 41  1  0  0  0  0
 43 42  2  0  0  0  0
 43 44  1  0  0  0  0
 44 45  2  0  0  0  0
 45 78  1  0  0  0  0
 45 40  1  0  0  0  0
 46 42  1  0  0  0  0
 47 46  2  0  0  0  0
 48 79  1  0  0  0  0
 48 46  1  0  0  0  0
 49 48  1  0  0  0  0
 49 81  1  0  0  0  0
 50 14  1  0  0  0  0
 52 17  1  0  0  0  0
 53 18  1  0  0  0  0
 54 19  1  0  0  0  0
 57 22  1  0  0  0  0
 58 23  1  0  0  0  0
 60 24  1  0  0  0  0
 61 27  1  0  0  0  0
 65 31  1  0  0  0  0
 67 32  1  0  0  0  0
 68 34  1  0  0  0  0
 69 35  1  0  0  0  0
 76 43  1  0  0  0  0
 77 44  1  0  0  0  0
 80 49  1  0  0  0  0
 82 49  1  0  0  0  0
M  END
$$$$
