82

N          0.08210       -0.07780        0.07250
S          1.75180        0.14070        0.13040
O          2.12200        0.27380        1.53600
O          2.39360       -0.88400       -0.70420
N          1.96200        1.61130       -0.60800
C          1.88230        1.61190       -2.06770
H          2.09200        0.57580       -2.35100
C          0.50000        1.92950       -2.64190
H          0.45730        1.43960       -3.63520
C         -0.67830        1.40500       -1.80110
H         -0.78540        2.06920       -0.93460
C         -0.60050       -0.02390       -1.22370
H         -1.64840       -0.24030       -0.96870
C         -0.17700       -1.09510       -2.24680
O         -1.19160       -1.19650       -3.24600
C         -2.27860       -1.99760       -3.04340
C         -3.34510       -1.82200       -3.93940
C         -4.48320       -2.61780       -3.83960
C         -4.57800       -3.60200       -2.84810
C         -3.51840       -3.77120       -1.95580
C         -2.37220       -2.97110       -2.03870
O         -1.85990        1.57420       -2.57370
O          0.34150        3.32730       -2.80330
C          3.00600        2.43560       -2.71190
O          3.12110        2.14090       -4.08720
C          3.64080        0.94400       -4.48700
C          4.16610       -0.03010       -3.62390
C          4.67350       -1.22000       -4.16000
C          4.66880       -1.45000       -5.53530
C          4.14380       -0.47160       -6.38910
C          3.63120        0.71500       -5.87260
C          2.19290        2.80790        0.22120
C          1.02560        3.31890        1.04000
C          0.98590        3.09720        2.42300
C         -0.06060        3.61000        3.19480
C         -1.08620        4.33990        2.58840
C         -1.05770        4.55880        1.20750
C         -0.00330        4.06000        0.43970
C         -0.51070       -0.97060        1.07780
C         -1.87390       -0.45420        1.47720
C         -3.03540       -1.19210        1.23290
C         -4.29710       -0.68160        1.57650
C         -4.38370        0.57230        2.19260
C         -3.22860        1.32320        2.41840
C         -1.98070        0.81810        2.05560
C         -5.58010       -1.43040        1.33480
O         -6.57130       -1.23490        2.02270
N         -5.55400       -2.32340        0.29960
C         -6.71950       -3.08990       -0.07800
H          0.73820       -0.83270       -2.78760
H          0.02080       -2.05700       -1.75620
H         -3.25460       -1.06060       -4.71660
H         -5.30380       -2.47080       -4.54560
H         -5.46720       -4.23010       -2.77560
H         -3.57390       -4.53700       -1.17820
H         -1.56040       -3.13070       -1.33140
H         -1.86180        0.86930       -3.24040
H         -0.57680        3.46050       -3.08530
H          3.95090        2.24050       -2.17650
H          2.78050        3.50780       -2.66660
H          4.17180        0.09970       -2.54260
H          5.07110       -1.97480       -3.47740
H          5.06630       -2.38250       -5.94130
H          4.13240       -0.63580       -7.46950
H          3.21730        1.49030       -6.52010
H          2.51120        3.59190       -0.47770
H          3.04080        2.60620        0.89050
H          1.77600        2.50720        2.89100
H         -0.07800        3.43160        4.27260
H         -1.90470        4.74150        3.19080
H         -1.85560        5.13060        0.72760
H          0.03080        4.23920       -0.63690
H          0.16680       -0.97770        1.94190
H         -0.58520       -2.00920        0.70600
H         -2.95150       -2.18260        0.78040
H         -5.37050        0.94060        2.47770
H         -3.29580        2.31210        2.87650
H         -1.08000        1.41120        2.21410
H         -4.77080       -2.30440       -0.34290
H         -7.46920       -2.97270        0.71480
H         -6.47340       -4.15880       -0.18860
H         -7.15550       -2.73440       -1.02760
