82

N          0.17240        0.03050       -0.15640
S          1.85920        0.11200       -0.27330
O          2.36070        0.08670        1.09430
O          2.25790       -0.88210       -1.26670
N          2.21900        1.60270       -0.93600
C          1.99840        1.74610       -2.37480
H          2.06610        0.73000       -2.77720
C          0.61200        2.29320       -2.74080
H          0.33630        1.87310       -3.72990
C         -0.48240        1.91130       -1.73170
H         -0.28370        2.47920       -0.81700
C         -0.62900        0.42310       -1.31340
H         -1.66670        0.35600       -0.96140
C         -0.52180       -0.56970       -2.48230
O         -1.45770       -0.21110       -3.49500
C         -2.78630       -0.49910       -3.33630
C         -3.31020       -1.29720       -2.31030
C         -4.69210       -1.50590       -2.23980
C         -5.55420       -0.93100       -3.17400
C         -5.02220       -0.14040       -4.19890
C         -3.64820        0.07610       -4.28290
O         -1.72420        2.43700       -2.20870
O          0.66800        3.70650       -2.81610
C          3.13360        2.53500       -3.03560
O          4.35130        1.82130       -2.97870
C          4.49250        0.66850       -3.69400
C          3.67700        0.30690       -4.77590
C          3.91620       -0.89620       -5.44980
C          4.95750       -1.73850       -5.06150
C          5.76980       -1.36770       -3.98290
C          5.54030       -0.17650       -3.30030
C          2.19910        2.77240       -0.05570
C          3.48980        3.02660        0.69190
C          4.70200        2.45540        0.29210
C          5.87730        2.74020        0.99230
C          5.85380        3.59590        2.09630
C          4.64360        4.16870        2.49950
C          3.46910        3.88290        1.80140
C         -0.45700        0.03750        1.17620
C         -0.73900        1.41670        1.73050
C         -1.80400        2.17200        1.22200
C         -2.00290        3.50090        1.60820
C         -1.16950        4.05880        2.58880
C         -0.12580        3.30650        3.12710
C          0.10380        1.99780        2.68720
C         -3.09310        4.35790        1.01910
O         -3.58180        5.28530        1.64880
N         -3.46860        4.02660       -0.25160
C         -4.48490        4.77210       -0.96010
H          0.46020       -0.55160       -2.96440
H         -0.67710       -1.59610       -2.11920
H         -2.66050       -1.76260       -1.56970
H         -5.09280       -2.12880       -1.43660
H         -6.63100       -1.09770       -3.10720
H         -5.68290        0.31100       -4.94270
H         -3.21560        0.67880       -5.08470
H         -2.01100        1.89280       -2.95840
H         -0.24860        4.01620       -2.87480
H          3.31710        3.48020       -2.51070
H          2.85630        2.79050       -4.07120
H          2.86260        0.95160       -5.10660
H          3.27440       -1.17050       -6.29080
H          5.13510       -2.67730       -5.59010
H          6.58700       -2.01930       -3.66400
H          6.15730        0.12230       -2.45120
H          1.37390        2.69430        0.66800
H          1.94950        3.63510       -0.69160
H          4.71800        1.78920       -0.57030
H          6.81890        2.28690        0.67220
H          6.77400        3.81400        2.64380
H          4.61380        4.83610        3.36450
H          2.52190        4.32520        2.12240
H          0.19830       -0.52210        1.85230
H         -1.39530       -0.53160        1.07710
H         -2.49270        1.71950        0.50600
H         -1.36200        5.08400        2.90960
H          0.52780        3.74340        3.88560
H          0.95460        1.42910        3.06830
H         -2.90060        3.37880       -0.79390
H         -5.00550        5.41360       -0.23750
H         -5.21210        4.09250       -1.43410
H         -4.05070        5.41660       -1.74510
