
     RDKit          3D

 82 86  0  0  0  0  0  0  0  0999 V2000
    0.1724    0.0305   -0.1564 N   0  0  0  0  0  0  0  0  0  0  0  0
    1.8592    0.1120   -0.2733 S   0  0  0  0  0  0  0  0  0  0  0  0
    2.3607    0.0867    1.0943 O   0  0  0  0  0  0  0  0  0  0  0  0
    2.2579   -0.8821   -1.2667 O   0  0  0  0  0  0  0  0  0  0  0  0
    2.2190    1.6027   -0.9360 N   0  0  0  0  0  0  0  0  0  0  0  0
    1.9984    1.7461   -2.3748 C   0  0  1  0  0  0  0  0  0  0  0  0
    2.0661    0.7300   -2.7772 H   0  0  0  0  0  0  0  0  0  0  0  0
    0.6120    2.2932   -2.7408 C   0  0  1  0  0  0  0  0  0  0  0  0
    0.3363    1.8731   -3.7299 H   0  0  0  0  0  0  0  0  0  0  0  0
   -0.4824    1.9113   -1.7317 C   0  0  2  0  0  0  0  0  0  0  0  0
   -0.2837    2.4792   -0.8170 H   0  0  0  0  0  0  0  0  0  0  0  0
   -0.6290    0.4231   -1.3134 C   0  0  1  0  0  0  0  0  0  0  0  0
   -1.6667    0.3560   -0.9614 H   0  0  0  0  0  0  0  0  0  0  0  0
   -0.5218   -0.5697   -2.4823 C   0  0  0  0  0  0  0  0  0  0  0  0
   -1.4577   -0.2111   -3.4950 O   0  0  0  0  0  0  0  0  0  0  0  0
   -2.7863   -0.4991   -3.3363 C   0  0  0  0  0  0  0  0  0  0  0  0
   -3.3102   -1.2972   -2.3103 C   0  0  0  0  0  0  0  0  0  0  0  0
   -4.6921   -1.5059   -2.2398 C   0  0  0  0  0  0  0  0  0  0  0  0
   -5.5542   -0.9310   -3.1740 C   0  0  0  0  0  0  0  0  0  0  0  0
   -5.0222   -0.1404   -4.1989 C   0  0  0  0  0  0  0  0  0  0  0  0
   -3.6482    0.0761   -4.2829 C   0  0  0  0  0  0  0  0  0  0  0  0
   -1.7242    2.4370   -2.2087 O   0  0  0  0  0  0  0  0  0  0  0  0
    0.6680    3.7065   -2.8161 O   0  0  0  0  0  0  0  0  0  0  0  0
    3.1336    2.5350   -3.0356 C   0  0  0  0  0  0  0  0  0  0  0  0
    4.3513    1.8213   -2.9787 O   0  0  0  0  0  0  0  0  0  0  0  0
    4.4925    0.6685   -3.6940 C   0  0  0  0  0  0  0  0  0  0  0  0
    3.6770    0.3069   -4.7759 C   0  0  0  0  0  0  0  0  0  0  0  0
    3.9162   -0.8962   -5.4498 C   0  0  0  0  0  0  0  0  0  0  0  0
    4.9575   -1.7385   -5.0615 C   0  0  0  0  0  0  0  0  0  0  0  0
    5.7698   -1.3677   -3.9829 C   0  0  0  0  0  0  0  0  0  0  0  0
    5.5403   -0.1765   -3.3003 C   0  0  0  0  0  0  0  0  0  0  0  0
    2.1991    2.7724   -0.0557 C   0  0  0  0  0  0  0  0  0  0  0  0
    3.4898    3.0266    0.6919 C   0  0  0  0  0  0  0  0  0  0  0  0
    4.7020    2.4554    0.2921 C   0  0  0  0  0  0  0  0  0  0  0  0
    5.8773    2.7402    0.9923 C   0  0  0  0  0  0  0  0  0  0  0  0
    5.8538    3.5959    2.0963 C   0  0  0  0  0  0  0  0  0  0  0  0
    4.6436    4.1687    2.4995 C   0  0  0  0  0  0  0  0  0  0  0  0
    3.4691    3.8829    1.8014 C   0  0  0  0  0  0  0  0  0  0  0  0
   -0.4570    0.0375    1.1762 C   0  0  0  0  0  0  0  0  0  0  0  0
   -0.7390    1.4167    1.7305 C   0  0  0  0  0  0  0  0  0  0  0  0
   -1.8040    2.1720    1.2220 C   0  0  0  0  0  0  0  0  0  0  0  0
   -2.0029    3.5009    1.6082 C   0  0  0  0  0  0  0  0  0  0  0  0
   -1.1695    4.0588    2.5888 C   0  0  0  0  0  0  0  0  0  0  0  0
   -0.1258    3.3065    3.1271 C   0  0  0  0  0  0  0  0  0  0  0  0
    0.1038    1.9978    2.6872 C   0  0  0  0  0  0  0  0  0  0  0  0
   -3.0931    4.3579    1.0191 C   0  0  0  0  0  0  0  0  0  0  0  0
   -3.5818    5.2853    1.6488 O   0  0  0  0  0  0  0  0  0  0  0  0
   -3.4686    4.0266   -0.2516 N   0  0  0  0  0  0  0  0  0  0  0  0
   -4.4849    4.7721   -0.9601 C   0  0  0  0  0  0  0  0  0  0  0  0
    0.4602   -0.5516   -2.9644 H   0  0  0  0  0  0  0  0  0  0  0  0
   -0.6771   -1.5961   -2.1192 H   0  0  0  0  0  0  0  0  0  0  0  0
   -2.6605   -1.7626   -1.5697 H   0  0  0  0  0  0  0  0  0  0  0  0
   -5.0928   -2.1288   -1.4366 H   0  0  0  0  0  0  0  0  0  0  0  0
   -6.6310   -1.0977   -3.1072 H   0  0  0  0  0  0  0  0  0  0  0  0
   -5.6829    0.3110   -4.9427 H   0  0  0  0  0  0  0  0  0  0  0  0
   -3.2156    0.6788   -5.0847 H   0  0  0  0  0  0  0  0  0  0  0  0
   -2.0110    1.8928   -2.9584 H   0  0  0  0  0  0  0  0  0  0  0  0
   -0.2486    4.0162   -2.8748 H   0  0  0  0  0  0  0  0  0  0  0  0
    3.3171    3.4802   -2.5107 H   0  0  0  0  0  0  0  0  0  0  0  0
    2.8563    2.7905   -4.0712 H   0  0  0  0  0  0  0  0  0  0  0  0
    2.8626    0.9516   -5.1066 H   0  0  0  0  0  0  0  0  0  0  0  0
    3.2744   -1.1705   -6.2908 H   0  0  0  0  0  0  0  0  0  0  0  0
    5.1351   -2.6773   -5.5901 H   0  0  0  0  0  0  0  0  0  0  0  0
    6.5870   -2.0193   -3.6640 H   0  0  0  0  0  0  0  0  0  0  0  0
    6.1573    0.1223   -2.4512 H   0  0  0  0  0  0  0  0  0  0  0  0
    1.3739    2.6943    0.6680 H   0  0  0  0  0  0  0  0  0  0  0  0
    1.9495    3.6351   -0.6916 H   0  0  0  0  0  0  0  0  0  0  0  0
    4.7180    1.7892   -0.5703 H   0  0  0  0  0  0  0  0  0  0  0  0
    6.8189    2.2869    0.6722 H   0  0  0  0  0  0  0  0  0  0  0  0
    6.7740    3.8140    2.6438 H   0  0  0  0  0  0  0  0  0  0  0  0
    4.6138    4.8361    3.3645 H   0  0  0  0  0  0  0  0  0  0  0  0
    2.5219    4.3252    2.1224 H   0  0  0  0  0  0  0  0  0  0  0  0
    0.1983   -0.5221    1.8523 H   0  0  0  0  0  0  0  0  0  0  0  0
   -1.3953   -0.5316    1.0771 H   0  0  0  0  0  0  0  0  0  0  0  0
   -2.4927    1.7195    0.5060 H   0  0  0  0  0  0  0  0  0  0  0  0
   -1.3620    5.0840    2.9096 H   0  0  0  0  0  0  0  0  0  0  0  0
    0.5278    3.7434    3.8856 H   0  0  0  0  0  0  0  0  0  0  0  0
    0.9546    1.4291    3.0683 H   0  0  0  0  0  0  0  0  0  0  0  0
   -2.9006    3.3788   -0.7939 H   0  0  0  0  0  0  0  0  0  0  0  0
   -5.0055    5.4136   -0.2375 H   0  0  0  0  0  0  0  0  0  0  0  0
   -5.2121    4.0925   -1.4341 H   0  0  0  0  0  0  0  0  0  0  0  0
   -4.0507    5.4166   -1.7451 H   0  0  0  0  0  0  0  0  0  0  0  0
  2  1  1  0
  1 12  1  0
  1 39  1  0
  2  3  2  0
  2  4  2  0
  2  5  1  0
  5  6  1  0
  5 32  1  0
  6  7  1  6
  6  8  1  0
  6 24  1  0
  8  9  1  6
  8 10  1  0
  8 23  1  0
 10 11  1  1
 10 12  1  0
 10 22  1  0
 12 13  1  1
 12 14  1  0
 14 15  1  0
 14 50  1  0
 14 51  1  0
 15 16  1  0
 16 17  2  0
 16 21  1  0
 17 18  1  0
 17 52  1  0
 18 19  2  0
 18 53  1  0
 19 20  1  0
 19 54  1  0
 20 21  2  0
 20 55  1  0
 21 56  1  0
 22 57  1  0
 23 58  1  0
 24 25  1  0
 24 59  1  0
 24 60  1  0
 25 26  1  0
 26 27  2  0
 26 31  1  0
 27 28  1  0
 27 61  1  0
 28 29  2  0
 28 62  1  0
 29 30  1  0
 29 63  1  0
 30 31  2  0
 30 64  1  0
 31 65  1  0
 32 33  1  0
 32 66  1  0
 32 67  1  0
 33 34  2  0
 33 38  1  0
 34 35  1  0
 34 68  1  0
 35 36  2  0
 35 69  1  0
 36 37  1  0
 36 70  1  0
 37 38  2  0
 37 71  1  0
 38 72  1  0
 39 40  1  0
 39 73  1  0
 39 74  1  0
 40 41  2  0
 40 45  1  0
 41 42  1  0
 41 75  1  0
 42 43  2  0
 42 46  1  0
 43 44  1  0
 43 76  1  0
 44 45  2  0
 44 77  1  0
 45 78  1  0
 46 47  2  0
 46 48  1  0
 48 49  1  0
 48 79  1  0
 49 80  1  0
 49 81  1  0
 49 82  1  0
M  END

