rmsd245.gzmat
 OpenBabel08211713423D

 82 86  0  0  1  0  0  0  0  0999 V2000
    0.0000    0.0000    0.0000 N   0  0  0  0  0  0  0  0  0  0  0  0
    1.7482    0.0000    0.0000 S   0  0  0  0  0  0  0  0  0  0  0  0
    2.1362    0.0000    1.3840 O   0  0  0  0  0  0  0  0  0  0  0  0
    2.1202   -1.0285   -0.9384 O   0  0  0  0  0  0  0  0  0  0  0  0
    2.1891    1.4927   -0.7484 N   0  0  0  0  0  0  0  0  0  0  0  0
    2.0510    1.5929   -2.1973 C   0  0  1  0  0  0  0  0  0  0  0  0
    2.1812    0.5527   -2.6358 H   0  0  0  0  0  0  0  0  0  0  0  0
    0.6593    2.1326   -2.6342 C   0  0  1  0  0  0  0  0  0  0  0  0
    0.3926    1.7487   -3.6462 H   0  0  0  0  0  0  0  0  0  0  0  0
   -0.4828    1.8718   -1.6323 C   0  0  2  0  0  0  0  0  0  0  0  0
   -0.3704    2.5412   -0.7425 H   0  0  0  0  0  0  0  0  0  0  0  0
   -0.7437    0.4077   -1.1833 C   0  0  1  0  0  0  0  0  0  0  0  0
   -1.8508    0.3674   -0.9329 H   0  0  0  0  0  0  0  0  0  0  0  0
   -0.5204   -0.6131   -2.3236 C   0  0  0  0  0  0  0  0  0  0  0  0
   -1.4574   -0.3266   -3.3526 O   0  0  0  0  0  0  0  0  0  0  0  0
   -2.7556   -0.7056   -3.1702 C   0  0  0  0  0  0  0  0  0  0  0  0
   -3.2153   -1.5386   -2.1525 C   0  0  0  0  0  0  0  0  0  0  0  0
   -4.5776   -1.8302   -2.0993 C   0  0  0  0  0  0  0  0  0  0  0  0
   -5.4538   -1.2951   -3.0399 C   0  0  0  0  0  0  0  0  0  0  0  0
   -4.9712   -0.4672   -4.0561 C   0  0  0  0  0  0  0  0  0  0  0  0
   -3.6180   -0.1633   -4.1334 C   0  0  0  0  0  0  0  0  0  0  0  0
   -1.6596    2.3748   -2.2355 O   0  0  0  0  0  0  0  0  0  0  0  0
    0.8163    3.5349   -2.7543 O   0  0  0  0  0  0  0  0  0  0  0  0
    3.1537    2.4711   -2.8327 C   0  0  0  0  0  0  0  0  0  0  0  0
    4.3690    1.7446   -2.9233 O   0  0  0  0  0  0  0  0  0  0  0  0
    4.4592    0.7343   -3.8298 C   0  0  0  0  0  0  0  0  0  0  0  0
    3.5622    0.4980   -4.8704 C   0  0  0  0  0  0  0  0  0  0  0  0
    3.8177   -0.5631   -5.7398 C   0  0  0  0  0  0  0  0  0  0  0  0
    4.9430   -1.3632   -5.5710 C   0  0  0  0  0  0  0  0  0  0  0  0
    5.8312   -1.1101   -4.5209 C   0  0  0  0  0  0  0  0  0  0  0  0
    5.5988   -0.0644   -3.6399 C   0  0  0  0  0  0  0  0  0  0  0  0
    2.2145    2.7382    0.0239 C   0  0  0  0  0  0  0  0  0  0  0  0
    3.5041    2.9197    0.7860 C   0  0  0  0  0  0  0  0  0  0  0  0
    4.7107    2.3872    0.3352 C   0  0  0  0  0  0  0  0  0  0  0  0
    5.8814    2.6081    1.0579 C   0  0  0  0  0  0  0  0  0  0  0  0
    5.8511    3.3626    2.2290 C   0  0  0  0  0  0  0  0  0  0  0  0
    4.6443    3.8966    2.6795 C   0  0  0  0  0  0  0  0  0  0  0  0
    3.4726    3.6764    1.9608 C   0  0  0  0  0  0  0  0  0  0  0  0
   -0.7085    0.1412    1.2809 C   0  0  0  0  0  0  0  0  0  0  0  0
   -0.8931    1.5762    1.7038 C   0  0  0  0  0  0  0  0  0  0  0  0
   -1.9351    2.3257    1.1575 C   0  0  0  0  0  0  0  0  0  0  0  0
   -2.0426    3.6804    1.4594 C   0  0  0  0  0  0  0  0  0  0  0  0
   -1.1670    4.2749    2.3681 C   0  0  0  0  0  0  0  0  0  0  0  0
   -0.1613    3.5094    2.9542 C   0  0  0  0  0  0  0  0  0  0  0  0
   -0.0155    2.1650    2.6148 C   0  0  0  0  0  0  0  0  0  0  0  0
   -3.0967    4.5259    0.8293 C   0  0  0  0  0  0  0  0  0  0  0  0
   -3.7301    5.3583    1.4503 O   0  0  0  0  0  0  0  0  0  0  0  0
   -3.2987    4.3164   -0.5156 N   0  0  0  0  0  0  0  0  0  0  0  0
   -4.2800    5.1172   -1.2468 C   0  0  0  0  0  0  0  0  0  0  0  0
    0.4434   -0.5142   -2.8588 H   0  0  0  0  0  0  0  0  0  0  0  0
   -0.5917   -1.6568   -1.9678 H   0  0  0  0  0  0  0  0  0  0  0  0
   -2.5387   -1.9686   -1.4194 H   0  0  0  0  0  0  0  0  0  0  0  0
   -4.9566   -2.4835   -1.3131 H   0  0  0  0  0  0  0  0  0  0  0  0
   -6.5155   -1.5244   -2.9872 H   0  0  0  0  0  0  0  0  0  0  0  0
   -5.6612   -0.0566   -4.7937 H   0  0  0  0  0  0  0  0  0  0  0  0
   -3.2247    0.4680   -4.9253 H   0  0  0  0  0  0  0  0  0  0  0  0
   -1.9809    1.7673   -2.9405 H   0  0  0  0  0  0  0  0  0  0  0  0
   -0.0611    3.9782   -2.7292 H   0  0  0  0  0  0  0  0  0  0  0  0
    3.4585    3.3188   -2.1861 H   0  0  0  0  0  0  0  0  0  0  0  0
    2.8572    2.8713   -3.8176 H   0  0  0  0  0  0  0  0  0  0  0  0
    2.6886    1.1212   -5.0201 H   0  0  0  0  0  0  0  0  0  0  0  0
    3.1264   -0.7644   -6.5574 H   0  0  0  0  0  0  0  0  0  0  0  0
    5.1332   -2.1882   -6.2519 H   0  0  0  0  0  0  0  0  0  0  0  0
    6.7084   -1.7436   -4.3921 H   0  0  0  0  0  0  0  0  0  0  0  0
    6.2685    0.1414   -2.8090 H   0  0  0  0  0  0  0  0  0  0  0  0
    1.3473    2.7851    0.7290 H   0  0  0  0  0  0  0  0  0  0  0  0
    2.0749    3.6182   -0.6594 H   0  0  0  0  0  0  0  0  0  0  0  0
    4.7400    1.7906   -0.5801 H   0  0  0  0  0  0  0  0  0  0  0  0
    6.8210    2.1876    0.7057 H   0  0  0  0  0  0  0  0  0  0  0  0
    6.7654    3.5326    2.7919 H   0  0  0  0  0  0  0  0  0  0  0  0
    4.6170    4.4825    3.5951 H   0  0  0  0  0  0  0  0  0  0  0  0
    2.5337    4.0918    2.3198 H   0  0  0  0  0  0  0  0  0  0  0  0
   -0.1491   -0.4321    2.0659 H   0  0  0  0  0  0  0  0  0  0  0  0
   -1.6981   -0.3720    1.2013 H   0  0  0  0  0  0  0  0  0  0  0  0
   -2.6599    1.8556    0.4923 H   0  0  0  0  0  0  0  0  0  0  0  0
   -1.2848    5.3317    2.6198 H   0  0  0  0  0  0  0  0  0  0  0  0
    0.5126    3.9624    3.6803 H   0  0  0  0  0  0  0  0  0  0  0  0
    0.7956    1.5733    3.0526 H   0  0  0  0  0  0  0  0  0  0  0  0
   -2.7577    3.6539   -1.0492 H   0  0  0  0  0  0  0  0  0  0  0  0
   -4.8682    5.7512   -0.5528 H   0  0  0  0  0  0  0  0  0  0  0  0
   -4.9834    4.4609   -1.7872 H   0  0  0  0  0  0  0  0  0  0  0  0
   -3.7791    5.7831   -1.9701 H   0  0  0  0  0  0  0  0  0  0  0  0
  1  2  1  0  0  0  0
  1 39  1  0  0  0  0
  2  3  2  0  0  0  0
  4  2  2  0  0  0  0
  5  2  1  0  0  0  0
  5 32  1  0  0  0  0
  6  8  1  0  0  0  0
  6  5  1  0  0  0  0
  6  7  1  6  0  0  0
  8 10  1  0  0  0  0
  8  9  1  6  0  0  0
 10 12  1  0  0  0  0
 10 11  1  1  0  0  0
 12 13  1  1  0  0  0
 12  1  1  0  0  0  0
 14 51  1  0  0  0  0
 14 12  1  0  0  0  0
 15 16  1  0  0  0  0
 15 14  1  0  0  0  0
 16 17  2  0  0  0  0
 17 18  1  0  0  0  0
 17 52  1  0  0  0  0
 18 53  1  0  0  0  0
 19 54  1  0  0  0  0
 19 18  2  0  0  0  0
 20 19  1  0  0  0  0
 21 20  2  0  0  0  0
 21 16  1  0  0  0  0
 22 10  1  0  0  0  0
 23 58  1  0  0  0  0
 23  8  1  0  0  0  0
 24  6  1  0  0  0  0
 24 59  1  0  0  0  0
 25 24  1  0  0  0  0
 26 31  1  0  0  0  0
 26 25  1  0  0  0  0
 27 26  2  0  0  0  0
 28 29  2  0  0  0  0
 28 27  1  0  0  0  0
 29 30  1  0  0  0  0
 30 64  1  0  0  0  0
 30 31  2  0  0  0  0
 31 65  1  0  0  0  0
 32 66  1  0  0  0  0
 32 33  1  0  0  0  0
 33 38  1  0  0  0  0
 34 33  2  0  0  0  0
 34 35  1  0  0  0  0
 35 36  2  0  0  0  0
 36 37  1  0  0  0  0
 36 70  1  0  0  0  0
 37 71  1  0  0  0  0
 38 72  1  0  0  0  0
 38 37  2  0  0  0  0
 39 40  1  0  0  0  0
 39 73  1  0  0  0  0
 40 45  2  0  0  0  0
 41 42  2  0  0  0  0
 41 40  1  0  0  0  0
 42 43  1  0  0  0  0
 43 76  1  0  0  0  0
 43 44  2  0  0  0  0
 44 77  1  0  0  0  0
 45 44  1  0  0  0  0
 45 78  1  0  0  0  0
 46 47  2  0  0  0  0
 46 42  1  0  0  0  0
 48 46  1  0  0  0  0
 49 80  1  0  0  0  0
 49 48  1  0  0  0  0
 50 14  1  0  0  0  0
 55 20  1  0  0  0  0
 56 21  1  0  0  0  0
 57 22  1  0  0  0  0
 60 24  1  0  0  0  0
 61 27  1  0  0  0  0
 62 28  1  0  0  0  0
 63 29  1  0  0  0  0
 67 32  1  0  0  0  0
 68 34  1  0  0  0  0
 69 35  1  0  0  0  0
 74 39  1  0  0  0  0
 75 41  1  0  0  0  0
 79 48  1  0  0  0  0
 81 49  1  0  0  0  0
 82 49  1  0  0  0  0
M  END
$$$$
