82

N          0.34160        0.09080        0.25830
S          2.02040        0.14590        0.27660
O          2.41070        0.32500        1.67300
O          2.51490       -0.99090       -0.50020
N          2.46950        1.51430       -0.57500
C          2.34250        1.41620       -2.03020
H          2.40140        0.34740       -2.25230
C          0.99930        1.91090       -2.58300
H          0.82030        1.36080       -3.52830
C         -0.20900        1.66530       -1.65610
H         -0.14400        2.38770       -0.83110
C         -0.38190        0.27170       -1.00140
H         -1.44110        0.26820       -0.70990
C         -0.19390       -0.90740       -1.97110
O         -1.09550       -0.77960       -3.06500
C         -2.40320       -1.15670       -2.92290
C         -3.23280       -0.89410       -4.02350
C         -4.58290       -1.23230       -3.97640
C         -5.12460       -1.83650       -2.83560
C         -4.29450       -2.09950       -1.74610
C         -2.93600       -1.76390       -1.77780
O         -1.37900        2.03300       -2.37420
O          1.06620        3.30010       -2.84150
C          3.55660        2.05660       -2.71420
O          3.57360        1.76730       -4.09650
C          3.87220        0.50810       -4.52340
C          4.28650       -0.54400       -3.69130
C          4.56780       -1.79520       -4.25330
C          4.44650       -2.01220       -5.62550
C          4.03460       -0.95670       -6.44890
C          3.74720        0.29240       -5.90590
C          2.32980        2.81930        0.07490
C          3.54240        3.29810        0.84450
C          3.50350        4.58480        1.40130
C          4.57990        5.06760        2.14660
C          5.71270        4.27060        2.34220
C          5.75710        2.98980        1.78610
C          4.67700        2.50510        1.04220
C         -0.40650        0.15240        1.52570
C         -0.79420        1.55210        1.94820
C          0.14150        2.35120        2.62290
C         -0.13440        3.68950        2.92450
C         -1.37730        4.22900        2.55320
C         -2.32850        3.43250        1.91990
C         -2.03720        2.09860        1.61180
C          0.89510        4.64970        3.46340
O          0.86730        5.82350        3.10760
N          1.86430        4.20590        4.31240
C          2.08350        2.90780        4.91580
H          0.80700       -0.93000       -2.41470
H         -0.32660       -1.86070       -1.43860
H         -2.79260       -0.43170       -4.90940
H         -5.21830       -1.02360       -4.84040
H         -6.18350       -2.09970       -2.79960
H         -4.70180       -2.57340       -0.84970
H         -2.31160       -1.98550       -0.91300
H         -1.51420        1.35560       -3.05480
H          0.16280        3.57720       -3.05930
H          4.47310        1.70470       -2.21270
H          3.51430        3.14980       -2.64200
H          4.38210       -0.41900       -2.61350
H          4.88270       -2.60800       -3.59440
H          4.66730       -2.99280       -6.05210
H          3.93480       -1.10910       -7.52650
H          3.42450        1.12810       -6.52960
H          1.46000        2.81160        0.74890
H          2.07260        3.54100       -0.71270
H          2.61710        5.21090        1.27260
H          4.52960        6.07230        2.57400
H          6.55790        4.64750        2.92340
H          6.63690        2.35860        1.93390
H          4.70810        1.50000        0.62210
H          0.21080       -0.32320        2.29650
H         -1.30580       -0.46910        1.39340
H          1.11190        1.91510        2.84690
H         -1.56570        5.28440        2.75470
H         -3.29780        3.85450        1.64490
H         -2.78080        1.48520        1.09530
H          2.56590        4.91900        4.48450
H          1.12860        2.40770        5.12560
H          2.60440        3.04640        5.87490
H          2.69950        2.24190        4.28630
