rmsd189.gzmat
 OpenBabel08211713423D

 82 86  0  0  1  0  0  0  0  0999 V2000
    0.0000    0.0000    0.0000 N   0  0  0  0  0  0  0  0  0  0  0  0
    1.7430    0.0000    0.0000 S   0  0  0  0  0  0  0  0  0  0  0  0
    2.1377    0.0000    1.3874 O   0  0  0  0  0  0  0  0  0  0  0  0
    2.1137   -1.0355   -0.9291 O   0  0  0  0  0  0  0  0  0  0  0  0
    2.2183    1.4946   -0.7267 N   0  0  0  0  0  0  0  0  0  0  0  0
    2.0762    1.5983   -2.1807 C   0  0  1  0  0  0  0  0  0  0  0  0
    2.2149    0.5625   -2.6279 H   0  0  0  0  0  0  0  0  0  0  0  0
    0.6835    2.1304   -2.6256 C   0  0  1  0  0  0  0  0  0  0  0  0
    0.4553    1.7777   -3.6583 H   0  0  0  0  0  0  0  0  0  0  0  0
   -0.4921    1.8341   -1.6703 C   0  0  2  0  0  0  0  0  0  0  0  0
   -0.4323    2.5232   -0.7899 H   0  0  0  0  0  0  0  0  0  0  0  0
   -0.7348    0.3748   -1.2004 C   0  0  1  0  0  0  0  0  0  0  0  0
   -1.8446    0.3255   -0.9635 H   0  0  0  0  0  0  0  0  0  0  0  0
   -0.4794   -0.6640   -2.3179 C   0  0  0  0  0  0  0  0  0  0  0  0
   -1.4902   -0.5123   -3.3046 O   0  0  0  0  0  0  0  0  0  0  0  0
   -2.7303   -1.0162   -3.0446 C   0  0  0  0  0  0  0  0  0  0  0  0
   -3.6717   -0.6690   -4.0245 C   0  0  0  0  0  0  0  0  0  0  0  0
   -4.9772   -1.1178   -3.8777 C   0  0  0  0  0  0  0  0  0  0  0  0
   -5.3383   -1.8969   -2.7753 C   0  0  0  0  0  0  0  0  0  0  0  0
   -4.3858   -2.2373   -1.8190 C   0  0  0  0  0  0  0  0  0  0  0  0
   -3.0677   -1.7995   -1.9426 C   0  0  0  0  0  0  0  0  0  0  0  0
   -1.6638    2.2820   -2.3194 O   0  0  0  0  0  0  0  0  0  0  0  0
    0.8149    3.5394   -2.6883 O   0  0  0  0  0  0  0  0  0  0  0  0
    3.1912    2.4702   -2.8089 C   0  0  0  0  0  0  0  0  0  0  0  0
    4.0021    1.6540   -3.6393 O   0  0  0  0  0  0  0  0  0  0  0  0
    5.0398    0.9641   -3.0901 C   0  0  0  0  0  0  0  0  0  0  0  0
    5.3900    0.9563   -1.7421 C   0  0  0  0  0  0  0  0  0  0  0  0
    6.4924    0.2041   -1.3436 C   0  0  0  0  0  0  0  0  0  0  0  0
    7.2315   -0.5197   -2.2763 C   0  0  0  0  0  0  0  0  0  0  0  0
    6.8655   -0.4997   -3.6243 C   0  0  0  0  0  0  0  0  0  0  0  0
    5.7685    0.2393   -4.0461 C   0  0  0  0  0  0  0  0  0  0  0  0
    2.1756    2.7513    0.0381 C   0  0  0  0  0  0  0  0  0  0  0  0
    3.5543    3.1587    0.5014 C   0  0  0  0  0  0  0  0  0  0  0  0
    4.1056    4.3549    0.0364 C   0  0  0  0  0  0  0  0  0  0  0  0
    5.3800    4.7410    0.4444 C   0  0  0  0  0  0  0  0  0  0  0  0
    6.1057    3.9375    1.3225 C   0  0  0  0  0  0  0  0  0  0  0  0
    5.5461    2.7561    1.8049 C   0  0  0  0  0  0  0  0  0  0  0  0
    4.2695    2.3694    1.4022 C   0  0  0  0  0  0  0  0  0  0  0  0
   -0.7163    0.1344    1.2746 C   0  0  0  0  0  0  0  0  0  0  0  0
   -0.6876    1.5362    1.8308 C   0  0  0  0  0  0  0  0  0  0  0  0
   -1.5579    2.5052    1.3330 C   0  0  0  0  0  0  0  0  0  0  0  0
   -1.4470    3.8197    1.7783 C   0  0  0  0  0  0  0  0  0  0  0  0
   -0.5072    4.1680    2.7479 C   0  0  0  0  0  0  0  0  0  0  0  0
    0.3217    3.1846    3.2834 C   0  0  0  0  0  0  0  0  0  0  0  0
    0.2366    1.8723    2.8220 C   0  0  0  0  0  0  0  0  0  0  0  0
   -2.2705    4.9009    1.1677 C   0  0  0  0  0  0  0  0  0  0  0  0
   -1.7782    5.9064    0.6947 O   0  0  0  0  0  0  0  0  0  0  0  0
   -3.6319    4.6978    1.1748 N   0  0  0  0  0  0  0  0  0  0  0  0
   -4.5280    5.6858    0.5763 C   0  0  0  0  0  0  0  0  0  0  0  0
    0.4396   -0.4909   -2.9110 H   0  0  0  0  0  0  0  0  0  0  0  0
   -0.4304   -1.6972   -1.9275 H   0  0  0  0  0  0  0  0  0  0  0  0
   -3.3715   -0.0679   -4.8785 H   0  0  0  0  0  0  0  0  0  0  0  0
   -5.7252   -0.8617   -4.6285 H   0  0  0  0  0  0  0  0  0  0  0  0
   -6.3639   -2.2407   -2.6686 H   0  0  0  0  0  0  0  0  0  0  0  0
   -4.6688   -2.8525   -0.9651 H   0  0  0  0  0  0  0  0  0  0  0  0
   -2.3298   -2.0807   -1.1966 H   0  0  0  0  0  0  0  0  0  0  0  0
   -1.9227    1.6573   -3.0357 H   0  0  0  0  0  0  0  0  0  0  0  0
   -0.0719    3.9668   -2.7164 H   0  0  0  0  0  0  0  0  0  0  0  0
    3.7897    3.0166   -2.0638 H   0  0  0  0  0  0  0  0  0  0  0  0
    2.8001    3.1977   -3.5522 H   0  0  0  0  0  0  0  0  0  0  0  0
    4.8152    1.5124   -1.0030 H   0  0  0  0  0  0  0  0  0  0  0  0
    6.7726    0.1827   -0.2910 H   0  0  0  0  0  0  0  0  0  0  0  0
    8.0896   -1.1027   -1.9563 H   0  0  0  0  0  0  0  0  0  0  0  0
    7.4451   -1.0688   -4.3500 H   0  0  0  0  0  0  0  0  0  0  0  0
    5.4667    0.2645   -5.0883 H   0  0  0  0  0  0  0  0  0  0  0  0
    1.5087    2.6653    0.9299 H   0  0  0  0  0  0  0  0  0  0  0  0
    1.7219    3.5651   -0.5871 H   0  0  0  0  0  0  0  0  0  0  0  0
    3.5427    4.9905   -0.6465 H   0  0  0  0  0  0  0  0  0  0  0  0
    5.8112    5.6687    0.0737 H   0  0  0  0  0  0  0  0  0  0  0  0
    7.1057    4.2330    1.6308 H   0  0  0  0  0  0  0  0  0  0  0  0
    6.1064    2.1316    2.4970 H   0  0  0  0  0  0  0  0  0  0  0  0
    3.8361    1.4459    1.7947 H   0  0  0  0  0  0  0  0  0  0  0  0
   -0.2642   -0.5853    2.0062 H   0  0  0  0  0  0  0  0  0  0  0  0
   -1.7699   -0.2112    1.1439 H   0  0  0  0  0  0  0  0  0  0  0  0
   -2.3002    2.2436    0.5768 H   0  0  0  0  0  0  0  0  0  0  0  0
   -0.4171    5.2077    3.0696 H   0  0  0  0  0  0  0  0  0  0  0  0
    1.0517    3.4448    4.0489 H   0  0  0  0  0  0  0  0  0  0  0  0
    0.9184    1.1100    3.2147 H   0  0  0  0  0  0  0  0  0  0  0  0
   -4.0487    3.8741    1.5657 H   0  0  0  0  0  0  0  0  0  0  0  0
   -3.9519    6.5238    0.1323 H   0  0  0  0  0  0  0  0  0  0  0  0
   -5.2039    6.1092    1.3383 H   0  0  0  0  0  0  0  0  0  0  0  0
   -5.1287    5.2277   -0.2282 H   0  0  0  0  0  0  0  0  0  0  0  0
  1  2  1  0  0  0  0
  1 39  1  0  0  0  0
  2  3  2  0  0  0  0
  4  2  2  0  0  0  0
  5  2  1  0  0  0  0
  5 32  1  0  0  0  0
  6  8  1  0  0  0  0
  6  5  1  0  0  0  0
  6  7  1  6  0  0  0
  8 10  1  0  0  0  0
  8  9  1  6  0  0  0
 10 12  1  0  0  0  0
 10 11  1  1  0  0  0
 12 13  1  1  0  0  0
 12  1  1  0  0  0  0
 14 51  1  0  0  0  0
 14 12  1  0  0  0  0
 15 16  1  0  0  0  0
 15 14  1  0  0  0  0
 16 21  2  0  0  0  0
 17 18  2  0  0  0  0
 17 16  1  0  0  0  0
 18 19  1  0  0  0  0
 19 54  1  0  0  0  0
 19 20  2  0  0  0  0
 20 55  1  0  0  0  0
 21 20  1  0  0  0  0
 21 56  1  0  0  0  0
 22 10  1  0  0  0  0
 23  8  1  0  0  0  0
 24  6  1  0  0  0  0
 24 59  1  0  0  0  0
 25 26  1  0  0  0  0
 25 24  1  0  0  0  0
 26 27  2  0  0  0  0
 27 28  1  0  0  0  0
 27 61  1  0  0  0  0
 28 62  1  0  0  0  0
 29 63  1  0  0  0  0
 29 28  2  0  0  0  0
 30 29  1  0  0  0  0
 31 30  2  0  0  0  0
 31 26  1  0  0  0  0
 32 33  1  0  0  0  0
 32 66  1  0  0  0  0
 33 38  2  0  0  0  0
 34 35  2  0  0  0  0
 34 33  1  0  0  0  0
 35 36  1  0  0  0  0
 36 70  1  0  0  0  0
 36 37  2  0  0  0  0
 37 71  1  0  0  0  0
 38 72  1  0  0  0  0
 38 37  1  0  0  0  0
 39 40  1  0  0  0  0
 39 73  1  0  0  0  0
 40 45  2  0  0  0  0
 41 42  2  0  0  0  0
 41 40  1  0  0  0  0
 42 43  1  0  0  0  0
 43 76  1  0  0  0  0
 43 44  2  0  0  0  0
 44 77  1  0  0  0  0
 45 78  1  0  0  0  0
 45 44  1  0  0  0  0
 46 48  1  0  0  0  0
 46 42  1  0  0  0  0
 47 46  2  0  0  0  0
 48 79  1  0  0  0  0
 49 48  1  0  0  0  0
 49 81  1  0  0  0  0
 50 14  1  0  0  0  0
 52 17  1  0  0  0  0
 53 18  1  0  0  0  0
 57 22  1  0  0  0  0
 58 23  1  0  0  0  0
 60 24  1  0  0  0  0
 64 30  1  0  0  0  0
 65 31  1  0  0  0  0
 67 32  1  0  0  0  0
 68 34  1  0  0  0  0
 69 35  1  0  0  0  0
 74 39  1  0  0  0  0
 75 41  1  0  0  0  0
 80 49  1  0  0  0  0
 82 49  1  0  0  0  0
M  END
$$$$
