82

N          0.09780        0.01930       -0.27670
S          1.78010       -0.00390       -0.32810
O          2.24190       -0.05930        1.05760
O          2.22310       -1.04170       -1.27100
N          2.17830        1.46550       -0.97540
C          2.05420        1.58240       -2.43500
H          2.16490        0.55600       -2.80320
C          0.69260        2.09400       -2.91730
H          0.49830        1.61580       -3.89950
C         -0.49170        1.76180       -1.99010
H         -0.38100        2.37550       -1.09000
C         -0.67490        0.30710       -1.49370
H         -1.72030        0.29420       -1.15350
C         -0.54260       -0.75650       -2.60070
O         -1.36210       -0.41670       -3.71350
C         -2.69550       -0.74230       -3.71500
C         -3.34970       -1.40520       -2.67050
C         -4.72280       -1.66010       -2.76460
C         -5.44230       -1.26660       -3.89400
C         -4.77930       -0.61140       -4.93830
C         -3.41320       -0.34800       -4.85360
O         -1.66960        2.23850       -2.62730
O          0.74040        3.50090       -3.07580
C          3.22680        2.33740       -3.06500
O          4.43890        1.61990       -2.90860
C          5.11530        1.75760       -1.72100
C          5.69410        2.98010       -1.36050
C          6.37200        3.09260       -0.14320
C          6.48190        1.98940        0.70760
C          5.91740        0.76580        0.32990
C          5.23780        0.64450       -0.88260
C          2.43060        2.59370       -0.05860
C          1.21330        3.24630        0.56010
C          0.59630        2.68120        1.68630
C         -0.55860        3.25310        2.22370
C         -1.10560        4.40480        1.64920
C         -0.48420        4.98710        0.54140
C          0.66890        4.41120        0.00220
C         -0.57640       -0.64920        0.83670
C         -1.01200       -2.07180        0.54780
C         -2.35870       -2.43120        0.61990
C         -2.77650       -3.74140        0.33930
C         -1.82520       -4.69690       -0.03790
C         -0.47420       -4.34450       -0.11840
C         -0.06730       -3.04420        0.17510
C         -4.25100       -4.02960        0.38950
O         -5.07940       -3.15210        0.17590
N         -4.59340       -5.31680        0.68090
C         -5.96880       -5.75960        0.75810
H          0.48120       -0.80640       -2.98620
H         -0.78740       -1.75440       -2.21040
H         -2.81870       -1.72190       -1.77580
H         -5.21080       -2.16230       -1.92660
H         -6.51420       -1.46460       -3.96040
H         -5.33020       -0.30100       -5.82970
H         -2.87860        0.15650       -5.66130
H         -1.84320        1.65010       -3.37810
H         -0.18300        3.78280       -3.17620
H          3.30600        3.36470       -2.67770
H          3.04150        2.41720       -4.14530
H          5.61190        3.83480       -2.03580
H          6.82010        4.04880        0.13830
H          7.00700        2.08150        1.66090
H          5.98890       -0.09940        0.99300
H          4.75790       -0.28940       -1.17720
H          2.99310        3.33310       -0.63850
H          3.10950        2.22750        0.72240
H          1.02860        1.78550        2.13460
H         -1.03160        2.80110        3.09920
H         -2.01070        4.85090        2.06830
H         -0.90230        5.89080        0.09140
H          1.13230        4.84350       -0.88620
H         -1.44780       -0.03600        1.11560
H          0.11540       -0.63160        1.68940
H         -3.12090       -1.69310        0.87920
H         -2.13530       -5.70870       -0.30940
H          0.26450       -5.08740       -0.42750
H          0.98560       -2.77260        0.08140
H         -3.86100       -5.95110        0.97210
H         -6.60450       -4.93250        0.41780
H         -6.25610       -6.02030        1.79100
H         -6.14150       -6.63710        0.11370
