rmsd222.gzmat
 OpenBabel08211713423D

 82 86  0  0  1  0  0  0  0  0999 V2000
    0.0000    0.0000    0.0000 N   0  0  0  0  0  0  0  0  0  0  0  0
    1.7413    0.0000    0.0000 S   0  0  0  0  0  0  0  0  0  0  0  0
    2.1737    0.0000    1.3739 O   0  0  0  0  0  0  0  0  0  0  0  0
    2.1457   -1.0329   -0.9248 O   0  0  0  0  0  0  0  0  0  0  0  0
    2.1768    1.4918   -0.7496 N   0  0  0  0  0  0  0  0  0  0  0  0
    1.9188    1.5929   -2.1847 C   0  0  1  0  0  0  0  0  0  0  0  0
    2.0643    0.5525   -2.6297 H   0  0  0  0  0  0  0  0  0  0  0  0
    0.5070    2.0566   -2.6122 C   0  0  1  0  0  0  0  0  0  0  0  0
    0.3527    1.7833   -3.6867 H   0  0  0  0  0  0  0  0  0  0  0  0
   -0.6821    1.5658   -1.7593 C   0  0  2  0  0  0  0  0  0  0  0  0
   -0.8278    2.2482   -0.8805 H   0  0  0  0  0  0  0  0  0  0  0  0
   -0.7098    0.0927   -1.2750 C   0  0  1  0  0  0  0  0  0  0  0  0
   -1.8130   -0.1173   -1.0784 H   0  0  0  0  0  0  0  0  0  0  0  0
   -0.2706   -0.9207   -2.3538 C   0  0  0  0  0  0  0  0  0  0  0  0
   -1.3392   -1.0553   -3.2830 O   0  0  0  0  0  0  0  0  0  0  0  0
   -2.3971   -1.8422   -2.9413 C   0  0  0  0  0  0  0  0  0  0  0  0
   -3.5196   -1.6344   -3.7566 C   0  0  0  0  0  0  0  0  0  0  0  0
   -4.6443   -2.4210   -3.5502 C   0  0  0  0  0  0  0  0  0  0  0  0
   -4.6510   -3.3982   -2.5516 C   0  0  0  0  0  0  0  0  0  0  0  0
   -3.5279   -3.5856   -1.7504 C   0  0  0  0  0  0  0  0  0  0  0  0
   -2.3907   -2.8005   -1.9295 C   0  0  0  0  0  0  0  0  0  0  0  0
   -1.8404    1.8035   -2.5319 O   0  0  0  0  0  0  0  0  0  0  0  0
    0.5078    3.4723   -2.5413 O   0  0  0  0  0  0  0  0  0  0  0  0
    2.9922    2.4841   -2.8631 C   0  0  0  0  0  0  0  0  0  0  0  0
    3.1618    2.0675   -4.2077 O   0  0  0  0  0  0  0  0  0  0  0  0
    3.8555    0.9209   -4.4580 C   0  0  0  0  0  0  0  0  0  0  0  0
    4.4969    0.1346   -3.5029 C   0  0  0  0  0  0  0  0  0  0  0  0
    5.1605   -1.0157   -3.9267 C   0  0  0  0  0  0  0  0  0  0  0  0
    5.1880   -1.3635   -5.2748 C   0  0  0  0  0  0  0  0  0  0  0  0
    4.5427   -0.5590   -6.2172 C   0  0  0  0  0  0  0  0  0  0  0  0
    3.8687    0.5882   -5.8207 C   0  0  0  0  0  0  0  0  0  0  0  0
    2.3150    2.7197    0.0440 C   0  0  0  0  0  0  0  0  0  0  0  0
    1.1414    3.1163    0.9072 C   0  0  0  0  0  0  0  0  0  0  0  0
    1.0249    2.6234    2.2077 C   0  0  0  0  0  0  0  0  0  0  0  0
   -0.0138    3.0578    3.0286 C   0  0  0  0  0  0  0  0  0  0  0  0
   -0.9383    3.9881    2.5563 C   0  0  0  0  0  0  0  0  0  0  0  0
   -0.8227    4.4830    1.2584 C   0  0  0  0  0  0  0  0  0  0  0  0
    0.2196    4.0543    0.4401 C   0  0  0  0  0  0  0  0  0  0  0  0
   -0.6698   -0.8232    1.0272 C   0  0  0  0  0  0  0  0  0  0  0  0
   -2.0806   -0.3451    1.2672 C   0  0  0  0  0  0  0  0  0  0  0  0
   -3.1322   -1.2605    1.2982 C   0  0  0  0  0  0  0  0  0  0  0  0
   -4.4270   -0.8043    1.5357 C   0  0  0  0  0  0  0  0  0  0  0  0
   -4.6846    0.5492    1.7441 C   0  0  0  0  0  0  0  0  0  0  0  0
   -3.6315    1.4608    1.6997 C   0  0  0  0  0  0  0  0  0  0  0  0
   -2.3350    1.0135    1.4640 C   0  0  0  0  0  0  0  0  0  0  0  0
   -5.5706   -1.7577    1.6050 C   0  0  0  0  0  0  0  0  0  0  0  0
   -6.2633   -1.8988    2.5926 O   0  0  0  0  0  0  0  0  0  0  0  0
   -5.7967   -2.4797    0.4538 N   0  0  0  0  0  0  0  0  0  0  0  0
   -6.9191   -3.4121    0.3738 C   0  0  0  0  0  0  0  0  0  0  0  0
    0.5464   -0.5738   -3.0152 H   0  0  0  0  0  0  0  0  0  0  0  0
    0.0414   -1.8937   -1.9334 H   0  0  0  0  0  0  0  0  0  0  0  0
   -3.4916   -0.8778   -4.5361 H   0  0  0  0  0  0  0  0  0  0  0  0
   -5.5266   -2.2784   -4.1746 H   0  0  0  0  0  0  0  0  0  0  0  0
   -5.5300   -4.0224   -2.4132 H   0  0  0  0  0  0  0  0  0  0  0  0
   -3.5329   -4.3565   -0.9786 H   0  0  0  0  0  0  0  0  0  0  0  0
   -1.5172   -2.9567   -1.3042 H   0  0  0  0  0  0  0  0  0  0  0  0
   -1.9788    1.0801   -3.1839 H   0  0  0  0  0  0  0  0  0  0  0  0
   -0.3731    3.8115   -2.8189 H   0  0  0  0  0  0  0  0  0  0  0  0
    3.9496    2.4733   -2.3163 H   0  0  0  0  0  0  0  0  0  0  0  0
    2.6587    3.5330   -3.0072 H   0  0  0  0  0  0  0  0  0  0  0  0
    4.4775    0.3872   -2.4460 H   0  0  0  0  0  0  0  0  0  0  0  0
    5.6542   -1.6498   -3.1904 H   0  0  0  0  0  0  0  0  0  0  0  0
    5.7072   -2.2624   -5.5952 H   0  0  0  0  0  0  0  0  0  0  0  0
    4.5668   -0.8354   -7.2708 H   0  0  0  0  0  0  0  0  0  0  0  0
    3.3567    1.2243   -6.5372 H   0  0  0  0  0  0  0  0  0  0  0  0
    2.5588    3.5680   -0.6430 H   0  0  0  0  0  0  0  0  0  0  0  0
    3.2199    2.5837    0.6951 H   0  0  0  0  0  0  0  0  0  0  0  0
    1.7475    1.8962    2.5909 H   0  0  0  0  0  0  0  0  0  0  0  0
   -0.1002    2.6693    4.0414 H   0  0  0  0  0  0  0  0  0  0  0  0
   -1.7452    4.3296    3.2013 H   0  0  0  0  0  0  0  0  0  0  0  0
   -1.5415    5.2095    0.8852 H   0  0  0  0  0  0  0  0  0  0  0  0
    0.3204    4.4615   -0.5676 H   0  0  0  0  0  0  0  0  0  0  0  0
   -0.1003   -0.7311    1.9920 H   0  0  0  0  0  0  0  0  0  0  0  0
   -0.6596   -1.9045    0.7517 H   0  0  0  0  0  0  0  0  0  0  0  0
   -2.9480   -2.3226    1.1450 H   0  0  0  0  0  0  0  0  0  0  0  0
   -5.7020    0.8866    1.9472 H   0  0  0  0  0  0  0  0  0  0  0  0
   -3.8217    2.5219    1.8507 H   0  0  0  0  0  0  0  0  0  0  0  0
   -1.5058    1.7260    1.4257 H   0  0  0  0  0  0  0  0  0  0  0  0
   -5.2606   -2.3252   -0.3858 H   0  0  0  0  0  0  0  0  0  0  0  0
   -7.3973   -3.5389    1.3670 H   0  0  0  0  0  0  0  0  0  0  0  0
   -6.5714   -4.4034    0.0372 H   0  0  0  0  0  0  0  0  0  0  0  0
   -7.6903   -3.0420   -0.3236 H   0  0  0  0  0  0  0  0  0  0  0  0
  1  2  1  0  0  0  0
  1 39  1  0  0  0  0
  2  3  2  0  0  0  0
  4  2  2  0  0  0  0
  5  2  1  0  0  0  0
  5 32  1  0  0  0  0
  6  8  1  0  0  0  0
  6  5  1  0  0  0  0
  6  7  1  6  0  0  0
  8 23  1  0  0  0  0
  8 10  1  0  0  0  0
  8  9  1  6  0  0  0
 10 12  1  0  0  0  0
 10 11  1  1  0  0  0
 12 13  1  1  0  0  0
 12  1  1  0  0  0  0
 14 51  1  0  0  0  0
 14 12  1  0  0  0  0
 15 16  1  0  0  0  0
 15 14  1  0  0  0  0
 16 21  2  0  0  0  0
 17 18  2  0  0  0  0
 17 16  1  0  0  0  0
 18 19  1  0  0  0  0
 19 54  1  0  0  0  0
 19 20  2  0  0  0  0
 20 55  1  0  0  0  0
 21 20  1  0  0  0  0
 21 56  1  0  0  0  0
 22 10  1  0  0  0  0
 24 59  1  0  0  0  0
 24  6  1  0  0  0  0
 25 24  1  0  0  0  0
 26 25  1  0  0  0  0
 26 27  2  0  0  0  0
 27 61  1  0  0  0  0
 28 27  1  0  0  0  0
 28 62  1  0  0  0  0
 29 28  2  0  0  0  0
 30 31  2  0  0  0  0
 30 29  1  0  0  0  0
 31 26  1  0  0  0  0
 32 67  1  0  0  0  0
 32 33  1  0  0  0  0
 33 34  1  0  0  0  0
 34 68  1  0  0  0  0
 34 35  2  0  0  0  0
 35 69  1  0  0  0  0
 36 35  1  0  0  0  0
 36 70  1  0  0  0  0
 37 36  2  0  0  0  0
 38 33  2  0  0  0  0
 38 37  1  0  0  0  0
 39 40  1  0  0  0  0
 39 73  1  0  0  0  0
 40 41  2  0  0  0  0
 40 45  1  0  0  0  0
 41 42  1  0  0  0  0
 42 46  1  0  0  0  0
 42 43  2  0  0  0  0
 43 76  1  0  0  0  0
 44 43  1  0  0  0  0
 44 77  1  0  0  0  0
 45 44  2  0  0  0  0
 46 47  2  0  0  0  0
 48 46  1  0  0  0  0
 49 48  1  0  0  0  0
 49 80  1  0  0  0  0
 50 14  1  0  0  0  0
 52 17  1  0  0  0  0
 53 18  1  0  0  0  0
 57 22  1  0  0  0  0
 58 23  1  0  0  0  0
 60 24  1  0  0  0  0
 63 29  1  0  0  0  0
 64 30  1  0  0  0  0
 65 31  1  0  0  0  0
 66 32  1  0  0  0  0
 71 37  1  0  0  0  0
 72 38  1  0  0  0  0
 74 39  1  0  0  0  0
 75 41  1  0  0  0  0
 78 45  1  0  0  0  0
 79 48  1  0  0  0  0
 81 49  1  0  0  0  0
 82 49  1  0  0  0  0
M  END
$$$$
