82

N          0.38540        0.14090        0.75850
S          2.05800        0.30700        0.91260
O          2.33070        0.45910        2.33990
O          2.65300       -0.77770        0.13290
N          2.49720        1.72070        0.14710
C          2.50770        1.68750       -1.31440
H          2.61910        0.63200       -1.57660
C          1.19520        2.16560       -1.94910
H          1.10610        1.67000       -2.93560
C         -0.04280        1.81770       -1.10590
H         -0.02660        2.48280       -0.23580
C         -0.21350        0.37460       -0.55730
H         -1.29330        0.29610       -0.37610
C          0.11250       -0.72820       -1.57730
O         -0.67260       -0.52660       -2.74850
C         -1.99590       -0.87480       -2.75770
C         -2.72310       -0.45980       -3.88410
C         -4.08260       -0.74780       -3.98240
C         -4.73440       -1.45170       -2.96330
C         -4.00510       -1.86770       -1.84920
C         -2.63910       -1.58530       -1.73540
O         -1.20270        2.22040       -1.83980
O          1.22450        3.57140       -2.11240
C          3.74800        2.38830       -1.88490
O          3.88680        2.10490       -3.26300
C          4.28470        0.86430       -3.66330
C          4.67660       -0.16940       -2.79780
C          5.06720       -1.40270       -3.33300
C          5.07680       -1.61980       -4.71050
C          4.68630       -0.58260       -5.56700
C          4.29110        0.64850       -5.05130
C          2.42330        3.00160        0.86220
C          3.78940        3.59060        1.13640
C          4.08460        4.90490        0.75790
C          5.34690        5.45120        1.01100
C          6.32590        4.68210        1.64330
C          6.03620        3.36700        2.02510
C          4.77570        2.82400        1.77430
C         -0.46370        0.30690        1.95360
C         -0.86390        1.73530        2.25240
C         -1.86170        2.35770        1.49120
C         -2.15660        3.71530        1.64990
C         -1.49520        4.44590        2.64730
C         -0.52340        3.82970        3.43520
C         -0.19640        2.48450        3.23050
C         -3.17300        4.42470        0.79300
O         -3.78960        5.39460        1.21080
N         -3.33030        3.91060       -0.46200
C         -4.24860        4.49860       -1.41150
H          1.15380       -0.70590       -1.91290
H         -0.05770       -1.71840       -1.12980
H         -2.19620        0.07600       -4.67690
H         -4.63760       -0.42130       -4.86510
H         -5.80030       -1.67450       -3.04000
H         -4.49950       -2.42180       -1.04770
H         -2.09410       -1.92710       -0.85600
H         -1.32010        1.59430       -2.57120
H          0.33800        3.83370       -2.40150
H          4.63490        2.07670       -1.31100
H          3.65250        3.47700       -1.81370
H          4.67040       -0.04490       -1.71570
H          5.36290       -2.20170       -2.64880
H          5.38240       -2.58650       -5.11600
H          4.68880       -0.73530       -6.64920
H          3.98340        1.46980       -5.70130
H          1.89000        2.83660        1.80710
H          1.82330        3.70380        0.26720
H          3.32210        5.50280        0.25090
H          5.56680        6.47710        0.70600
H          7.31480        5.10430        1.83750
H          6.79820        2.76190        2.52260
H          4.54420        1.79920        2.07210
H          0.07500       -0.12910        2.80190
H         -1.35950       -0.30970        1.77760
H         -2.41890        1.77710        0.75370
H         -1.76290        5.49500        2.78490
H         -0.00570        4.40130        4.20910
H          0.58770        2.00960        3.82430
H         -2.65220        3.23980       -0.81950
H         -4.91490        5.18060       -0.86790
H         -4.84990        3.72010       -1.90860
H         -3.72150        5.07870       -2.19010
