rmsd231.gzmat
 OpenBabel08211713423D

 82 86  0  0  1  0  0  0  0  0999 V2000
    0.0000    0.0000    0.0000 N   0  0  0  0  0  0  0  0  0  0  0  0
    1.7433    0.0000    0.0000 S   0  0  0  0  0  0  0  0  0  0  0  0
    2.1385    0.0000    1.3883 O   0  0  0  0  0  0  0  0  0  0  0  0
    2.1193   -1.0390   -0.9241 O   0  0  0  0  0  0  0  0  0  0  0  0
    2.2361    1.4812   -0.7221 N   0  0  0  0  0  0  0  0  0  0  0  0
    2.0162    1.6466   -2.1560 C   0  0  1  0  0  0  0  0  0  0  0  0
    2.0453    0.6219   -2.6452 H   0  0  0  0  0  0  0  0  0  0  0  0
    0.6465    2.2884   -2.5018 C   0  0  1  0  0  0  0  0  0  0  0  0
    0.3934    2.0741   -3.5670 H   0  0  0  0  0  0  0  0  0  0  0  0
   -0.5273    1.9187   -1.5693 C   0  0  2  0  0  0  0  0  0  0  0  0
   -0.4863    2.5598   -0.6507 H   0  0  0  0  0  0  0  0  0  0  0  0
   -0.7491    0.4343   -1.1728 C   0  0  1  0  0  0  0  0  0  0  0  0
   -1.8556    0.3728   -0.9157 H   0  0  0  0  0  0  0  0  0  0  0  0
   -0.5216   -0.5500   -2.3435 C   0  0  0  0  0  0  0  0  0  0  0  0
   -1.6544   -0.4970   -3.1997 O   0  0  0  0  0  0  0  0  0  0  0  0
   -2.7971   -1.1239   -2.7991 C   0  0  0  0  0  0  0  0  0  0  0  0
   -3.8721   -0.8989   -3.6712 C   0  0  0  0  0  0  0  0  0  0  0  0
   -5.0982   -1.4788   -3.3751 C   0  0  0  0  0  0  0  0  0  0  0  0
   -5.2511   -2.2668   -2.2313 C   0  0  0  0  0  0  0  0  0  0  0  0
   -4.1694   -2.4816   -1.3819 C   0  0  0  0  0  0  0  0  0  0  0  0
   -2.9271   -1.9109   -1.6562 C   0  0  0  0  0  0  0  0  0  0  0  0
   -1.7015    2.3771   -2.2094 O   0  0  0  0  0  0  0  0  0  0  0  0
    0.8248    3.6884   -2.3808 O   0  0  0  0  0  0  0  0  0  0  0  0
    3.1662    2.4583   -2.8031 C   0  0  0  0  0  0  0  0  0  0  0  0
    3.4180    1.9497   -4.1030 O   0  0  0  0  0  0  0  0  0  0  0  0
    4.1882    0.8326   -4.2264 C   0  0  0  0  0  0  0  0  0  0  0  0
    4.6834    0.0688   -3.1709 C   0  0  0  0  0  0  0  0  0  0  0  0
    5.4452   -1.0594   -3.4682 C   0  0  0  0  0  0  0  0  0  0  0  0
    5.7104   -1.4099   -4.7900 C   0  0  0  0  0  0  0  0  0  0  0  0
    5.2070   -0.6302   -5.8337 C   0  0  0  0  0  0  0  0  0  0  0  0
    4.4413    0.4965   -5.5643 C   0  0  0  0  0  0  0  0  0  0  0  0
    2.4439    2.7003    0.0735 C   0  0  0  0  0  0  0  0  0  0  0  0
    3.9159    2.9484    0.3036 C   0  0  0  0  0  0  0  0  0  0  0  0
    4.5065    4.1042   -0.2107 C   0  0  0  0  0  0  0  0  0  0  0  0
    5.8623    4.3457   -0.0030 C   0  0  0  0  0  0  0  0  0  0  0  0
    6.6311    3.4342    0.7188 C   0  0  0  0  0  0  0  0  0  0  0  0
    6.0367    2.2904    1.2486 C   0  0  0  0  0  0  0  0  0  0  0  0
    4.6789    2.0502    1.0497 C   0  0  0  0  0  0  0  0  0  0  0  0
   -0.7117    0.1038    1.2813 C   0  0  0  0  0  0  0  0  0  0  0  0
   -0.8495    1.5236    1.7705 C   0  0  0  0  0  0  0  0  0  0  0  0
    0.1550    2.0775    2.5621 C   0  0  0  0  0  0  0  0  0  0  0  0
    0.0701    3.4162    2.9364 C   0  0  0  0  0  0  0  0  0  0  0  0
   -1.0195    4.1980    2.5594 C   0  0  0  0  0  0  0  0  0  0  0  0
   -2.0437    3.6252    1.8069 C   0  0  0  0  0  0  0  0  0  0  0  0
   -1.9582    2.2921    1.4118 C   0  0  0  0  0  0  0  0  0  0  0  0
    1.2014    4.0521    3.6648 C   0  0  0  0  0  0  0  0  0  0  0  0
    1.9910    4.7947    3.1118 O   0  0  0  0  0  0  0  0  0  0  0  0
    1.3676    3.7868    5.0058 N   0  0  0  0  0  0  0  0  0  0  0  0
    0.4481    2.9643    5.7848 C   0  0  0  0  0  0  0  0  0  0  0  0
    0.2890   -0.2617   -3.0389 H   0  0  0  0  0  0  0  0  0  0  0  0
   -0.3156   -1.5809   -1.9967 H   0  0  0  0  0  0  0  0  0  0  0  0
   -3.7326   -0.2868   -4.5583 H   0  0  0  0  0  0  0  0  0  0  0  0
   -5.9480   -1.3182   -4.0388 H   0  0  0  0  0  0  0  0  0  0  0  0
   -6.2159   -2.7146   -2.0085 H   0  0  0  0  0  0  0  0  0  0  0  0
   -4.2906   -3.1020   -0.4943 H   0  0  0  0  0  0  0  0  0  0  0  0
   -2.0863   -2.0936   -0.9920 H   0  0  0  0  0  0  0  0  0  0  0  0
   -1.9776    1.7507   -2.9167 H   0  0  0  0  0  0  0  0  0  0  0  0
   -0.0321    4.1482   -2.5247 H   0  0  0  0  0  0  0  0  0  0  0  0
    4.0814    2.4545   -2.1842 H   0  0  0  0  0  0  0  0  0  0  0  0
    2.8902    3.5086   -3.0293 H   0  0  0  0  0  0  0  0  0  0  0  0
    4.4781    0.3242   -2.1337 H   0  0  0  0  0  0  0  0  0  0  0  0
    5.8293   -1.6739   -2.6544 H   0  0  0  0  0  0  0  0  0  0  0  0
    6.3060   -2.2908   -5.0102 H   0  0  0  0  0  0  0  0  0  0  0  0
    5.4162   -0.9074   -6.8661 H   0  0  0  0  0  0  0  0  0  0  0  0
    4.0419    1.1160   -6.3616 H   0  0  0  0  0  0  0  0  0  0  0  0
    1.9337    2.6351    1.0646 H   0  0  0  0  0  0  0  0  0  0  0  0
    1.9682    3.5768   -0.4379 H   0  0  0  0  0  0  0  0  0  0  0  0
    3.9083    4.8244   -0.7661 H   0  0  0  0  0  0  0  0  0  0  0  0
    6.3213    5.2474   -0.4024 H   0  0  0  0  0  0  0  0  0  0  0  0
    7.6912    3.6184    0.8720 H   0  0  0  0  0  0  0  0  0  0  0  0
    6.6319    1.5850    1.8227 H   0  0  0  0  0  0  0  0  0  0  0  0
    4.2156    1.1637    1.4872 H   0  0  0  0  0  0  0  0  0  0  0  0
   -0.1747   -0.5200    2.0429 H   0  0  0  0  0  0  0  0  0  0  0  0
   -1.7154   -0.3747    1.1726 H   0  0  0  0  0  0  0  0  0  0  0  0
    1.0161    1.4700    2.8693 H   0  0  0  0  0  0  0  0  0  0  0  0
   -1.0638    5.2507    2.8401 H   0  0  0  0  0  0  0  0  0  0  0  0
   -2.9044    4.2252    1.5137 H   0  0  0  0  0  0  0  0  0  0  0  0
   -2.7550    1.8574    0.8084 H   0  0  0  0  0  0  0  0  0  0  0  0
    2.1312    4.2268    5.4997 H   0  0  0  0  0  0  0  0  0  0  0  0
    0.0474    2.1254    5.1879 H   0  0  0  0  0  0  0  0  0  0  0  0
   -0.4084    3.5603    6.1499 H   0  0  0  0  0  0  0  0  0  0  0  0
    0.9682    2.5311    6.6569 H   0  0  0  0  0  0  0  0  0  0  0  0
  1  2  1  0  0  0  0
  1 39  1  0  0  0  0
  2  3  2  0  0  0  0
  4  2  2  0  0  0  0
  5  2  1  0  0  0  0
  5 32  1  0  0  0  0
  6  8  1  0  0  0  0
  6  5  1  0  0  0  0
  6  7  1  6  0  0  0
  8 23  1  0  0  0  0
  8 10  1  0  0  0  0
  8  9  1  6  0  0  0
 10 12  1  0  0  0  0
 10 11  1  1  0  0  0
 12 13  1  1  0  0  0
 12  1  1  0  0  0  0
 14 51  1  0  0  0  0
 14 12  1  0  0  0  0
 15 16  1  0  0  0  0
 15 14  1  0  0  0  0
 16 21  2  0  0  0  0
 17 18  2  0  0  0  0
 17 16  1  0  0  0  0
 18 19  1  0  0  0  0
 19 54  1  0  0  0  0
 19 20  2  0  0  0  0
 20 55  1  0  0  0  0
 21 20  1  0  0  0  0
 21 56  1  0  0  0  0
 22 10  1  0  0  0  0
 24 59  1  0  0  0  0
 24  6  1  0  0  0  0
 25 24  1  0  0  0  0
 26 25  1  0  0  0  0
 26 27  2  0  0  0  0
 27 61  1  0  0  0  0
 28 27  1  0  0  0  0
 28 62  1  0  0  0  0
 29 28  2  0  0  0  0
 30 31  2  0  0  0  0
 30 29  1  0  0  0  0
 31 26  1  0  0  0  0
 32 33  1  0  0  0  0
 32 66  1  0  0  0  0
 33 38  2  0  0  0  0
 34 35  2  0  0  0  0
 34 33  1  0  0  0  0
 35 36  1  0  0  0  0
 36 70  1  0  0  0  0
 36 37  2  0  0  0  0
 37 71  1  0  0  0  0
 38 37  1  0  0  0  0
 38 72  1  0  0  0  0
 39 40  1  0  0  0  0
 39 73  1  0  0  0  0
 40 41  1  0  0  0  0
 41 75  1  0  0  0  0
 41 42  2  0  0  0  0
 42 46  1  0  0  0  0
 43 76  1  0  0  0  0
 43 42  1  0  0  0  0
 44 43  2  0  0  0  0
 45 40  2  0  0  0  0
 45 44  1  0  0  0  0
 46 48  1  0  0  0  0
 47 46  2  0  0  0  0
 48 79  1  0  0  0  0
 48 49  1  0  0  0  0
 49 81  1  0  0  0  0
 49 82  1  0  0  0  0
 50 14  1  0  0  0  0
 52 17  1  0  0  0  0
 53 18  1  0  0  0  0
 57 22  1  0  0  0  0
 58 23  1  0  0  0  0
 60 24  1  0  0  0  0
 63 29  1  0  0  0  0
 64 30  1  0  0  0  0
 65 31  1  0  0  0  0
 67 32  1  0  0  0  0
 68 34  1  0  0  0  0
 69 35  1  0  0  0  0
 74 39  1  0  0  0  0
 77 44  1  0  0  0  0
 78 45  1  0  0  0  0
 80 49  1  0  0  0  0
M  END
$$$$
