rmsd43.gzmat
 OpenBabel08211713423D

 82 86  0  0  1  0  0  0  0  0999 V2000
    0.0000    0.0000    0.0000 N   0  0  0  0  0  0  0  0  0  0  0  0
    1.7498    0.0000    0.0000 S   0  0  0  0  0  0  0  0  0  0  0  0
    2.2479    0.0000    1.3561 O   0  0  0  0  0  0  0  0  0  0  0  0
    2.1494   -1.0292   -0.9286 O   0  0  0  0  0  0  0  0  0  0  0  0
    2.1351    1.5125   -0.7269 N   0  0  0  0  0  0  0  0  0  0  0  0
    1.9806    1.6015   -2.1780 C   0  0  1  0  0  0  0  0  0  0  0  0
    2.2382    0.5898   -2.6266 H   0  0  0  0  0  0  0  0  0  0  0  0
    0.5623    1.9811   -2.6759 C   0  0  1  0  0  0  0  0  0  0  0  0
    0.4626    1.6658   -3.7430 H   0  0  0  0  0  0  0  0  0  0  0  0
   -0.6468    1.4874   -1.8496 C   0  0  2  0  0  0  0  0  0  0  0  0
   -0.8472    2.2037   -1.0107 H   0  0  0  0  0  0  0  0  0  0  0  0
   -0.6699    0.0357   -1.3042 C   0  0  1  0  0  0  0  0  0  0  0  0
   -1.7750   -0.1774   -1.1355 H   0  0  0  0  0  0  0  0  0  0  0  0
   -0.1793   -1.0148   -2.3241 C   0  0  0  0  0  0  0  0  0  0  0  0
   -1.1645   -1.1388   -3.3404 O   0  0  0  0  0  0  0  0  0  0  0  0
   -2.2574   -1.9151   -3.0915 C   0  0  0  0  0  0  0  0  0  0  0  0
   -3.2102   -1.8580   -4.1193 C   0  0  0  0  0  0  0  0  0  0  0  0
   -4.3655   -2.6173   -3.9935 C   0  0  0  0  0  0  0  0  0  0  0  0
   -4.5687   -3.4175   -2.8657 C   0  0  0  0  0  0  0  0  0  0  0  0
   -3.6096   -3.4605   -1.8586 C   0  0  0  0  0  0  0  0  0  0  0  0
   -2.4410   -2.7054   -1.9588 C   0  0  0  0  0  0  0  0  0  0  0  0
   -1.7772    1.6603   -2.6792 O   0  0  0  0  0  0  0  0  0  0  0  0
    0.4953    3.3973   -2.6336 O   0  0  0  0  0  0  0  0  0  0  0  0
    3.0158    2.6011   -2.7522 C   0  0  0  0  0  0  0  0  0  0  0  0
    3.1803    2.3320   -4.1333 O   0  0  0  0  0  0  0  0  0  0  0  0
    4.0337    1.3410   -4.5098 C   0  0  0  0  0  0  0  0  0  0  0  0
    4.7505    0.5099   -3.6514 C   0  0  0  0  0  0  0  0  0  0  0  0
    5.5910   -0.4518   -4.2110 C   0  0  0  0  0  0  0  0  0  0  0  0
    5.7086   -0.5766   -5.5927 C   0  0  0  0  0  0  0  0  0  0  0  0
    4.9766    0.2634   -6.4360 C   0  0  0  0  0  0  0  0  0  0  0  0
    4.1318    1.2277   -5.9053 C   0  0  0  0  0  0  0  0  0  0  0  0
    1.9632    2.7588    0.0382 C   0  0  0  0  0  0  0  0  0  0  0  0
    3.3013    3.4353    0.2308 C   0  0  0  0  0  0  0  0  0  0  0  0
    3.5088    4.7200   -0.2744 C   0  0  0  0  0  0  0  0  0  0  0  0
    4.7285    5.3609   -0.0673 C   0  0  0  0  0  0  0  0  0  0  0  0
    5.7442    4.7189    0.6387 C   0  0  0  0  0  0  0  0  0  0  0  0
    5.5401    3.4319    1.1338 C   0  0  0  0  0  0  0  0  0  0  0  0
    4.3195    2.7911    0.9346 C   0  0  0  0  0  0  0  0  0  0  0  0
   -0.7117   -0.8219    1.0049 C   0  0  0  0  0  0  0  0  0  0  0  0
   -0.5948   -0.1580    2.3510 C   0  0  0  0  0  0  0  0  0  0  0  0
    0.4281   -0.5614    3.2061 C   0  0  0  0  0  0  0  0  0  0  0  0
    0.6454    0.1348    4.3928 C   0  0  0  0  0  0  0  0  0  0  0  0
   -0.2221    1.1480    4.7936 C   0  0  0  0  0  0  0  0  0  0  0  0
   -1.2859    1.5025    3.9644 C   0  0  0  0  0  0  0  0  0  0  0  0
   -1.4568    0.8707    2.7330 C   0  0  0  0  0  0  0  0  0  0  0  0
    1.8616   -0.1683    5.1995 C   0  0  0  0  0  0  0  0  0  0  0  0
    1.8581   -0.3035    6.4077 O   0  0  0  0  0  0  0  0  0  0  0  0
    3.0100   -0.2579    4.4490 N   0  0  0  0  0  0  0  0  0  0  0  0
    4.2991   -0.5184    5.0806 C   0  0  0  0  0  0  0  0  0  0  0  0
    0.7076   -0.7111   -2.9147 H   0  0  0  0  0  0  0  0  0  0  0  0
    0.0581   -1.9881   -1.8570 H   0  0  0  0  0  0  0  0  0  0  0  0
   -3.0334   -1.2362   -4.9928 H   0  0  0  0  0  0  0  0  0  0  0  0
   -5.1193   -2.5903   -4.7809 H   0  0  0  0  0  0  0  0  0  0  0  0
   -5.4760   -4.0100   -2.7788 H   0  0  0  0  0  0  0  0  0  0  0  0
   -3.7677   -4.0905   -0.9831 H   0  0  0  0  0  0  0  0  0  0  0  0
   -1.6950   -2.7587   -1.1736 H   0  0  0  0  0  0  0  0  0  0  0  0
   -1.8425    0.9312   -3.3375 H   0  0  0  0  0  0  0  0  0  0  0  0
   -0.3561    3.6991   -3.0206 H   0  0  0  0  0  0  0  0  0  0  0  0
    3.9724    2.5697   -2.2031 H   0  0  0  0  0  0  0  0  0  0  0  0
    2.6479    3.6477   -2.7711 H   0  0  0  0  0  0  0  0  0  0  0  0
    4.6678    0.5930   -2.5711 H   0  0  0  0  0  0  0  0  0  0  0  0
    6.1584   -1.1124   -3.5562 H   0  0  0  0  0  0  0  0  0  0  0  0
    6.3698   -1.3269   -6.0167 H   0  0  0  0  0  0  0  0  0  0  0  0
    5.0710    0.1630   -7.5167 H   0  0  0  0  0  0  0  0  0  0  0  0
    3.5546    1.8940   -6.5402 H   0  0  0  0  0  0  0  0  0  0  0  0
    1.5142    2.5600    1.0425 H   0  0  0  0  0  0  0  0  0  0  0  0
    1.2459    3.4425   -0.4836 H   0  0  0  0  0  0  0  0  0  0  0  0
    2.7217    5.2256   -0.8318 H   0  0  0  0  0  0  0  0  0  0  0  0
    4.8897    6.3638   -0.4584 H   0  0  0  0  0  0  0  0  0  0  0  0
    6.6941    5.2228    0.8048 H   0  0  0  0  0  0  0  0  0  0  0  0
    6.3348    2.9287    1.6799 H   0  0  0  0  0  0  0  0  0  0  0  0
    4.1586    1.7863    1.3284 H   0  0  0  0  0  0  0  0  0  0  0  0
   -0.3272   -1.8688    1.0375 H   0  0  0  0  0  0  0  0  0  0  0  0
   -1.7895   -0.9122    0.7241 H   0  0  0  0  0  0  0  0  0  0  0  0
    1.0787   -1.3962    2.9361 H   0  0  0  0  0  0  0  0  0  0  0  0
   -0.0596    1.6571    5.7452 H   0  0  0  0  0  0  0  0  0  0  0  0
   -1.9759    2.2848    4.2736 H   0  0  0  0  0  0  0  0  0  0  0  0
   -2.2592    1.1869    2.0690 H   0  0  0  0  0  0  0  0  0  0  0  0
    2.9921   -0.1315    3.4399 H   0  0  0  0  0  0  0  0  0  0  0  0
    4.2227   -0.4434    6.1837 H   0  0  0  0  0  0  0  0  0  0  0  0
    5.0487    0.2137    4.7349 H   0  0  0  0  0  0  0  0  0  0  0  0
    4.6540   -1.5354    4.8384 H   0  0  0  0  0  0  0  0  0  0  0  0
  1  2  1  0  0  0  0
  1 39  1  0  0  0  0
  2  3  2  0  0  0  0
  4  2  2  0  0  0  0
  5  2  1  0  0  0  0
  5 32  1  0  0  0  0
  6  8  1  0  0  0  0
  6  5  1  0  0  0  0
  6  7  1  6  0  0  0
  8 23  1  0  0  0  0
  8 10  1  0  0  0  0
  8  9  1  6  0  0  0
 10 12  1  0  0  0  0
 10 11  1  1  0  0  0
 12 13  1  1  0  0  0
 12  1  1  0  0  0  0
 14 51  1  0  0  0  0
 14 12  1  0  0  0  0
 15 16  1  0  0  0  0
 15 14  1  0  0  0  0
 16 21  2  0  0  0  0
 17 18  2  0  0  0  0
 17 16  1  0  0  0  0
 18 19  1  0  0  0  0
 19 54  1  0  0  0  0
 19 20  2  0  0  0  0
 20 55  1  0  0  0  0
 21 20  1  0  0  0  0
 21 56  1  0  0  0  0
 22 10  1  0  0  0  0
 24 59  1  0  0  0  0
 24  6  1  0  0  0  0
 25 24  1  0  0  0  0
 26 25  1  0  0  0  0
 26 27  2  0  0  0  0
 27 61  1  0  0  0  0
 28 27  1  0  0  0  0
 28 62  1  0  0  0  0
 29 28  2  0  0  0  0
 30 31  2  0  0  0  0
 30 29  1  0  0  0  0
 31 26  1  0  0  0  0
 32 33  1  0  0  0  0
 32 66  1  0  0  0  0
 33 38  2  0  0  0  0
 34 35  2  0  0  0  0
 34 33  1  0  0  0  0
 35 36  1  0  0  0  0
 36 70  1  0  0  0  0
 36 37  2  0  0  0  0
 37 71  1  0  0  0  0
 38 37  1  0  0  0  0
 38 72  1  0  0  0  0
 39 73  1  0  0  0  0
 39 40  1  0  0  0  0
 40 45  2  0  0  0  0
 40 41  1  0  0  0  0
 41 42  2  0  0  0  0
 42 43  1  0  0  0  0
 42 46  1  0  0  0  0
 43 76  1  0  0  0  0
 44 77  1  0  0  0  0
 44 43  2  0  0  0  0
 45 44  1  0  0  0  0
 46 47  2  0  0  0  0
 48 49  1  0  0  0  0
 48 46  1  0  0  0  0
 49 80  1  0  0  0  0
 50 14  1  0  0  0  0
 52 17  1  0  0  0  0
 53 18  1  0  0  0  0
 57 22  1  0  0  0  0
 58 23  1  0  0  0  0
 60 24  1  0  0  0  0
 63 29  1  0  0  0  0
 64 30  1  0  0  0  0
 65 31  1  0  0  0  0
 67 32  1  0  0  0  0
 68 34  1  0  0  0  0
 69 35  1  0  0  0  0
 74 39  1  0  0  0  0
 75 41  1  0  0  0  0
 78 45  1  0  0  0  0
 79 48  1  0  0  0  0
 81 49  1  0  0  0  0
 82 49  1  0  0  0  0
M  END
$$$$
