42
rmsd9.gzmat
S          0.00000        0.00000        0.00000
C          1.66170        0.00000        0.00000
N          2.50910        0.00000        1.10950
C          3.85060        0.02300        0.69560
C          3.85750        0.03330       -0.68340
N          2.51220        0.03290       -1.10710
C          2.08630       -0.08020       -2.46260
C          1.29680        0.93040       -3.02040
C          0.87800        0.80100       -4.34210
C          1.24340       -0.31670       -5.09070
C          2.03340       -1.31610       -4.52320
C          2.46070       -1.20660       -3.20350
C          5.00390        0.04320       -1.62750
H          4.79500        0.64920       -2.54160
O          5.19370       -1.29620       -2.11590
C          6.45960       -1.78940       -1.65090
C          7.12960       -0.63190       -0.96560
C          6.30100        0.41840       -0.94880
C          2.10960       -0.03780        2.47440
C          1.32810       -1.09890        2.94240
C          0.97270       -1.13150        4.28700
C          1.38810       -0.11920        5.15600
C          2.16310        0.93910        4.67070
C          2.52640        0.98800        3.33000
C          0.99710       -0.15350        6.59370
H          4.66600        0.02030        1.39270
H          1.00140        1.79680       -2.42730
H          0.25510        1.57550       -4.78710
H          0.90460       -0.41360       -6.12040
H          2.31460       -2.18990       -5.10900
H          3.07720       -1.98540       -2.75080
H          6.98550       -2.14250       -2.55410
H          6.24590       -2.63680       -0.97630
H          8.12500       -0.71280       -0.57390
H          6.45180        1.39990       -0.54360
H          0.99530       -1.88570        2.26200
H          0.36260       -1.95300        4.65940
H          2.47860        1.73300        5.34430
H          3.11610        1.81850        2.94580
H          1.81780        0.15870        7.25430
H          0.68440       -1.15330        6.92460
H          0.15200        0.52690        6.78610
