42

S         -0.01190       -0.23320       -0.02560
C          1.64940       -0.12150       -0.02720
N          2.50550       -0.04780        1.06670
C          3.82420        0.06200        0.63900
C          3.83290        0.05000       -0.71770
N          2.49700       -0.06520       -1.12830
C          2.06170       -0.11970       -2.48620
C          1.11650        0.80160       -2.95250
C          0.70480        0.74850       -4.28400
C          1.23420       -0.21390       -5.15000
C          2.17860       -1.12810       -4.67810
C          2.59020       -1.09090       -3.34340
C          5.00520        0.08830       -1.65320
H          4.70980        0.62940       -2.56970
O          5.42210       -1.23100       -2.04100
C          6.67560       -1.54780       -1.45200
C          7.16990       -0.25150       -0.87270
C          6.23020        0.68560       -1.00310
C          2.12270       -0.01450        2.43640
C          1.19830       -0.93260        2.95040
C          0.87100       -0.89300        4.30320
C          1.44930        0.04470        5.17510
C          2.37570        0.95010        4.64210
C          2.70690        0.93000        3.28570
C          1.06430        0.07910        6.63190
H          4.65220        0.11390        1.33740
H          0.70200        1.53910       -2.26640
H         -0.03550        1.46510       -4.64720
H          0.90870       -0.25060       -6.19230
H          2.59640       -1.88310       -5.34810
H          3.33230       -1.79500       -2.96690
H          7.35030       -1.95340       -2.22900
H          6.56580       -2.33060       -0.67340
H          8.15440       -0.12830       -0.41790
H          6.28180        1.72430       -0.67650
H          0.73770       -1.66050        2.28480
H          0.14850       -1.61450        4.69450
H          2.83990        1.69420        5.29450
H          3.41130        1.66010        2.88250
H          1.72090        0.74680        7.20860
H          1.11560       -0.92450        7.08400
H          0.02830        0.43680        6.75920
