42
rmsd41.gzmat
S          0.00000        0.00000        0.00000
C          1.66230        0.00000        0.00000
N          2.51830        0.00000        1.10360
C          3.85700       -0.03870        0.67890
C          3.85350       -0.03880       -0.70010
N          2.50480       -0.00620       -1.11190
C          2.06880       -0.07380       -2.46650
C          1.30720        0.97520       -2.99160
C          0.88970        0.90020       -4.31740
C          1.22980       -0.20090       -5.10180
C          1.98850       -1.24040       -4.56510
C          2.41200       -1.18750       -3.24040
C          4.98310       -0.06460       -1.66330
H          4.74830        0.49190       -2.60340
O          5.17840       -1.42540       -2.08590
C          6.47210       -1.86980       -1.64920
C          7.13860       -0.67130       -1.03460
C          6.28970        0.36270       -1.03730
C          2.11850       -0.02230        2.46780
C          1.25600        0.96350        2.95720
C          0.86640        0.91830        4.29200
C          1.34150       -0.08940        5.13450
C          2.21050       -1.06380        4.63260
C          2.60120       -1.04000        3.29940
C          0.91630       -0.14210        6.56170
H          4.67790       -0.04890        1.36980
H          1.03480        1.82890       -2.37040
H          0.28930        1.70510       -4.73810
H          0.89690       -0.25190       -6.13650
H          2.24810       -2.10090       -5.17980
H          2.99920       -2.00010       -2.80800
H          6.97530       -2.24660       -2.55560
H          6.30170       -2.69420       -0.93550
H          8.14730       -0.71670       -0.67190
H          6.43020        1.36410       -0.67980
H          0.88380        1.75280        2.30180
H          0.17960        1.67190        4.67440
H          2.57580       -1.85250        5.28680
H          3.26100       -1.80980        2.90240
H          1.75500       -0.37050        7.23380
H          0.15630       -0.92510        6.71430
H          0.47680        0.80240        6.90980
