
     RDKit          3D

 42 45  0  0  0  0  0  0  0  0999 V2000
   -0.0119   -0.2332   -0.0256 S   0  0  0  0  0  0  0  0  0  0  0  0
    1.6494   -0.1215   -0.0272 C   0  0  0  0  0  0  0  0  0  0  0  0
    2.5055   -0.0478    1.0667 N   0  0  0  0  0  0  0  0  0  0  0  0
    3.8242    0.0620    0.6390 C   0  0  0  0  0  0  0  0  0  0  0  0
    3.8329    0.0500   -0.7177 C   0  0  0  0  0  0  0  0  0  0  0  0
    2.4970   -0.0652   -1.1283 N   0  0  0  0  0  0  0  0  0  0  0  0
    2.0617   -0.1197   -2.4862 C   0  0  0  0  0  0  0  0  0  0  0  0
    1.1165    0.8016   -2.9525 C   0  0  0  0  0  0  0  0  0  0  0  0
    0.7048    0.7485   -4.2840 C   0  0  0  0  0  0  0  0  0  0  0  0
    1.2342   -0.2139   -5.1500 C   0  0  0  0  0  0  0  0  0  0  0  0
    2.1786   -1.1281   -4.6781 C   0  0  0  0  0  0  0  0  0  0  0  0
    2.5902   -1.0909   -3.3434 C   0  0  0  0  0  0  0  0  0  0  0  0
    5.0052    0.0883   -1.6532 C   0  0  2  0  0  0  0  0  0  0  0  0
    4.7098    0.6294   -2.5697 H   0  0  0  0  0  0  0  0  0  0  0  0
    5.4221   -1.2310   -2.0410 O   0  0  0  0  0  0  0  0  0  0  0  0
    6.6756   -1.5478   -1.4520 C   0  0  0  0  0  0  0  0  0  0  0  0
    7.1699   -0.2515   -0.8727 C   0  0  0  0  0  0  0  0  0  0  0  0
    6.2302    0.6856   -1.0031 C   0  0  0  0  0  0  0  0  0  0  0  0
    2.1227   -0.0145    2.4364 C   0  0  0  0  0  0  0  0  0  0  0  0
    1.1983   -0.9326    2.9504 C   0  0  0  0  0  0  0  0  0  0  0  0
    0.8710   -0.8930    4.3032 C   0  0  0  0  0  0  0  0  0  0  0  0
    1.4493    0.0447    5.1751 C   0  0  0  0  0  0  0  0  0  0  0  0
    2.3757    0.9501    4.6421 C   0  0  0  0  0  0  0  0  0  0  0  0
    2.7069    0.9300    3.2857 C   0  0  0  0  0  0  0  0  0  0  0  0
    1.0643    0.0791    6.6319 C   0  0  0  0  0  0  0  0  0  0  0  0
    4.6522    0.1139    1.3374 H   0  0  0  0  0  0  0  0  0  0  0  0
    0.7020    1.5391   -2.2664 H   0  0  0  0  0  0  0  0  0  0  0  0
   -0.0355    1.4651   -4.6472 H   0  0  0  0  0  0  0  0  0  0  0  0
    0.9087   -0.2506   -6.1923 H   0  0  0  0  0  0  0  0  0  0  0  0
    2.5964   -1.8831   -5.3481 H   0  0  0  0  0  0  0  0  0  0  0  0
    3.3323   -1.7950   -2.9669 H   0  0  0  0  0  0  0  0  0  0  0  0
    7.3503   -1.9534   -2.2290 H   0  0  0  0  0  0  0  0  0  0  0  0
    6.5658   -2.3306   -0.6734 H   0  0  0  0  0  0  0  0  0  0  0  0
    8.1544   -0.1283   -0.4179 H   0  0  0  0  0  0  0  0  0  0  0  0
    6.2818    1.7243   -0.6765 H   0  0  0  0  0  0  0  0  0  0  0  0
    0.7377   -1.6605    2.2848 H   0  0  0  0  0  0  0  0  0  0  0  0
    0.1485   -1.6145    4.6945 H   0  0  0  0  0  0  0  0  0  0  0  0
    2.8399    1.6942    5.2945 H   0  0  0  0  0  0  0  0  0  0  0  0
    3.4113    1.6601    2.8825 H   0  0  0  0  0  0  0  0  0  0  0  0
    1.7209    0.7468    7.2086 H   0  0  0  0  0  0  0  0  0  0  0  0
    1.1156   -0.9245    7.0840 H   0  0  0  0  0  0  0  0  0  0  0  0
    0.0283    0.4368    6.7592 H   0  0  0  0  0  0  0  0  0  0  0  0
  1  2  2  0
  2  3  1  0
  2  6  1  0
  3  4  1  0
  3 19  1  0
  4  5  2  0
  4 26  1  0
  5  6  1  0
  5 13  1  0
  6  7  1  0
  7  8  2  0
  7 12  1  0
  8  9  1  0
  8 27  1  0
  9 10  2  0
  9 28  1  0
 10 11  1  0
 10 29  1  0
 11 12  2  0
 11 30  1  0
 12 31  1  0
 13 14  1  6
 13 15  1  0
 13 18  1  0
 15 16  1  0
 16 17  1  0
 16 32  1  0
 16 33  1  0
 17 18  2  0
 17 34  1  0
 18 35  1  0
 19 20  2  0
 19 24  1  0
 20 21  1  0
 20 36  1  0
 21 22  2  0
 21 37  1  0
 22 23  1  0
 22 25  1  0
 23 24  2  0
 23 38  1  0
 24 39  1  0
 25 40  1  0
 25 41  1  0
 25 42  1  0
M  END

