rmsd41.gzmat
 OpenBabel08211713383D

 42 45  0  0  1  0  0  0  0  0999 V2000
    0.0000    0.0000    0.0000 S   0  0  0  0  0  0  0  0  0  0  0  0
    1.6623    0.0000    0.0000 C   0  0  0  0  0  0  0  0  0  0  0  0
    2.5183    0.0000    1.1036 N   0  0  0  0  0  0  0  0  0  0  0  0
    3.8570   -0.0387    0.6789 C   0  0  0  0  0  0  0  0  0  0  0  0
    3.8535   -0.0388   -0.7001 C   0  0  0  0  0  0  0  0  0  0  0  0
    2.5048   -0.0062   -1.1119 N   0  0  0  0  0  0  0  0  0  0  0  0
    2.0688   -0.0738   -2.4665 C   0  0  0  0  0  0  0  0  0  0  0  0
    1.3072    0.9752   -2.9916 C   0  0  0  0  0  0  0  0  0  0  0  0
    0.8897    0.9002   -4.3174 C   0  0  0  0  0  0  0  0  0  0  0  0
    1.2298   -0.2009   -5.1018 C   0  0  0  0  0  0  0  0  0  0  0  0
    1.9885   -1.2404   -4.5651 C   0  0  0  0  0  0  0  0  0  0  0  0
    2.4120   -1.1875   -3.2404 C   0  0  0  0  0  0  0  0  0  0  0  0
    4.9831   -0.0646   -1.6633 C   0  0  2  0  0  0  0  0  0  0  0  0
    4.7483    0.4919   -2.6034 H   0  0  0  0  0  0  0  0  0  0  0  0
    5.1784   -1.4254   -2.0859 O   0  0  0  0  0  0  0  0  0  0  0  0
    6.4721   -1.8698   -1.6492 C   0  0  0  0  0  0  0  0  0  0  0  0
    7.1386   -0.6713   -1.0346 C   0  0  0  0  0  0  0  0  0  0  0  0
    6.2897    0.3627   -1.0373 C   0  0  0  0  0  0  0  0  0  0  0  0
    2.1185   -0.0223    2.4678 C   0  0  0  0  0  0  0  0  0  0  0  0
    1.2560    0.9635    2.9572 C   0  0  0  0  0  0  0  0  0  0  0  0
    0.8664    0.9183    4.2920 C   0  0  0  0  0  0  0  0  0  0  0  0
    1.3415   -0.0894    5.1345 C   0  0  0  0  0  0  0  0  0  0  0  0
    2.2105   -1.0638    4.6326 C   0  0  0  0  0  0  0  0  0  0  0  0
    2.6012   -1.0400    3.2994 C   0  0  0  0  0  0  0  0  0  0  0  0
    0.9163   -0.1421    6.5617 C   0  0  0  0  0  0  0  0  0  0  0  0
    4.6779   -0.0489    1.3698 H   0  0  0  0  0  0  0  0  0  0  0  0
    1.0348    1.8289   -2.3704 H   0  0  0  0  0  0  0  0  0  0  0  0
    0.2893    1.7051   -4.7381 H   0  0  0  0  0  0  0  0  0  0  0  0
    0.8969   -0.2519   -6.1365 H   0  0  0  0  0  0  0  0  0  0  0  0
    2.2481   -2.1009   -5.1798 H   0  0  0  0  0  0  0  0  0  0  0  0
    2.9992   -2.0001   -2.8080 H   0  0  0  0  0  0  0  0  0  0  0  0
    6.9753   -2.2466   -2.5556 H   0  0  0  0  0  0  0  0  0  0  0  0
    6.3017   -2.6942   -0.9355 H   0  0  0  0  0  0  0  0  0  0  0  0
    8.1473   -0.7167   -0.6719 H   0  0  0  0  0  0  0  0  0  0  0  0
    6.4302    1.3641   -0.6798 H   0  0  0  0  0  0  0  0  0  0  0  0
    0.8838    1.7528    2.3018 H   0  0  0  0  0  0  0  0  0  0  0  0
    0.1796    1.6719    4.6744 H   0  0  0  0  0  0  0  0  0  0  0  0
    2.5758   -1.8525    5.2868 H   0  0  0  0  0  0  0  0  0  0  0  0
    3.2610   -1.8098    2.9024 H   0  0  0  0  0  0  0  0  0  0  0  0
    1.7550   -0.3705    7.2338 H   0  0  0  0  0  0  0  0  0  0  0  0
    0.1563   -0.9251    6.7143 H   0  0  0  0  0  0  0  0  0  0  0  0
    0.4768    0.8024    6.9098 H   0  0  0  0  0  0  0  0  0  0  0  0
  1  2  2  0  0  0  0
  2  3  1  0  0  0  0
  3 19  1  0  0  0  0
  4  3  1  0  0  0  0
  4 26  1  0  0  0  0
  5  4  2  0  0  0  0
  6  5  1  0  0  0  0
  6  2  1  0  0  0  0
  7  6  1  0  0  0  0
  8  7  1  0  0  0  0
  8 27  1  0  0  0  0
  9  8  2  0  0  0  0
 10 11  2  0  0  0  0
 10  9  1  0  0  0  0
 11 12  1  0  0  0  0
 12 31  1  0  0  0  0
 12  7  2  0  0  0  0
 13 14  1  6  0  0  0
 13 18  1  0  0  0  0
 13  5  1  0  0  0  0
 15 13  1  0  0  0  0
 15 16  1  0  0  0  0
 16 17  1  0  0  0  0
 16 33  1  0  0  0  0
 17 34  1  0  0  0  0
 18 17  2  0  0  0  0
 18 35  1  0  0  0  0
 19 20  2  0  0  0  0
 19 24  1  0  0  0  0
 20 21  1  0  0  0  0
 21 37  1  0  0  0  0
 21 22  2  0  0  0  0
 22 25  1  0  0  0  0
 23 22  1  0  0  0  0
 23 38  1  0  0  0  0
 24 23  2  0  0  0  0
 25 41  1  0  0  0  0
 25 42  1  0  0  0  0
 25 40  1  0  0  0  0
 28  9  1  0  0  0  0
 29 10  1  0  0  0  0
 30 11  1  0  0  0  0
 32 16  1  0  0  0  0
 36 20  1  0  0  0  0
 39 24  1  0  0  0  0
M  END
$$$$
