42
rmsd40.gzmat
S          0.00000        0.00000        0.00000
C          1.66280        0.00000        0.00000
N          2.52030        0.00000        1.10270
C          3.85850        0.04030        0.67460
C          3.85320        0.05360       -0.70370
N          2.50310        0.03580       -1.11410
C          2.07480       -0.07220       -2.46850
C          1.24250        0.91450       -3.00650
C          0.83470        0.79530       -4.33250
C          1.25400       -0.28720       -5.10440
C          2.08380       -1.26420       -4.55530
C          2.50130       -1.16440       -3.23190
C          4.98420        0.07690       -1.66550
H          4.68670        0.48150       -2.66380
O          5.37350       -1.28300       -1.92490
C          6.70920       -1.48650       -1.43820
C          7.19340       -0.14160       -0.97320
C          6.20970        0.75600       -1.10080
C          2.13650       -0.00740        2.47180
C          1.23180       -0.96440        2.94450
C          0.87910       -0.95330        4.28970
C          1.42730       -0.00700        5.16050
C          2.33210        0.94130        4.67450
C          2.68980        0.94920        3.33120
C          1.03330       -0.00150        6.59750
H          4.68130        0.04330        1.36350
H          0.90970        1.75470       -2.39530
H          0.17940        1.55070       -4.76360
H          0.92830       -0.37300       -6.13910
H          2.40290       -2.11250       -5.15880
H          3.14940       -1.92560       -2.79270
H          7.27500       -1.89440       -2.29270
H          6.64400       -2.23670       -0.63160
H          8.19270       -0.00190       -0.60890
H          6.20430        1.80390       -0.87270
H          0.80070       -1.70720        2.26880
H          0.16530       -1.68680        4.66290
H          2.75440        1.68440        5.34770
H          3.38210        1.69800        2.95020
H          1.77740        0.48900        7.23830
H          0.88920       -1.01670        6.99370
H          0.08310        0.53750        6.74020
