33
rmsd76.gzmat
C          0.00000        0.00000        0.00000
C          1.37190        0.00000        0.00000
C          2.10640        0.00000        1.21190
C          1.43500       -0.00650        2.40590
C          0.02000       -0.00940        2.46380
C         -0.70350       -0.00220        1.23590
N         -2.07340        0.00490        1.23880
C         -2.70930        0.00310        2.41990
C         -1.95470        0.01460        3.67130
N         -0.64630        0.00070        3.66860
N         -4.08630       -0.04790        2.34320
S         -5.24460        0.01690        3.67610
O         -4.53960        0.61160        4.78190
O         -6.39510        0.61950        3.05450
C         -5.55870       -1.64900        4.00950
C         -4.82820       -2.32720        4.99280
C         -5.07350       -3.66190        5.26070
C         -6.07870       -4.34510        4.53630
C         -6.82330       -3.65940        3.54780
C         -6.55870       -2.32460        3.29960
N         -6.33830       -5.66810        4.79640
Cl         2.31150       -0.00240        3.86250
H         -0.57950        0.00530       -0.92390
H          1.92350        0.00330       -0.94200
H          3.19570        0.00920        1.17030
H         -2.45430        0.06870        4.65250
H         -4.46650        0.05910        1.39210
H         -4.05170       -1.80660        5.57100
H         -4.50230       -4.18450        6.02060
H         -7.59620       -4.17880        2.99220
H         -7.15360       -1.80150        2.53830
H         -7.03680       -6.16890        4.29300
H         -5.82040       -6.17480        5.48030
