rmsd21.gzmat
 OpenBabel08211713383D

 33 35  0  0  0  0  0  0  0  0999 V2000
    0.0000    0.0000    0.0000 C   0  0  0  0  0  0  0  0  0  0  0  0
    1.3719    0.0000    0.0000 C   0  0  0  0  0  0  0  0  0  0  0  0
    2.1072    0.0000    1.2112 C   0  0  0  0  0  0  0  0  0  0  0  0
    1.4362   -0.0052    2.4059 C   0  0  0  0  0  0  0  0  0  0  0  0
    0.0212   -0.0148    2.4637 C   0  0  0  0  0  0  0  0  0  0  0  0
   -0.7042   -0.0045    1.2361 C   0  0  0  0  0  0  0  0  0  0  0  0
   -2.0751   -0.0033    1.2337 N   0  0  0  0  0  0  0  0  0  0  0  0
   -2.7054   -0.0359    2.4146 C   0  0  0  0  0  0  0  0  0  0  0  0
   -1.9480   -0.0558    3.6688 C   0  0  0  0  0  0  0  0  0  0  0  0
   -0.6407   -0.0386    3.6718 N   0  0  0  0  0  0  0  0  0  0  0  0
   -4.0758   -0.0118    2.4235 N   0  0  0  0  0  0  0  0  0  0  0  0
   -5.1073   -0.0766    0.9666 S   0  0  0  0  0  0  0  0  0  0  0  0
   -4.8164   -1.2967    0.2706 O   0  0  0  0  0  0  0  0  0  0  0  0
   -6.3919    0.1303    1.6009 O   0  0  0  0  0  0  0  0  0  0  0  0
   -4.6789    1.3136    0.0429 C   0  0  0  0  0  0  0  0  0  0  0  0
   -3.7092    1.2308   -0.9638 C   0  0  0  0  0  0  0  0  0  0  0  0
   -3.3597    2.3498   -1.7013 C   0  0  0  0  0  0  0  0  0  0  0  0
   -3.9896    3.5848   -1.4299 C   0  0  0  0  0  0  0  0  0  0  0  0
   -4.9761    3.6695   -0.4194 C   0  0  0  0  0  0  0  0  0  0  0  0
   -5.3084    2.5370    0.3019 C   0  0  0  0  0  0  0  0  0  0  0  0
   -3.6570    4.7046   -2.1562 N   0  0  0  0  0  0  0  0  0  0  0  0
    2.3132    0.0010    3.8603 Cl  0  0  0  0  0  0  0  0  0  0  0  0
   -0.5779   -0.0050   -0.9244 H   0  0  0  0  0  0  0  0  0  0  0  0
    1.9237   -0.0015   -0.9416 H   0  0  0  0  0  0  0  0  0  0  0  0
    3.1965    0.0032    1.1695 H   0  0  0  0  0  0  0  0  0  0  0  0
   -2.4661   -0.0831    4.6319 H   0  0  0  0  0  0  0  0  0  0  0  0
   -4.5464   -0.0805    3.3245 H   0  0  0  0  0  0  0  0  0  0  0  0
   -3.2078    0.2741   -1.1740 H   0  0  0  0  0  0  0  0  0  0  0  0
   -2.6059    2.2814   -2.4770 H   0  0  0  0  0  0  0  0  0  0  0  0
   -5.4651    4.6147   -0.2148 H   0  0  0  0  0  0  0  0  0  0  0  0
   -6.0804    2.6117    1.0801 H   0  0  0  0  0  0  0  0  0  0  0  0
   -4.0673    5.5893   -1.9578 H   0  0  0  0  0  0  0  0  0  0  0  0
   -2.9419    4.6794   -2.8473 H   0  0  0  0  0  0  0  0  0  0  0  0
  1  6  1  0  0  0  0
  2  1  2  0  0  0  0
  2  3  1  0  0  0  0
  3  4  2  0  0  0  0
  4  5  1  0  0  0  0
  4 22  1  0  0  0  0
  5 10  2  0  0  0  0
  6  5  1  0  0  0  0
  7  6  2  0  0  0  0
  7  8  2  0  0  0  0
  8 11  1  0  0  0  0
  8  9  1  0  0  0  0
  9 10  2  0  0  0  0
  9 26  1  0  0  0  0
 11 27  1  0  0  0  0
 12 14  2  0  0  0  0
 12 11  1  0  0  0  0
 13 12  2  0  0  0  0
 15 20  1  0  0  0  0
 15 12  1  0  0  0  0
 16 15  2  0  0  0  0
 17 18  2  0  0  0  0
 17 16  1  0  0  0  0
 18 19  1  0  0  0  0
 19 30  1  0  0  0  0
 19 20  2  0  0  0  0
 20 31  1  0  0  0  0
 21 32  1  0  0  0  0
 21 18  1  0  0  0  0
 23  1  1  0  0  0  0
 24  2  1  0  0  0  0
 25  3  1  0  0  0  0
 28 16  1  0  0  0  0
 29 17  1  0  0  0  0
 33 21  1  0  0  0  0
M  END
$$$$
