rmsd36.gzmat
 OpenBabel08211713383D

 33 35  0  0  0  0  0  0  0  0999 V2000
    0.0000    0.0000    0.0000 C   0  0  0  0  0  0  0  0  0  0  0  0
    1.3717    0.0000    0.0000 C   0  0  0  0  0  0  0  0  0  0  0  0
    2.1061    0.0000    1.2122 C   0  0  0  0  0  0  0  0  0  0  0  0
    1.4345   -0.0029    2.4061 C   0  0  0  0  0  0  0  0  0  0  0  0
    0.0196   -0.0091    2.4642 C   0  0  0  0  0  0  0  0  0  0  0  0
   -0.7041   -0.0009    1.2359 C   0  0  0  0  0  0  0  0  0  0  0  0
   -2.0739    0.0124    1.2381 N   0  0  0  0  0  0  0  0  0  0  0  0
   -2.7102    0.0102    2.4193 C   0  0  0  0  0  0  0  0  0  0  0  0
   -1.9559   -0.0477    3.6699 C   0  0  0  0  0  0  0  0  0  0  0  0
   -0.6474   -0.0447    3.6680 N   0  0  0  0  0  0  0  0  0  0  0  0
   -4.0847    0.0992    2.3464 N   0  0  0  0  0  0  0  0  0  0  0  0
   -5.2361    0.1325    3.6864 S   0  0  0  0  0  0  0  0  0  0  0  0
   -6.4349   -0.3854    3.0795 O   0  0  0  0  0  0  0  0  0  0  0  0
   -4.5692   -0.5073    4.7903 O   0  0  0  0  0  0  0  0  0  0  0  0
   -5.4166    1.8198    4.0112 C   0  0  0  0  0  0  0  0  0  0  0  0
   -6.4490    2.5450    3.4041 C   0  0  0  0  0  0  0  0  0  0  0  0
   -6.6021    3.8982    3.6481 C   0  0  0  0  0  0  0  0  0  0  0  0
   -5.7062    4.5537    4.5252 C   0  0  0  0  0  0  0  0  0  0  0  0
   -4.6688    3.8206    5.1484 C   0  0  0  0  0  0  0  0  0  0  0  0
   -4.5392    2.4683    4.8892 C   0  0  0  0  0  0  0  0  0  0  0  0
   -5.8480    5.8960    4.7769 N   0  0  0  0  0  0  0  0  0  0  0  0
    2.3119   -0.0001    3.8623 Cl  0  0  0  0  0  0  0  0  0  0  0  0
   -0.5801   -0.0002   -0.9237 H   0  0  0  0  0  0  0  0  0  0  0  0
    1.9233   -0.0015   -0.9421 H   0  0  0  0  0  0  0  0  0  0  0  0
    3.1954    0.0003    1.1709 H   0  0  0  0  0  0  0  0  0  0  0  0
   -2.4570   -0.1348    4.6488 H   0  0  0  0  0  0  0  0  0  0  0  0
   -4.4736    0.0115    1.3975 H   0  0  0  0  0  0  0  0  0  0  0  0
   -7.1581    2.0467    2.7283 H   0  0  0  0  0  0  0  0  0  0  0  0
   -7.4022    4.4554    3.1731 H   0  0  0  0  0  0  0  0  0  0  0  0
   -3.9824    4.3184    5.8255 H   0  0  0  0  0  0  0  0  0  0  0  0
   -3.7360    1.9113    5.3914 H   0  0  0  0  0  0  0  0  0  0  0  0
   -5.2203    6.3802    5.3802 H   0  0  0  0  0  0  0  0  0  0  0  0
   -6.5690    6.4315    4.3461 H   0  0  0  0  0  0  0  0  0  0  0  0
  1  6  1  0  0  0  0
  2  1  2  0  0  0  0
  2  3  1  0  0  0  0
  3  4  2  0  0  0  0
  4  5  1  0  0  0  0
  4 22  1  0  0  0  0
  5 10  2  0  0  0  0
  6  7  2  0  0  0  0
  6  5  1  0  0  0  0
  7  8  2  0  0  0  0
  8  9  1  0  0  0  0
  9 26  1  0  0  0  0
 10  9  2  0  0  0  0
 11  8  1  0  0  0  0
 11 12  1  0  0  0  0
 12 15  1  0  0  0  0
 12 14  2  0  0  0  0
 13 12  2  0  0  0  0
 15 20  2  0  0  0  0
 16 17  2  0  0  0  0
 16 15  1  0  0  0  0
 17 18  1  0  0  0  0
 18 21  1  0  0  0  0
 18 19  2  0  0  0  0
 19 30  1  0  0  0  0
 20 19  1  0  0  0  0
 20 31  1  0  0  0  0
 21 32  1  0  0  0  0
 23  1  1  0  0  0  0
 24  2  1  0  0  0  0
 25  3  1  0  0  0  0
 27 11  1  0  0  0  0
 28 16  1  0  0  0  0
 29 17  1  0  0  0  0
 33 21  1  0  0  0  0
M  END
$$$$
