rmsd76.gzmat
 OpenBabel08211713383D

 33 35  0  0  0  0  0  0  0  0999 V2000
    0.0000    0.0000    0.0000 C   0  0  0  0  0  0  0  0  0  0  0  0
    1.3719    0.0000    0.0000 C   0  0  0  0  0  0  0  0  0  0  0  0
    2.1064    0.0000    1.2119 C   0  0  0  0  0  0  0  0  0  0  0  0
    1.4350   -0.0065    2.4059 C   0  0  0  0  0  0  0  0  0  0  0  0
    0.0200   -0.0094    2.4638 C   0  0  0  0  0  0  0  0  0  0  0  0
   -0.7035   -0.0022    1.2359 C   0  0  0  0  0  0  0  0  0  0  0  0
   -2.0734    0.0049    1.2388 N   0  0  0  0  0  0  0  0  0  0  0  0
   -2.7093    0.0031    2.4199 C   0  0  0  0  0  0  0  0  0  0  0  0
   -1.9547    0.0146    3.6713 C   0  0  0  0  0  0  0  0  0  0  0  0
   -0.6463    0.0007    3.6686 N   0  0  0  0  0  0  0  0  0  0  0  0
   -4.0863   -0.0479    2.3432 N   0  0  0  0  0  0  0  0  0  0  0  0
   -5.2446    0.0169    3.6761 S   0  0  0  0  0  0  0  0  0  0  0  0
   -4.5396    0.6116    4.7819 O   0  0  0  0  0  0  0  0  0  0  0  0
   -6.3951    0.6195    3.0545 O   0  0  0  0  0  0  0  0  0  0  0  0
   -5.5587   -1.6490    4.0095 C   0  0  0  0  0  0  0  0  0  0  0  0
   -4.8282   -2.3272    4.9928 C   0  0  0  0  0  0  0  0  0  0  0  0
   -5.0735   -3.6619    5.2607 C   0  0  0  0  0  0  0  0  0  0  0  0
   -6.0787   -4.3451    4.5363 C   0  0  0  0  0  0  0  0  0  0  0  0
   -6.8233   -3.6594    3.5478 C   0  0  0  0  0  0  0  0  0  0  0  0
   -6.5587   -2.3246    3.2996 C   0  0  0  0  0  0  0  0  0  0  0  0
   -6.3383   -5.6681    4.7964 N   0  0  0  0  0  0  0  0  0  0  0  0
    2.3115   -0.0024    3.8625 Cl  0  0  0  0  0  0  0  0  0  0  0  0
   -0.5795    0.0053   -0.9239 H   0  0  0  0  0  0  0  0  0  0  0  0
    1.9235    0.0033   -0.9420 H   0  0  0  0  0  0  0  0  0  0  0  0
    3.1957    0.0092    1.1703 H   0  0  0  0  0  0  0  0  0  0  0  0
   -2.4543    0.0687    4.6525 H   0  0  0  0  0  0  0  0  0  0  0  0
   -4.4665    0.0591    1.3921 H   0  0  0  0  0  0  0  0  0  0  0  0
   -4.0517   -1.8066    5.5710 H   0  0  0  0  0  0  0  0  0  0  0  0
   -4.5023   -4.1845    6.0206 H   0  0  0  0  0  0  0  0  0  0  0  0
   -7.5962   -4.1788    2.9922 H   0  0  0  0  0  0  0  0  0  0  0  0
   -7.1536   -1.8015    2.5383 H   0  0  0  0  0  0  0  0  0  0  0  0
   -7.0368   -6.1689    4.2930 H   0  0  0  0  0  0  0  0  0  0  0  0
   -5.8204   -6.1748    5.4803 H   0  0  0  0  0  0  0  0  0  0  0  0
  1  6  1  0  0  0  0
  2  1  2  0  0  0  0
  2  3  1  0  0  0  0
  3  4  2  0  0  0  0
  4  5  1  0  0  0  0
  4 22  1  0  0  0  0
  5 10  2  0  0  0  0
  6  7  2  0  0  0  0
  6  5  1  0  0  0  0
  7  8  2  0  0  0  0
  8  9  1  0  0  0  0
  9 26  1  0  0  0  0
 10  9  2  0  0  0  0
 11  8  1  0  0  0  0
 11 12  1  0  0  0  0
 12 15  1  0  0  0  0
 12 13  2  0  0  0  0
 14 12  2  0  0  0  0
 15 16  2  0  0  0  0
 16 17  1  0  0  0  0
 16 28  1  0  0  0  0
 17 29  1  0  0  0  0
 18 21  1  0  0  0  0
 18 17  2  0  0  0  0
 19 18  1  0  0  0  0
 20 19  2  0  0  0  0
 20 15  1  0  0  0  0
 21 33  1  0  0  0  0
 23  1  1  0  0  0  0
 24  2  1  0  0  0  0
 25  3  1  0  0  0  0
 27 11  1  0  0  0  0
 30 19  1  0  0  0  0
 31 20  1  0  0  0  0
 32 21  1  0  0  0  0
M  END
$$$$
