33

C          0.21580        0.28810        0.09490
C          1.58970        0.39500        0.16710
C          2.26480        0.34680        1.40900
C          1.54640        0.19010        2.57910
C          0.12600        0.07570        2.54970
C         -0.54120        0.12690        1.28250
N         -1.89450        0.01820        1.21020
C         -2.55940       -0.12730        2.33150
C         -1.88400       -0.17570        3.60380
N         -0.58920       -0.07830        3.69720
N         -3.92910       -0.26350        2.29880
S         -4.94760       -0.02220        0.93620
O         -6.26710       -0.26280        1.52300
O         -4.60160        1.24440        0.30560
C         -4.53590       -1.34710       -0.15400
C         -5.13250       -2.59870        0.03620
C         -4.80720       -3.64810       -0.81130
C         -3.88350       -3.46350       -1.86660
C         -3.30220       -2.18640       -2.04170
C         -3.62320       -1.13700       -1.19300
N         -3.58720       -4.49120       -2.72410
Cl         2.37380        0.13040        4.10660
H         -0.31920        0.32570       -0.85470
H          2.17600        0.52140       -0.74600
H          3.35080        0.43320        1.45510
H         -2.46410       -0.29780        4.52760
H         -4.45680       -0.36410        3.16020
H         -5.85700       -2.73530        0.84050
H         -5.27540       -4.62570       -0.67200
H         -2.59310       -2.02750       -2.85810
H         -3.17430       -0.15210       -1.31520
H         -2.78720       -4.40380       -3.33610
H         -3.84620       -5.43440       -2.46800
