33
rmsd28.gzmat
C          0.00000        0.00000        0.00000
C          1.37190        0.00000        0.00000
C          2.10640        0.00000        1.21130
C          1.43540       -0.01060        2.40610
C          0.02050       -0.01300        2.46390
C         -0.70390        0.00260        1.23560
N         -2.07440        0.02860        1.23130
C         -2.70670        0.03320        2.41160
C         -1.95070       -0.01140        3.66600
N         -0.64340       -0.02950        3.67060
N         -4.07370        0.12350        2.41800
S         -5.11190        0.09110        0.96380
O         -4.97090       -1.20670        0.36690
O         -6.35840        0.49570        1.57700
C         -4.52870        1.33560       -0.07470
C         -3.59600        1.03530       -1.07610
C         -3.11720        2.02700       -1.91620
C         -3.57190        3.35450       -1.75300
C         -4.51950        3.65950       -0.74740
C         -4.98610        2.65020        0.07590
N         -3.10370        4.34940       -2.57950
Cl         2.31250       -0.01300        3.86060
H         -0.57910       -0.00340       -0.92310
H          1.92360       -0.00100       -0.94180
H          3.19570        0.00750        1.17010
H         -2.47140       -0.03030        4.62760
H         -4.54710        0.10420        3.32010
H         -3.22760        0.00540       -1.19880
H         -2.39430        1.78930       -2.68780
H         -4.87400        4.67630       -0.62380
H         -5.72710        2.89700        0.84850
H         -3.38940        5.29550       -2.46460
H         -2.41650        4.16320       -3.27440
