33
rmsd5.gzmat
C          0.00000        0.00000        0.00000
C          1.37170        0.00000        0.00000
C          2.10660        0.00000        1.21200
C          1.43500       -0.00520        2.40580
C          0.02000       -0.00850        2.46410
C         -0.70410        0.00260        1.23590
N         -2.07370        0.02670        1.23840
C         -2.70820        0.02850        2.42030
C         -1.95390       -0.03690        3.67070
N         -0.64540       -0.04210        3.66870
N         -4.08230        0.10870        2.35670
S         -5.20010        0.36180        3.70180
O         -6.46750        0.01510        3.11260
O         -4.63140       -0.33720        4.82450
C         -5.10490        2.06540        3.97280
C         -5.92870        2.93820        3.25190
C         -5.85250        4.30570        3.44580
C         -4.92950        4.82610        4.38310
C         -4.10550        3.94500        5.12300
C         -4.20670        2.58160        4.91520
N         -4.84090        6.18170        4.58200
Cl         2.31220       -0.00860        3.86210
H         -0.57990       -0.00110       -0.92370
H          1.92320       -0.00130       -0.94180
H          3.19600        0.00170        1.17070
H         -2.45720       -0.12590        4.64790
H         -4.48520       -0.00180        1.41750
H         -6.65260        2.54780        2.52350
H         -6.49470        4.97670        2.88590
H         -3.40150        4.33920        5.84800
H         -3.57050        1.90990        5.50840
H         -4.17950        6.57110        5.21730
H         -5.39380        6.82070        4.05490
