rmsd66.gzmat
 OpenBabel08211713383D

 31 32  0  0  0  0  0  0  0  0999 V2000
    0.0000    0.0000    0.0000 C   0  0  0  0  0  0  0  0  0  0  0  0
    1.4124    0.0000    0.0000 C   0  0  0  0  0  0  0  0  0  0  0  0
    2.0948    0.0000    1.2052 C   0  0  0  0  0  0  0  0  0  0  0  0
    1.3970    0.0023    2.4202 C   0  0  0  0  0  0  0  0  0  0  0  0
   -0.0024    0.0066    2.4163 C   0  0  0  0  0  0  0  0  0  0  0  0
   -0.7070    0.0023    1.2252 C   0  0  0  0  0  0  0  0  0  0  0  0
    2.2533   -0.0351    3.9171 S   0  0  0  0  0  0  0  0  0  0  0  0
    1.3304   -0.2537    5.0113 O   0  0  0  0  0  0  0  0  0  0  0  0
    3.4542   -0.8179    3.8036 O   0  0  0  0  0  0  0  0  0  0  0  0
    2.7595    1.6334    4.2451 N   0  0  0  0  0  0  0  0  0  0  0  0
    3.4209    2.4467    3.3386 C   0  0  0  0  0  0  0  0  0  0  0  0
    3.6067    2.0796    2.1965 O   0  0  0  0  0  0  0  0  0  0  0  0
    3.8929    3.7653    3.8440 C   0  0  0  0  0  0  0  0  0  0  0  0
    3.0565    4.6147    4.5663 C   0  0  0  0  0  0  0  0  0  0  0  0
    3.5478    5.8376    5.0189 C   0  0  0  0  0  0  0  0  0  0  0  0
    4.8623    6.2097    4.7389 C   0  0  0  0  0  0  0  0  0  0  0  0
    5.6894    5.3630    4.0023 C   0  0  0  0  0  0  0  0  0  0  0  0
    5.2053    4.1368    3.5526 C   0  0  0  0  0  0  0  0  0  0  0  0
   -0.6888   -0.0085   -1.1907 N   0  0  0  0  0  0  0  0  0  0  0  0
    1.9589    0.0075   -0.9364 H   0  0  0  0  0  0  0  0  0  0  0  0
    3.1961   -0.0002    1.1925 H   0  0  0  0  0  0  0  0  0  0  0  0
   -0.5611    0.0066    3.3625 H   0  0  0  0  0  0  0  0  0  0  0  0
   -1.7906   -0.0006    1.2283 H   0  0  0  0  0  0  0  0  0  0  0  0
    2.6390    1.9624    5.2012 H   0  0  0  0  0  0  0  0  0  0  0  0
    2.0233    4.3338    4.7691 H   0  0  0  0  0  0  0  0  0  0  0  0
    2.9056    6.5038    5.5922 H   0  0  0  0  0  0  0  0  0  0  0  0
    5.2442    7.1656    5.0961 H   0  0  0  0  0  0  0  0  0  0  0  0
    6.7127    5.6593    3.7778 H   0  0  0  0  0  0  0  0  0  0  0  0
    5.8439    3.4675    2.9715 H   0  0  0  0  0  0  0  0  0  0  0  0
   -0.2114   -0.0022   -2.0640 H   0  0  0  0  0  0  0  0  0  0  0  0
   -1.6828   -0.0065   -1.2136 H   0  0  0  0  0  0  0  0  0  0  0  0
  1  2  2  0  0  0  0
  1  6  1  0  0  0  0
  2  3  1  0  0  0  0
  3  4  2  0  0  0  0
  4  7  1  0  0  0  0
  5  4  1  0  0  0  0
  5 22  1  0  0  0  0
  6 23  1  0  0  0  0
  6  5  2  0  0  0  0
  7 10  1  0  0  0  0
  7  8  2  0  0  0  0
  9  7  2  0  0  0  0
 10 24  1  0  0  0  0
 11 13  1  0  0  0  0
 11 10  1  0  0  0  0
 12 11  2  0  0  0  0
 13 14  1  0  0  0  0
 14 25  1  0  0  0  0
 14 15  2  0  0  0  0
 15 26  1  0  0  0  0
 16 15  1  0  0  0  0
 16 27  1  0  0  0  0
 17 16  2  0  0  0  0
 18 13  2  0  0  0  0
 18 17  1  0  0  0  0
 19  1  1  0  0  0  0
 20  2  1  0  0  0  0
 21  3  1  0  0  0  0
 28 17  1  0  0  0  0
 29 18  1  0  0  0  0
 30 19  1  0  0  0  0
 31 19  1  0  0  0  0
M  END
$$$$
