rmsd20.gzmat
 OpenBabel08211713383D

 31 32  0  0  0  0  0  0  0  0999 V2000
    0.0000    0.0000    0.0000 C   0  0  0  0  0  0  0  0  0  0  0  0
    1.4143    0.0000    0.0000 C   0  0  0  0  0  0  0  0  0  0  0  0
    2.0938    0.0000    1.2059 C   0  0  0  0  0  0  0  0  0  0  0  0
    1.3973   -0.0013    2.4196 C   0  0  0  0  0  0  0  0  0  0  0  0
   -0.0040   -0.0070    2.4167 C   0  0  0  0  0  0  0  0  0  0  0  0
   -0.7064   -0.0085    1.2232 C   0  0  0  0  0  0  0  0  0  0  0  0
    2.2622   -0.0072    3.9122 S   0  0  0  0  0  0  0  0  0  0  0  0
    1.5430   -0.7309    4.9255 O   0  0  0  0  0  0  0  0  0  0  0  0
    3.6662   -0.2698    3.6749 O   0  0  0  0  0  0  0  0  0  0  0  0
    2.3292    1.6879    4.4328 N   0  0  0  0  0  0  0  0  0  0  0  0
    1.2354    2.5380    4.4727 C   0  0  0  0  0  0  0  0  0  0  0  0
    0.1476    2.1666    4.0813 O   0  0  0  0  0  0  0  0  0  0  0  0
    1.4672    3.9052    5.0149 C   0  0  0  0  0  0  0  0  0  0  0  0
    2.5550    4.6769    4.6083 C   0  0  0  0  0  0  0  0  0  0  0  0
    2.7243    5.9552    5.1357 C   0  0  0  0  0  0  0  0  0  0  0  0
    1.8070    6.4571    6.0590 C   0  0  0  0  0  0  0  0  0  0  0  0
    0.7149    5.6855    6.4535 C   0  0  0  0  0  0  0  0  0  0  0  0
    0.5394    4.4079    5.9267 C   0  0  0  0  0  0  0  0  0  0  0  0
   -0.6884   -0.0071   -1.1913 N   0  0  0  0  0  0  0  0  0  0  0  0
    1.9576   -0.0023   -0.9373 H   0  0  0  0  0  0  0  0  0  0  0  0
    3.1926   -0.0044    1.1950 H   0  0  0  0  0  0  0  0  0  0  0  0
   -0.5651   -0.0054    3.3639 H   0  0  0  0  0  0  0  0  0  0  0  0
   -1.7908   -0.0059    1.2280 H   0  0  0  0  0  0  0  0  0  0  0  0
    3.2209    2.0172    4.7967 H   0  0  0  0  0  0  0  0  0  0  0  0
    3.2639    4.2932    3.8750 H   0  0  0  0  0  0  0  0  0  0  0  0
    3.5732    6.5629    4.8266 H   0  0  0  0  0  0  0  0  0  0  0  0
    1.9433    7.4565    6.4711 H   0  0  0  0  0  0  0  0  0  0  0  0
   -0.0022    6.0804    7.1722 H   0  0  0  0  0  0  0  0  0  0  0  0
   -0.3213    3.8005    6.2178 H   0  0  0  0  0  0  0  0  0  0  0  0
   -0.2132    0.0318   -2.0644 H   0  0  0  0  0  0  0  0  0  0  0  0
   -1.6829    0.0280   -1.2119 H   0  0  0  0  0  0  0  0  0  0  0  0
  1  2  2  0  0  0  0
  1  6  1  0  0  0  0
  2  3  1  0  0  0  0
  3  4  2  0  0  0  0
  4  7  1  0  0  0  0
  5  4  1  0  0  0  0
  5 22  1  0  0  0  0
  6 23  1  0  0  0  0
  6  5  2  0  0  0  0
  7 10  1  0  0  0  0
  7  8  2  0  0  0  0
  9  7  2  0  0  0  0
 10 11  1  0  0  0  0
 10 24  1  0  0  0  0
 11 13  1  0  0  0  0
 12 11  2  0  0  0  0
 13 18  1  0  0  0  0
 14 13  2  0  0  0  0
 14 15  1  0  0  0  0
 15 16  2  0  0  0  0
 16 17  1  0  0  0  0
 16 27  1  0  0  0  0
 17 28  1  0  0  0  0
 18 29  1  0  0  0  0
 18 17  2  0  0  0  0
 19  1  1  0  0  0  0
 20  2  1  0  0  0  0
 21  3  1  0  0  0  0
 25 14  1  0  0  0  0
 26 15  1  0  0  0  0
 30 19  1  0  0  0  0
 31 19  1  0  0  0  0
M  END
$$$$
