
     RDKit          3D

 31 32  0  0  0  0  0  0  0  0999 V2000
   -0.2189   -0.1703    0.0777 C   0  0  0  0  0  0  0  0  0  0  0  0
    1.1812   -0.0934   -0.1031 C   0  0  0  0  0  0  0  0  0  0  0  0
    2.0368   -0.0105    0.9857 C   0  0  0  0  0  0  0  0  0  0  0  0
    1.5013   -0.0022    2.2791 C   0  0  0  0  0  0  0  0  0  0  0  0
    0.1196   -0.0813    2.4868 C   0  0  0  0  0  0  0  0  0  0  0  0
   -0.7332   -0.1635    1.3948 C   0  0  0  0  0  0  0  0  0  0  0  0
    2.5758    0.0976    3.6760 S   0  0  0  0  0  0  0  0  0  0  0  0
    1.8502   -0.3209    4.8774 O   0  0  0  0  0  0  0  0  0  0  0  0
    3.8778   -0.4503    3.3252 O   0  0  0  0  0  0  0  0  0  0  0  0
    2.7664    1.7845    3.9618 N   0  0  0  0  0  0  0  0  0  0  0  0
    3.3725    2.6736    3.0955 C   0  0  0  0  0  0  0  0  0  0  0  0
    3.7227    2.3499    1.9766 O   0  0  0  0  0  0  0  0  0  0  0  0
    3.5397    4.0710    3.6183 C   0  0  0  0  0  0  0  0  0  0  0  0
    3.5006    4.3972    4.9825 C   0  0  0  0  0  0  0  0  0  0  0  0
    3.6765    5.7194    5.3950 C   0  0  0  0  0  0  0  0  0  0  0  0
    3.8918    6.7247    4.4483 C   0  0  0  0  0  0  0  0  0  0  0  0
    3.9425    6.4036    3.0875 C   0  0  0  0  0  0  0  0  0  0  0  0
    3.7740    5.0828    2.6752 C   0  0  0  0  0  0  0  0  0  0  0  0
   -1.0584   -0.2866   -1.0009 N   0  0  0  0  0  0  0  0  0  0  0  0
    1.5925   -0.1009   -1.1155 H   0  0  0  0  0  0  0  0  0  0  0  0
    3.1152    0.0624    0.8506 H   0  0  0  0  0  0  0  0  0  0  0  0
   -0.2723   -0.0917    3.5050 H   0  0  0  0  0  0  0  0  0  0  0  0
   -1.8126   -0.2350    1.5512 H   0  0  0  0  0  0  0  0  0  0  0  0
    2.3472    2.0827    4.8364 H   0  0  0  0  0  0  0  0  0  0  0  0
    3.3645    3.6196    5.7376 H   0  0  0  0  0  0  0  0  0  0  0  0
    3.6535    5.9635    6.4594 H   0  0  0  0  0  0  0  0  0  0  0  0
    4.0274    7.7594    4.7722 H   0  0  0  0  0  0  0  0  0  0  0  0
    4.1176    7.1873    2.3468 H   0  0  0  0  0  0  0  0  0  0  0  0
    3.8213    4.8039    1.6214 H   0  0  0  0  0  0  0  0  0  0  0  0
   -0.6984   -0.0803   -1.9231 H   0  0  0  0  0  0  0  0  0  0  0  0
   -2.0481   -0.1260   -0.8695 H   0  0  0  0  0  0  0  0  0  0  0  0
  1  2  2  0
  1  6  1  0
  1 19  1  0
  2  3  1  0
  2 20  1  0
  3  4  2  0
  3 21  1  0
  4  5  1  0
  4  7  1  0
  5  6  2  0
  5 22  1  0
  6 23  1  0
  7  8  2  0
  7  9  2  0
  7 10  1  0
 10 11  1  0
 10 24  1  0
 11 12  2  0
 11 13  1  0
 13 14  2  0
 13 18  1  0
 14 15  1  0
 14 25  1  0
 15 16  2  0
 15 26  1  0
 16 17  1  0
 16 27  1  0
 17 18  2  0
 17 28  1  0
 18 29  1  0
 19 30  1  0
 19 31  1  0
M  END

