31
rmsd27.gzmat
C          0.00000        0.00000        0.00000
C          1.41240        0.00000        0.00000
C          2.09470        0.00000        1.20540
C          1.39700       -0.00080        2.42020
C         -0.00250        0.00910        2.41580
C         -0.70690        0.01010        1.22480
S          2.24780       -0.03640        3.92200
O          1.31940       -0.26330        5.01010
O          3.45600       -0.80780        3.81780
N          2.71510        1.64510        4.23850
C          3.38200        2.45810        3.33540
O          3.65400        2.06010        2.22200
C          3.72210        3.82910        3.80670
C          5.04500        4.25650        3.70410
C          5.38370        5.54350        4.11700
C          4.40060        6.39580        4.61800
C          3.07700        5.96600        4.70760
C          2.73400        4.67820        4.30250
N         -0.68860       -0.01680       -1.19070
H          1.95730        0.00780       -0.93740
H          3.19600        0.00440        1.19250
H         -0.56240        0.01140        3.36120
H         -1.79020        0.01760        1.22720
H          2.53530        1.99970        5.17620
H          5.80480        3.58690        3.29660
H          6.41580        5.88330        4.04570
H          4.66760        7.40150        4.94070
H          2.31250        6.63650        5.09570
H          1.69910        4.34300        4.36550
H         -0.21020       -0.01460       -2.06340
H         -1.68270       -0.01640       -1.21410
