
     RDKit          3D

 31 32  0  0  0  0  0  0  0  0999 V2000
   -0.1997    0.0084    0.0933 C   0  0  0  0  0  0  0  0  0  0  0  0
    1.2020   -0.0140   -0.0898 C   0  0  0  0  0  0  0  0  0  0  0  0
    2.0628   -0.0259    0.9981 C   0  0  0  0  0  0  0  0  0  0  0  0
    1.5308   -0.0149    2.2930 C   0  0  0  0  0  0  0  0  0  0  0  0
    0.1472    0.0022    2.5028 C   0  0  0  0  0  0  0  0  0  0  0  0
   -0.7106    0.0139    1.4116 C   0  0  0  0  0  0  0  0  0  0  0  0
    2.6107   -0.0429    3.6893 S   0  0  0  0  0  0  0  0  0  0  0  0
    1.8523   -0.4314    4.8805 O   0  0  0  0  0  0  0  0  0  0  0  0
    3.8615   -0.6895    3.3206 O   0  0  0  0  0  0  0  0  0  0  0  0
    2.9435    1.6130    4.0193 N   0  0  0  0  0  0  0  0  0  0  0  0
    3.6243    2.4699    3.1755 C   0  0  0  0  0  0  0  0  0  0  0  0
    3.9501    2.1456    2.0496 O   0  0  0  0  0  0  0  0  0  0  0  0
    3.9051    3.8349    3.7333 C   0  0  0  0  0  0  0  0  0  0  0  0
    3.8939    4.1274    5.1057 C   0  0  0  0  0  0  0  0  0  0  0  0
    4.1776    5.4195    5.5518 C   0  0  0  0  0  0  0  0  0  0  0  0
    4.4732    6.4283    4.6308 C   0  0  0  0  0  0  0  0  0  0  0  0
    4.4962    6.1399    3.2620 C   0  0  0  0  0  0  0  0  0  0  0  0
    4.2203    4.8485    2.8160 C   0  0  0  0  0  0  0  0  0  0  0  0
   -1.0461    0.0557   -0.9860 N   0  0  0  0  0  0  0  0  0  0  0  0
    1.6105   -0.0197   -1.1034 H   0  0  0  0  0  0  0  0  0  0  0  0
    3.1435   -0.0326    0.8616 H   0  0  0  0  0  0  0  0  0  0  0  0
   -0.2430   -0.0115    3.5215 H   0  0  0  0  0  0  0  0  0  0  0  0
   -1.7920    0.0215    1.5694 H   0  0  0  0  0  0  0  0  0  0  0  0
    2.5438    1.9251    4.8981 H   0  0  0  0  0  0  0  0  0  0  0  0
    3.6955    3.3438    5.8405 H   0  0  0  0  0  0  0  0  0  0  0  0
    4.1755    5.6369    6.6223 H   0  0  0  0  0  0  0  0  0  0  0  0
    4.6929    7.4397    4.9810 H   0  0  0  0  0  0  0  0  0  0  0  0
    4.7335    6.9259    2.5414 H   0  0  0  0  0  0  0  0  0  0  0  0
    4.2434    4.5945    1.7551 H   0  0  0  0  0  0  0  0  0  0  0  0
   -0.6783   -0.1723   -1.9002 H   0  0  0  0  0  0  0  0  0  0  0  0
   -2.0249   -0.1562   -0.8450 H   0  0  0  0  0  0  0  0  0  0  0  0
  1  2  2  0
  1  6  1  0
  1 19  1  0
  2  3  1  0
  2 20  1  0
  3  4  2  0
  3 21  1  0
  4  5  1  0
  4  7  1  0
  5  6  2  0
  5 22  1  0
  6 23  1  0
  7  8  2  0
  7  9  2  0
  7 10  1  0
 10 11  1  0
 10 24  1  0
 11 12  2  0
 11 13  1  0
 13 14  2  0
 13 18  1  0
 14 15  1  0
 14 25  1  0
 15 16  2  0
 15 26  1  0
 16 17  1  0
 16 27  1  0
 17 18  2  0
 17 28  1  0
 18 29  1  0
 19 30  1  0
 19 31  1  0
M  END

