rmsd48.gzmat
 OpenBabel08211713383D

 31 32  0  0  0  0  0  0  0  0999 V2000
    0.0000    0.0000    0.0000 C   0  0  0  0  0  0  0  0  0  0  0  0
    1.4143    0.0000    0.0000 C   0  0  0  0  0  0  0  0  0  0  0  0
    2.0939    0.0000    1.2056 C   0  0  0  0  0  0  0  0  0  0  0  0
    1.3980    0.0013    2.4198 C   0  0  0  0  0  0  0  0  0  0  0  0
   -0.0031    0.0104    2.4169 C   0  0  0  0  0  0  0  0  0  0  0  0
   -0.7056    0.0103    1.2233 C   0  0  0  0  0  0  0  0  0  0  0  0
    2.2663   -0.0069    3.9107 S   0  0  0  0  0  0  0  0  0  0  0  0
    3.6745    0.2279    3.6692 O   0  0  0  0  0  0  0  0  0  0  0  0
    1.5649    0.7304    4.9263 O   0  0  0  0  0  0  0  0  0  0  0  0
    2.3020   -1.7055    4.4237 N   0  0  0  0  0  0  0  0  0  0  0  0
    1.1903   -2.5312    4.4710 C   0  0  0  0  0  0  0  0  0  0  0  0
    0.1040   -2.1299    4.1056 O   0  0  0  0  0  0  0  0  0  0  0  0
    1.4006   -3.9148    4.9784 C   0  0  0  0  0  0  0  0  0  0  0  0
    2.4449   -4.7096    4.5082 C   0  0  0  0  0  0  0  0  0  0  0  0
    2.5879   -6.0090    4.9895 C   0  0  0  0  0  0  0  0  0  0  0  0
    1.6912   -6.5063    5.9348 C   0  0  0  0  0  0  0  0  0  0  0  0
    0.6437   -5.7097    6.3953 C   0  0  0  0  0  0  0  0  0  0  0  0
    0.4931   -4.4116    5.9131 C   0  0  0  0  0  0  0  0  0  0  0  0
   -0.6875    0.0037   -1.1917 N   0  0  0  0  0  0  0  0  0  0  0  0
    1.9581   -0.0015   -0.9374 H   0  0  0  0  0  0  0  0  0  0  0  0
    3.1926    0.0062    1.1947 H   0  0  0  0  0  0  0  0  0  0  0  0
   -0.5645    0.0120    3.3644 H   0  0  0  0  0  0  0  0  0  0  0  0
   -1.7897    0.0074    1.2286 H   0  0  0  0  0  0  0  0  0  0  0  0
    3.1917   -2.0587    4.7699 H   0  0  0  0  0  0  0  0  0  0  0  0
    3.1388   -4.3261    3.7604 H   0  0  0  0  0  0  0  0  0  0  0  0
    3.3990   -6.6373    4.6258 H   0  0  0  0  0  0  0  0  0  0  0  0
    1.8075   -7.5217    6.3117 H   0  0  0  0  0  0  0  0  0  0  0  0
   -0.0590   -6.1023    7.1287 H   0  0  0  0  0  0  0  0  0  0  0  0
   -0.3332   -3.7849    6.2552 H   0  0  0  0  0  0  0  0  0  0  0  0
   -0.2106   -0.0224   -2.0641 H   0  0  0  0  0  0  0  0  0  0  0  0
   -1.6820   -0.0259   -1.2143 H   0  0  0  0  0  0  0  0  0  0  0  0
  1  2  2  0  0  0  0
  1  6  1  0  0  0  0
  2  3  1  0  0  0  0
  3  4  2  0  0  0  0
  4  7  1  0  0  0  0
  5  4  1  0  0  0  0
  5 22  1  0  0  0  0
  6 23  1  0  0  0  0
  6  5  2  0  0  0  0
  7 10  1  0  0  0  0
  7  9  2  0  0  0  0
  8  7  2  0  0  0  0
 10 11  1  0  0  0  0
 10 24  1  0  0  0  0
 11 13  1  0  0  0  0
 12 11  2  0  0  0  0
 13 18  1  0  0  0  0
 14 13  2  0  0  0  0
 14 15  1  0  0  0  0
 15 16  2  0  0  0  0
 16 27  1  0  0  0  0
 16 17  1  0  0  0  0
 17 28  1  0  0  0  0
 18 29  1  0  0  0  0
 18 17  2  0  0  0  0
 19  1  1  0  0  0  0
 20  2  1  0  0  0  0
 21  3  1  0  0  0  0
 25 14  1  0  0  0  0
 26 15  1  0  0  0  0
 30 19  1  0  0  0  0
 31 19  1  0  0  0  0
M  END
$$$$
