31
rmsd71.gzmat
C          0.00000        0.00000        0.00000
C          1.41250        0.00000        0.00000
C          2.09470        0.00000        1.20530
C          1.39600       -0.00460        2.41950
C         -0.00320       -0.01520        2.41560
C         -0.70750       -0.01290        1.22430
S          2.25050        0.00710        3.91850
O          1.33850       -0.24820        5.01380
O          3.49340       -0.70840        3.81900
N          2.64240        1.71270        4.20850
C          3.25870        2.54080        3.28350
O          3.50940        2.14320        2.16430
C          3.54810        3.93280        3.72470
C          4.24310        4.18560        4.90640
C          4.51410        5.50190        5.27360
C          4.08580        6.55490        4.46540
C          3.39820        6.29590        3.28040
C          3.13650        4.98110        2.90180
N         -0.68780        0.01020       -1.19130
H          1.95860        0.00870       -0.93640
H          3.19600        0.00860        1.19360
H         -0.56280       -0.02900        3.36120
H         -1.79080       -0.02000        1.22730
H          2.41630        2.08410        5.12900
H          4.58650        3.36140        5.53240
H          5.06230        5.70800        6.19130
H          4.29280        7.58360        4.75870
H          3.06910        7.11910        2.64840
H          2.62110        4.76650        1.96420
H         -0.20970        0.01880       -2.06400
H         -1.68220        0.00530       -1.21500
