31

C          0.19090       -0.09150       -0.13540
C          1.58720       -0.07500        0.08690
C          2.09780       -0.04600        1.37720
C          1.21970       -0.03070        2.46690
C         -0.16680       -0.05000        2.27480
C         -0.67320       -0.07960        0.98360
S          1.88140        0.00140        4.10300
O          0.92860       -0.60350        5.02210
O          3.29030       -0.39660        4.06450
N          2.00870        1.67370        4.49100
C          0.94290        2.54380        4.61610
O         -0.19480        2.21770        4.33620
C          1.29060        3.92510        5.09050
C          2.48140        4.23500        5.76510
C          2.73070        5.54210        6.18780
C          1.79330        6.54840        5.93910
C          0.59960        6.24300        5.27640
C          0.34660        4.93700        4.86030
N         -0.31440       -0.15530       -1.40910
H          2.26820       -0.09650       -0.76770
H          3.17450       -0.04910        1.55330
H         -0.82900       -0.02720        3.13940
H         -1.75460       -0.09530        0.82640
H          2.97100        1.98090        4.58630
H          3.21060        3.45480        5.99510
H          3.65600        5.77320        6.72020
H          1.99030        7.57130        6.26870
H         -0.13710        7.02720        5.08740
H         -0.58150        4.66990        4.35270
H          0.29640        0.05120       -2.18800
H         -1.29500        0.04430       -1.55480
