
     RDKit          3D

 39 41  0  0  0  0  0  0  0  0999 V2000
   -0.1741    0.0194    0.0759 O   0  0  0  0  0  0  0  0  0  0  0  0
    1.1940   -0.0212    0.0151 C   0  0  0  0  0  0  0  0  0  0  0  0
    1.6761   -0.1749    1.2877 C   0  0  0  0  0  0  0  0  0  0  0  0
    0.5919   -0.2272    2.1465 N   0  0  0  0  0  0  0  0  0  0  0  0
   -0.4701   -0.1259    1.3985 C   0  0  0  0  0  0  0  0  0  0  0  0
   -1.8708   -0.1724    1.8021 C   0  0  0  0  0  0  0  0  0  0  0  0
   -2.1857   -0.3318    3.1638 C   0  0  0  0  0  0  0  0  0  0  0  0
   -3.5168   -0.3761    3.5717 C   0  0  0  0  0  0  0  0  0  0  0  0
   -4.5476   -0.2634    2.6313 C   0  0  0  0  0  0  0  0  0  0  0  0
   -4.2383   -0.1048    1.2771 C   0  0  0  0  0  0  0  0  0  0  0  0
   -2.9078   -0.0582    0.8603 C   0  0  0  0  0  0  0  0  0  0  0  0
    3.0898   -0.2460    1.7529 C   0  0  0  0  0  0  0  0  0  0  0  0
    1.7840    0.1499   -1.2238 N   0  0  0  0  0  0  0  0  0  0  0  0
    2.7621    1.0896   -1.4722 C   0  0  0  0  0  0  0  0  0  0  0  0
    3.2403    1.8340   -0.6487 O   0  0  0  0  0  0  0  0  0  0  0  0
    3.1143    1.0255   -2.7717 O   0  0  0  0  0  0  0  0  0  0  0  0
    4.0843    1.9940   -3.2255 C   0  0  0  0  0  0  0  0  0  0  0  0
    3.4269    3.2729   -3.6762 C   0  0  0  0  0  0  0  0  0  0  0  0
    3.1146    4.2806   -2.7501 C   0  0  0  0  0  0  0  0  0  0  0  0
    2.4779    5.4501   -3.1700 C   0  0  0  0  0  0  0  0  0  0  0  0
    2.1477    5.6270   -4.5172 C   0  0  0  0  0  0  0  0  0  0  0  0
    2.4559    4.6288   -5.4454 C   0  0  0  0  0  0  0  0  0  0  0  0
    3.0910    3.4581   -5.0245 C   0  0  0  0  0  0  0  0  0  0  0  0
   -1.3688   -0.4182    3.8820 H   0  0  0  0  0  0  0  0  0  0  0  0
   -3.7546   -0.4997    4.6309 H   0  0  0  0  0  0  0  0  0  0  0  0
   -5.5906   -0.2986    2.9545 H   0  0  0  0  0  0  0  0  0  0  0  0
   -5.0397   -0.0155    0.5398 H   0  0  0  0  0  0  0  0  0  0  0  0
   -2.6627    0.0680   -0.1953 H   0  0  0  0  0  0  0  0  0  0  0  0
    3.1565   -0.8713    2.6544 H   0  0  0  0  0  0  0  0  0  0  0  0
    3.4736    0.7587    1.9924 H   0  0  0  0  0  0  0  0  0  0  0  0
    3.7421   -0.6635    0.9725 H   0  0  0  0  0  0  0  0  0  0  0  0
    1.4334   -0.3727   -2.0204 H   0  0  0  0  0  0  0  0  0  0  0  0
    4.5970    1.5009   -4.0616 H   0  0  0  0  0  0  0  0  0  0  0  0
    4.7989    2.1795   -2.4123 H   0  0  0  0  0  0  0  0  0  0  0  0
    3.3631    4.1304   -1.6979 H   0  0  0  0  0  0  0  0  0  0  0  0
    2.2394    6.2290   -2.4418 H   0  0  0  0  0  0  0  0  0  0  0  0
    1.6518    6.5443   -4.8441 H   0  0  0  0  0  0  0  0  0  0  0  0
    2.2023    4.7629   -6.4998 H   0  0  0  0  0  0  0  0  0  0  0  0
    3.3322    2.6777   -5.7517 H   0  0  0  0  0  0  0  0  0  0  0  0
  1  2  1  0
  1  5  1  0
  2  3  2  0
  2 13  1  0
  3  4  1  0
  3 12  1  0
  4  5  2  0
  5  6  1  0
  6  7  2  0
  6 11  1  0
  7  8  1  0
  7 24  1  0
  8  9  2  0
  8 25  1  0
  9 10  1  0
  9 26  1  0
 10 11  2  0
 10 27  1  0
 11 28  1  0
 12 29  1  0
 12 30  1  0
 12 31  1  0
 13 14  1  0
 13 32  1  0
 14 15  2  0
 14 16  1  0
 16 17  1  0
 17 18  1  0
 17 33  1  0
 17 34  1  0
 18 19  2  0
 18 23  1  0
 19 20  1  0
 19 35  1  0
 20 21  2  0
 20 36  1  0
 21 22  1  0
 21 37  1  0
 22 23  2  0
 22 38  1  0
 23 39  1  0
M  END

