39
rmsd52.gzmat
O          0.00000        0.00000        0.00000
C          1.39950        0.00000        0.00000
C          1.83830        0.00000        1.30990
N          0.70210        0.00420        2.13740
C         -0.35650       -0.01060        1.34560
C         -1.77280       -0.04670        1.63130
C         -2.20670        0.01480        2.96050
C         -3.56970       -0.01590        3.24170
C         -4.49560       -0.10830        2.20320
C         -4.06110       -0.17370        0.87930
C         -2.70030       -0.14210        0.58800
C          3.20290       -0.01800        1.85330
N          1.96660       -0.00200       -1.25940
C          2.85010        0.99260       -1.66890
O          3.30510        1.04920       -2.78740
O          3.12260        1.85240       -0.65130
C          4.22410        2.74420       -0.87520
C          5.48900        2.04210       -0.49010
C          6.11380        1.19130       -1.40270
C          7.27250        0.51010       -1.03730
C          7.80970        0.68220        0.23730
C          7.18840        1.53710        1.14680
C          6.02590        2.21510        0.78600
H         -1.47220        0.08650        3.76680
H         -3.91090        0.03350        4.27400
H         -5.56130       -0.12950        2.42580
H         -4.78740       -0.25010        0.07220
H         -2.35890       -0.19120       -0.44670
H          3.21690        0.23410        2.92730
H          3.85790        0.70530        1.33500
H          3.66930       -1.01110        1.74750
H          1.56620       -0.61240       -1.97080
H          3.95760        3.58330       -0.20120
H          4.22900        3.10390       -1.92310
H          5.68930        1.05310       -2.40060
H          7.75610       -0.15720       -1.74790
H          8.71470        0.14950        0.52290
H          7.61250        1.67440        2.13910
H          5.53950        2.87630        1.50170
