rmsd52.gzmat
 OpenBabel08211713403D

 39 41  0  0  1  0  0  0  0  0999 V2000
    0.0000    0.0000    0.0000 O   0  0  0  0  0  0  0  0  0  0  0  0
    1.3995    0.0000    0.0000 C   0  0  1  0  0  0  0  0  0  0  0  0
    1.8383    0.0000    1.3099 C   0  0  0  0  0  0  0  0  0  0  0  0
    0.7021    0.0042    2.1374 N   0  0  0  0  0  0  0  0  0  0  0  0
   -0.3565   -0.0106    1.3456 C   0  0  0  0  0  0  0  0  0  0  0  0
   -1.7728   -0.0467    1.6313 C   0  0  0  0  0  0  0  0  0  0  0  0
   -2.2067    0.0148    2.9605 C   0  0  0  0  0  0  0  0  0  0  0  0
   -3.5697   -0.0159    3.2417 C   0  0  0  0  0  0  0  0  0  0  0  0
   -4.4956   -0.1083    2.2032 C   0  0  0  0  0  0  0  0  0  0  0  0
   -4.0611   -0.1737    0.8793 C   0  0  0  0  0  0  0  0  0  0  0  0
   -2.7003   -0.1421    0.5880 C   0  0  0  0  0  0  0  0  0  0  0  0
    3.2029   -0.0180    1.8533 C   0  0  0  0  0  0  0  0  0  0  0  0
    1.9666   -0.0020   -1.2594 N   0  0  0  0  0  0  0  0  0  0  0  0
    2.8501    0.9926   -1.6689 C   0  0  0  0  0  0  0  0  0  0  0  0
    3.3051    1.0492   -2.7874 O   0  0  0  0  0  0  0  0  0  0  0  0
    3.1226    1.8524   -0.6513 O   0  0  0  0  0  0  0  0  0  0  0  0
    4.2241    2.7442   -0.8752 C   0  0  0  0  0  0  0  0  0  0  0  0
    5.4890    2.0421   -0.4901 C   0  0  0  0  0  0  0  0  0  0  0  0
    6.1138    1.1913   -1.4027 C   0  0  0  0  0  0  0  0  0  0  0  0
    7.2725    0.5101   -1.0373 C   0  0  0  0  0  0  0  0  0  0  0  0
    7.8097    0.6822    0.2373 C   0  0  0  0  0  0  0  0  0  0  0  0
    7.1884    1.5371    1.1468 C   0  0  0  0  0  0  0  0  0  0  0  0
    6.0259    2.2151    0.7860 C   0  0  0  0  0  0  0  0  0  0  0  0
   -1.4722    0.0865    3.7668 H   0  0  0  0  0  0  0  0  0  0  0  0
   -3.9109    0.0335    4.2740 H   0  0  0  0  0  0  0  0  0  0  0  0
   -5.5613   -0.1295    2.4258 H   0  0  0  0  0  0  0  0  0  0  0  0
   -4.7874   -0.2501    0.0722 H   0  0  0  0  0  0  0  0  0  0  0  0
   -2.3589   -0.1912   -0.4467 H   0  0  0  0  0  0  0  0  0  0  0  0
    3.2169    0.2341    2.9273 H   0  0  0  0  0  0  0  0  0  0  0  0
    3.8579    0.7053    1.3350 H   0  0  0  0  0  0  0  0  0  0  0  0
    3.6693   -1.0111    1.7475 H   0  0  0  0  0  0  0  0  0  0  0  0
    1.5662   -0.6124   -1.9708 H   0  0  0  0  0  0  0  0  0  0  0  0
    3.9576    3.5833   -0.2012 H   0  0  0  0  0  0  0  0  0  0  0  0
    4.2290    3.1039   -1.9231 H   0  0  0  0  0  0  0  0  0  0  0  0
    5.6893    1.0531   -2.4006 H   0  0  0  0  0  0  0  0  0  0  0  0
    7.7561   -0.1572   -1.7479 H   0  0  0  0  0  0  0  0  0  0  0  0
    8.7147    0.1495    0.5229 H   0  0  0  0  0  0  0  0  0  0  0  0
    7.6125    1.6744    2.1391 H   0  0  0  0  0  0  0  0  0  0  0  0
    5.5395    2.8763    1.5017 H   0  0  0  0  0  0  0  0  0  0  0  0
  1  2  1  0  0  0  0
  1  5  1  0  0  0  0
  2 13  1  1  0  0  0
  2  3  1  0  0  0  0
  3 12  1  0  0  0  0
  3  4  2  0  0  0  0
  5  6  1  0  0  0  0
  5  4  2  0  0  0  0
  6  7  2  0  0  0  0
  7  8  1  0  0  0  0
  7 24  1  0  0  0  0
  8 25  1  0  0  0  0
  9 26  1  0  0  0  0
  9  8  2  0  0  0  0
 10  9  1  0  0  0  0
 11 10  2  0  0  0  0
 11  6  1  0  0  0  0
 12 29  1  0  0  0  0
 14 13  1  0  0  0  0
 14 16  1  0  0  0  0
 15 14  2  0  0  0  0
 17 16  1  0  0  0  0
 17 18  1  0  0  0  0
 17 33  1  0  0  0  0
 18 23  2  0  0  0  0
 19 20  2  0  0  0  0
 19 18  1  0  0  0  0
 20 21  1  0  0  0  0
 21 37  1  0  0  0  0
 21 22  2  0  0  0  0
 22 38  1  0  0  0  0
 23 22  1  0  0  0  0
 23 39  1  0  0  0  0
 27 10  1  0  0  0  0
 28 11  1  0  0  0  0
 30 12  1  0  0  0  0
 31 12  1  0  0  0  0
 32 13  1  0  0  0  0
 34 17  1  0  0  0  0
 35 19  1  0  0  0  0
 36 20  1  0  0  0  0
M  RAD  1   2   2
M  END
$$$$
