
     RDKit          3D

 39 41  0  0  0  0  0  0  0  0999 V2000
   -0.1213   -0.0735   -0.1070 O   0  0  0  0  0  0  0  0  0  0  0  0
    1.2479   -0.0444   -0.1638 C   0  0  0  0  0  0  0  0  0  0  0  0
    1.7287    0.0201    1.1167 C   0  0  0  0  0  0  0  0  0  0  0  0
    0.6443    0.0292    1.9762 N   0  0  0  0  0  0  0  0  0  0  0  0
   -0.4173   -0.0111    1.2214 C   0  0  0  0  0  0  0  0  0  0  0  0
   -1.8180    0.0253    1.6266 C   0  0  0  0  0  0  0  0  0  0  0  0
   -2.1326    0.0979    2.9956 C   0  0  0  0  0  0  0  0  0  0  0  0
   -3.4637    0.1312    3.4050 C   0  0  0  0  0  0  0  0  0  0  0  0
   -4.4944    0.0936    2.4586 C   0  0  0  0  0  0  0  0  0  0  0  0
   -4.1854    0.0215    1.0970 C   0  0  0  0  0  0  0  0  0  0  0  0
   -2.8551   -0.0135    0.6788 C   0  0  0  0  0  0  0  0  0  0  0  0
    3.1430    0.0419    1.5850 C   0  0  0  0  0  0  0  0  0  0  0  0
    1.8442   -0.1396   -1.4074 N   0  0  0  0  0  0  0  0  0  0  0  0
    2.8202   -1.0670   -1.7051 C   0  0  0  0  0  0  0  0  0  0  0  0
    3.2555   -1.8932   -0.9382 O   0  0  0  0  0  0  0  0  0  0  0  0
    3.2172   -0.8957   -2.9821 O   0  0  0  0  0  0  0  0  0  0  0  0
    4.3414   -1.6917   -3.4151 C   0  0  0  0  0  0  0  0  0  0  0  0
    5.6505   -1.0296   -3.0695 C   0  0  0  0  0  0  0  0  0  0  0  0
    6.2562   -1.2495   -1.8223 C   0  0  0  0  0  0  0  0  0  0  0  0
    7.4493   -0.6019   -1.4945 C   0  0  0  0  0  0  0  0  0  0  0  0
    8.0504    0.2702   -2.4072 C   0  0  0  0  0  0  0  0  0  0  0  0
    7.4539    0.4938   -3.6513 C   0  0  0  0  0  0  0  0  0  0  0  0
    6.2600   -0.1530   -3.9780 C   0  0  0  0  0  0  0  0  0  0  0  0
   -1.3157    0.1265    3.7183 H   0  0  0  0  0  0  0  0  0  0  0  0
   -3.7014    0.1872    4.4699 H   0  0  0  0  0  0  0  0  0  0  0  0
   -5.5374    0.1200    2.7830 H   0  0  0  0  0  0  0  0  0  0  0  0
   -4.9869   -0.0089    0.3550 H   0  0  0  0  0  0  0  0  0  0  0  0
   -2.6100   -0.0721   -0.3828 H   0  0  0  0  0  0  0  0  0  0  0  0
    3.2261    0.6420    2.5023 H   0  0  0  0  0  0  0  0  0  0  0  0
    3.8084    0.4590    0.8158 H   0  0  0  0  0  0  0  0  0  0  0  0
    3.4966   -0.9789    1.8023 H   0  0  0  0  0  0  0  0  0  0  0  0
    1.5544    0.4837   -2.1547 H   0  0  0  0  0  0  0  0  0  0  0  0
    4.2171   -1.7749   -4.5025 H   0  0  0  0  0  0  0  0  0  0  0  0
    4.2647   -2.6873   -2.9581 H   0  0  0  0  0  0  0  0  0  0  0  0
    5.7742   -1.9202   -1.1089 H   0  0  0  0  0  0  0  0  0  0  0  0
    7.9138   -0.7806   -0.5217 H   0  0  0  0  0  0  0  0  0  0  0  0
    8.9852    0.7741   -2.1498 H   0  0  0  0  0  0  0  0  0  0  0  0
    7.9211    1.1720   -4.3694 H   0  0  0  0  0  0  0  0  0  0  0  0
    5.7943    0.0225   -4.9518 H   0  0  0  0  0  0  0  0  0  0  0  0
  1  2  1  0
  1  5  1  0
  2  3  2  0
  2 13  1  0
  3  4  1  0
  3 12  1  0
  4  5  2  0
  5  6  1  0
  6  7  2  0
  6 11  1  0
  7  8  1  0
  7 24  1  0
  8  9  2  0
  8 25  1  0
  9 10  1  0
  9 26  1  0
 10 11  2  0
 10 27  1  0
 11 28  1  0
 12 29  1  0
 12 30  1  0
 12 31  1  0
 13 14  1  0
 13 32  1  0
 14 15  2  0
 14 16  1  0
 16 17  1  0
 17 18  1  0
 17 33  1  0
 17 34  1  0
 18 19  2  0
 18 23  1  0
 19 20  1  0
 19 35  1  0
 20 21  2  0
 20 36  1  0
 21 22  1  0
 21 37  1  0
 22 23  2  0
 22 38  1  0
 23 39  1  0
M  END

