39
rmsd53.gzmat
O          0.00000        0.00000        0.00000
C          1.39740        0.00000        0.00000
C          1.84130        0.00000        1.30920
N          0.70540       -0.00190        2.13750
C         -0.35430       -0.01370        1.35020
C         -1.76960       -0.05350        1.63880
C         -2.70690        0.13840        0.61840
C         -4.06610        0.09400        0.91590
C         -4.48910       -0.13960        2.22420
C         -3.55360       -0.32670        3.24130
C         -2.19250       -0.28330        2.95330
C          3.20550        0.00180        1.85320
N          1.95620       -0.01610       -1.26450
C          3.01640        0.83550       -1.56290
O          3.62210        1.52670       -0.78120
O          3.30500        0.69890       -2.88950
C          4.33500        1.56710       -3.38480
C          3.72600        2.88740       -3.73910
C          3.60090        3.88010       -2.76590
C          3.01820        5.10250       -3.09180
C          2.56470        5.33590       -4.38930
C          2.68540        4.34270       -5.36000
C          3.26280        3.11680       -5.03550
H         -2.37560        0.32480       -0.40360
H         -4.79850        0.24370        0.12460
H         -5.55300       -0.17500        2.45190
H         -3.88590       -0.50740        4.26200
H         -1.45020       -0.42520        3.74300
H          3.20600        0.10570        2.95130
H          3.79900        0.84210        1.44370
H          3.74630       -0.92570        1.60960
H          1.44390       -0.47910       -2.01140
H          4.69090        0.99250       -4.26380
H          5.15550        1.65200       -2.64540
H          3.94990        3.69430       -1.74670
H          2.91400        5.87360       -2.33010
H          2.11260        6.29280       -4.64420
H          2.32420        4.52270       -6.37020
H          3.34450        2.33900       -5.79250
