39
rmsd84.gzmat
O          0.00000        0.00000        0.00000
C          1.39910        0.00000        0.00000
C          1.84050        0.00000        1.30920
N          0.70430        0.00490        2.13710
C         -0.35520        0.01450        1.34770
C         -1.77120        0.04160        1.63650
C         -2.19810        0.24970        2.95330
C         -3.55980        0.26820        3.24110
C         -4.49180        0.07960        2.22140
C         -4.06510       -0.12740        0.90990
C         -2.70540       -0.14780        0.61200
C          3.20710       -0.01210        1.84730
N          1.96650        0.00200       -1.26080
C          2.91530       -0.96590       -1.58460
O          3.44390       -1.73370       -0.81920
O          3.16480       -0.88160       -2.92390
C          4.24470       -1.69680       -3.39960
C          5.55110       -1.02940       -3.10380
C          6.23410       -1.32660       -1.92320
C          7.44900       -0.70360       -1.64730
C          7.98150        0.21730       -2.54810
C          7.29630        0.51930       -3.72400
C          6.08070       -0.10230       -4.00240
H         -1.45910        0.39210        3.74610
H         -3.89540        0.42780        4.26460
H         -5.55650        0.09260        2.44960
H         -4.79670       -0.27540        0.11740
H         -2.37040       -0.31310       -0.41250
H          3.21340       -0.07970        2.94810
H          3.76600        0.89520        1.56910
H          3.77700       -0.87920        1.46170
H          1.51060        0.53910       -1.99390
H          4.00810       -1.74100       -4.48230
H          4.16910       -2.71310       -2.96540
H          5.81110       -2.03990       -1.21150
H          7.98210       -0.93560       -0.72730
H          8.93200        0.70250       -2.33360
H          7.71080        1.24130       -4.42440
H          5.54480        0.14150       -4.91800
