rmsd166.gzmat
 OpenBabel08211713403D

 39 41  0  0  1  0  0  0  0  0999 V2000
    0.0000    0.0000    0.0000 O   0  0  0  0  0  0  0  0  0  0  0  0
    1.3981    0.0000    0.0000 C   0  0  2  0  0  0  0  0  0  0  0  0
    1.8407    0.0000    1.3090 C   0  0  0  0  0  0  0  0  0  0  0  0
    0.7046   -0.0002    2.1371 N   0  0  0  0  0  0  0  0  0  0  0  0
   -0.3552   -0.0118    1.3486 C   0  0  0  0  0  0  0  0  0  0  0  0
   -1.7711   -0.0451    1.6362 C   0  0  0  0  0  0  0  0  0  0  0  0
   -2.1984   -0.0664    2.9690 C   0  0  0  0  0  0  0  0  0  0  0  0
   -3.5602   -0.0973    3.2555 C   0  0  0  0  0  0  0  0  0  0  0  0
   -4.4925   -0.1090    2.2189 C   0  0  0  0  0  0  0  0  0  0  0  0
   -4.0653   -0.0873    0.8914 C   0  0  0  0  0  0  0  0  0  0  0  0
   -2.7056   -0.0533    0.5949 C   0  0  0  0  0  0  0  0  0  0  0  0
    3.2068    0.0002    1.8482 C   0  0  0  0  0  0  0  0  0  0  0  0
    1.9586    0.0015   -1.2641 N   0  0  0  0  0  0  0  0  0  0  0  0
    2.9527    0.9288   -1.5706 C   0  0  0  0  0  0  0  0  0  0  0  0
    3.5328    1.6412   -0.7895 O   0  0  0  0  0  0  0  0  0  0  0  0
    3.2138    0.8414   -2.9080 O   0  0  0  0  0  0  0  0  0  0  0  0
    4.0863    1.8589   -3.4209 C   0  0  0  0  0  0  0  0  0  0  0  0
    3.3032    3.1217   -3.5980 C   0  0  0  0  0  0  0  0  0  0  0  0
    3.2984    4.0859   -2.5893 C   0  0  0  0  0  0  0  0  0  0  0  0
    2.5475    5.2488   -2.7445 C   0  0  0  0  0  0  0  0  0  0  0  0
    1.7981    5.4457   -3.9030 C   0  0  0  0  0  0  0  0  0  0  0  0
    1.7965    4.4782   -4.9066 C   0  0  0  0  0  0  0  0  0  0  0  0
    2.5490    3.3157   -4.7553 C   0  0  0  0  0  0  0  0  0  0  0  0
   -1.4592   -0.0582    3.7743 H   0  0  0  0  0  0  0  0  0  0  0  0
   -3.8963   -0.1128    4.2907 H   0  0  0  0  0  0  0  0  0  0  0  0
   -5.5569   -0.1345    2.4467 H   0  0  0  0  0  0  0  0  0  0  0  0
   -4.7957   -0.0959    0.0844 H   0  0  0  0  0  0  0  0  0  0  0  0
   -2.3714   -0.0314   -0.4428 H   0  0  0  0  0  0  0  0  0  0  0  0
    3.2132    0.1284    2.9438 H   0  0  0  0  0  0  0  0  0  0  0  0
    3.8062    0.8251    1.4170 H   0  0  0  0  0  0  0  0  0  0  0  0
    3.7366   -0.9386    1.6236 H   0  0  0  0  0  0  0  0  0  0  0  0
    1.4599   -0.4766   -2.0110 H   0  0  0  0  0  0  0  0  0  0  0  0
    4.4079    1.3989   -4.3767 H   0  0  0  0  0  0  0  0  0  0  0  0
    4.9631    1.9771   -2.7552 H   0  0  0  0  0  0  0  0  0  0  0  0
    3.8679    3.9202   -1.6717 H   0  0  0  0  0  0  0  0  0  0  0  0
    2.5418    6.0000   -1.9570 H   0  0  0  0  0  0  0  0  0  0  0  0
    1.2105    6.3541   -4.0233 H   0  0  0  0  0  0  0  0  0  0  0  0
    1.2047    4.6292   -5.8063 H   0  0  0  0  0  0  0  0  0  0  0  0
    2.5422    2.5574   -5.5365 H   0  0  0  0  0  0  0  0  0  0  0  0
  1  5  1  0  0  0  0
  2 13  1  6  0  0  0
  2  1  1  0  0  0  0
  2  3  1  0  0  0  0
  3 12  1  0  0  0  0
  3  4  2  0  0  0  0
  5  6  1  0  0  0  0
  5  4  2  0  0  0  0
  6  7  2  0  0  0  0
  7  8  1  0  0  0  0
  7 24  1  0  0  0  0
  8 25  1  0  0  0  0
  9 26  1  0  0  0  0
  9  8  2  0  0  0  0
 10  9  1  0  0  0  0
 11 10  2  0  0  0  0
 11  6  1  0  0  0  0
 12 29  1  0  0  0  0
 14 13  1  0  0  0  0
 14 15  2  0  0  0  0
 16 14  1  0  0  0  0
 17 16  1  0  0  0  0
 17 34  1  0  0  0  0
 18 17  1  0  0  0  0
 18 19  2  0  0  0  0
 19 35  1  0  0  0  0
 20 19  1  0  0  0  0
 20 36  1  0  0  0  0
 21 20  2  0  0  0  0
 22 23  2  0  0  0  0
 22 21  1  0  0  0  0
 23 18  1  0  0  0  0
 27 10  1  0  0  0  0
 28 11  1  0  0  0  0
 30 12  1  0  0  0  0
 31 12  1  0  0  0  0
 32 13  1  0  0  0  0
 33 17  1  0  0  0  0
 37 21  1  0  0  0  0
 38 22  1  0  0  0  0
 39 23  1  0  0  0  0
M  RAD  1   2   2
M  END
$$$$
