39
rmsd166.gzmat
O          0.00000        0.00000        0.00000
C          1.39810        0.00000        0.00000
C          1.84070        0.00000        1.30900
N          0.70460       -0.00020        2.13710
C         -0.35520       -0.01180        1.34860
C         -1.77110       -0.04510        1.63620
C         -2.19840       -0.06640        2.96900
C         -3.56020       -0.09730        3.25550
C         -4.49250       -0.10900        2.21890
C         -4.06530       -0.08730        0.89140
C         -2.70560       -0.05330        0.59490
C          3.20680        0.00020        1.84820
N          1.95860        0.00150       -1.26410
C          2.95270        0.92880       -1.57060
O          3.53280        1.64120       -0.78950
O          3.21380        0.84140       -2.90800
C          4.08630        1.85890       -3.42090
C          3.30320        3.12170       -3.59800
C          3.29840        4.08590       -2.58930
C          2.54750        5.24880       -2.74450
C          1.79810        5.44570       -3.90300
C          1.79650        4.47820       -4.90660
C          2.54900        3.31570       -4.75530
H         -1.45920       -0.05820        3.77430
H         -3.89630       -0.11280        4.29070
H         -5.55690       -0.13450        2.44670
H         -4.79570       -0.09590        0.08440
H         -2.37140       -0.03140       -0.44280
H          3.21320        0.12840        2.94380
H          3.80620        0.82510        1.41700
H          3.73660       -0.93860        1.62360
H          1.45990       -0.47660       -2.01100
H          4.40790        1.39890       -4.37670
H          4.96310        1.97710       -2.75520
H          3.86790        3.92020       -1.67170
H          2.54180        6.00000       -1.95700
H          1.21050        6.35410       -4.02330
H          1.20470        4.62920       -5.80630
H          2.54220        2.55740       -5.53650
