35
rmsd37.gzmat
C          0.00000        0.00000        0.00000
C          1.38970        0.00000        0.00000
C          2.04710        0.00000        1.22600
C          1.32890        0.00320        2.42970
C         -0.06090        0.00340        2.42880
C         -0.73100        0.00200        1.20630
C         -2.17630       -0.00720        0.94440
C         -3.18730       -0.02650        1.98690
C         -4.50820       -0.56950        1.87990
C         -5.07920       -0.35170        3.12980
N         -4.13390        0.29580        3.92890
C         -4.25110        0.73560        5.27190
C         -5.09920        0.04440        6.14580
C         -5.24260        0.50420        7.45150
C         -4.54270        1.62950        7.88330
C         -3.68580        2.29850        7.00990
C         -3.52940        1.85780        5.70010
N         -2.97920        0.49080        3.22630
O         -6.27580       -0.60890        3.69190
C         -7.23870       -1.11670        2.76320
N         -2.52880       -0.01700       -0.31540
S         -1.11960       -0.00850       -1.35240
H          1.95710       -0.00030       -0.92770
H          3.13590       -0.00330        1.25320
H          1.86900        0.00600        3.37540
H         -0.62340        0.00780        3.36650
H         -4.92630       -1.02340        1.01000
H         -5.63770       -0.84460        5.81790
H         -5.90560       -0.02230        8.13670
H         -4.66270        1.98490        8.90460
H         -3.13680        3.17460        7.35280
H         -2.85550        2.37230        5.01100
H         -6.91410       -2.08600        2.37030
H         -7.41760       -0.39690        1.95680
H         -8.13020       -1.22670        3.39400
