35
rmsd51.gzmat
C          0.00000        0.00000        0.00000
C          1.38980        0.00000        0.00000
C          2.04700        0.00000        1.22560
C          1.32720       -0.00130        2.42830
C         -0.06260       -0.00110        2.42680
C         -0.73450       -0.00390        1.20470
C         -2.18010       -0.00570        0.93890
C         -3.20950       -0.01590        1.96360
C         -4.62100        0.10170        1.74270
C         -5.18380        0.03640        3.01250
N         -4.14620       -0.11760        3.93680
C         -4.20700       -0.22570        5.34980
C         -3.19210       -0.90730        6.03640
C         -3.27250       -1.02400        7.41970
C         -4.34990       -0.47270        8.11280
C         -5.34820        0.21150        7.42200
C         -5.28290        0.34710        6.03810
N         -2.94450       -0.14680        3.28980
O         -6.43610        0.06980        3.50590
C         -7.44710        0.08380        2.49360
N         -2.52510        0.00260       -0.32450
S         -1.11460        0.00930       -1.35650
H          1.95670        0.00030       -0.92800
H          3.13570        0.00360        1.25380
H          1.86660       -0.00110        3.37430
H         -0.62080        0.00370        3.36730
H         -5.09190        0.21120        0.79110
H         -2.35170       -1.33670        5.48670
H         -2.48900       -1.55130        7.96340
H         -4.41020       -0.57460        9.19410
H         -6.18540        0.64790        7.96590
H         -6.05920        0.90000        5.50920
H         -7.37150       -0.80200        1.85400
H         -7.38490        1.00620        1.90650
H         -8.36730        0.05750        3.09170
