rmsd46.gzmat
 OpenBabel08211713403D

 35 38  0  0  0  0  0  0  0  0999 V2000
    0.0000    0.0000    0.0000 C   0  0  0  0  0  0  0  0  0  0  0  0
    1.3899    0.0000    0.0000 C   0  0  0  0  0  0  0  0  0  0  0  0
    2.0474    0.0000    1.2257 C   0  0  0  0  0  0  0  0  0  0  0  0
    1.3274    0.0015    2.4282 C   0  0  0  0  0  0  0  0  0  0  0  0
   -0.0623    0.0023    2.4265 C   0  0  0  0  0  0  0  0  0  0  0  0
   -0.7339    0.0017    1.2044 C   0  0  0  0  0  0  0  0  0  0  0  0
   -2.1798   -0.0067    0.9388 C   0  0  0  0  0  0  0  0  0  0  0  0
   -3.1946   -0.0189    1.9783 C   0  0  0  0  0  0  0  0  0  0  0  0
   -4.5624   -0.4214    1.8409 C   0  0  0  0  0  0  0  0  0  0  0  0
   -5.1090   -0.2521    3.1096 C   0  0  0  0  0  0  0  0  0  0  0  0
   -4.1049    0.2330    3.9520 N   0  0  0  0  0  0  0  0  0  0  0  0
   -4.1463    0.5541    5.3327 C   0  0  0  0  0  0  0  0  0  0  0  0
   -5.1191   -0.0277    6.1544 C   0  0  0  0  0  0  0  0  0  0  0  0
   -5.1495    0.3059    7.5061 C   0  0  0  0  0  0  0  0  0  0  0  0
   -4.2188    1.1971    8.0363 C   0  0  0  0  0  0  0  0  0  0  0  0
   -3.2460    1.7625    7.2115 C   0  0  0  0  0  0  0  0  0  0  0  0
   -3.2026    1.4498    5.8579 C   0  0  0  0  0  0  0  0  0  0  0  0
   -2.9388    0.3717    3.2538 N   0  0  0  0  0  0  0  0  0  0  0  0
   -6.3276   -0.4272    3.6541 O   0  0  0  0  0  0  0  0  0  0  0  0
   -7.3213   -0.8349    2.7086 C   0  0  0  0  0  0  0  0  0  0  0  0
   -2.5274   -0.0156   -0.3228 N   0  0  0  0  0  0  0  0  0  0  0  0
   -1.1156   -0.0088   -1.3554 S   0  0  0  0  0  0  0  0  0  0  0  0
    1.9556   -0.0011   -0.9286 H   0  0  0  0  0  0  0  0  0  0  0  0
    3.1363   -0.0026    1.2544 H   0  0  0  0  0  0  0  0  0  0  0  0
    1.8654    0.0011    3.3748 H   0  0  0  0  0  0  0  0  0  0  0  0
   -0.6203    0.0053    3.3671 H   0  0  0  0  0  0  0  0  0  0  0  0
   -5.0228   -0.7611    0.9404 H   0  0  0  0  0  0  0  0  0  0  0  0
   -5.8423   -0.7394    5.7571 H   0  0  0  0  0  0  0  0  0  0  0  0
   -5.9070   -0.1393    8.1503 H   0  0  0  0  0  0  0  0  0  0  0  0
   -4.2500    1.4511    9.0936 H   0  0  0  0  0  0  0  0  0  0  0  0
   -2.5143    2.4546    7.6271 H   0  0  0  0  0  0  0  0  0  0  0  0
   -2.4434    1.8902    5.2067 H   0  0  0  0  0  0  0  0  0  0  0  0
   -7.0955   -1.8392    2.3352 H   0  0  0  0  0  0  0  0  0  0  0  0
   -7.4022   -0.1123    1.8894 H   0  0  0  0  0  0  0  0  0  0  0  0
   -8.2318   -0.8355    3.3222 H   0  0  0  0  0  0  0  0  0  0  0  0
  1  6  1  0  0  0  0
  2  1  2  0  0  0  0
  2  3  1  0  0  0  0
  3 24  1  0  0  0  0
  3  4  2  0  0  0  0
  4 25  1  0  0  0  0
  5  4  1  0  0  0  0
  5 26  1  0  0  0  0
  6  5  2  0  0  0  0
  7  6  1  0  0  0  0
  7  8  1  0  0  0  0
  8 18  2  0  0  0  0
  9  8  1  0  0  0  0
  9 10  2  0  0  0  0
 10 19  1  0  0  0  0
 10 11  1  0  0  0  0
 11 12  1  0  0  0  0
 12 17  2  0  0  0  0
 12 13  1  0  0  0  0
 13 14  2  0  0  0  0
 14 15  1  0  0  0  0
 14 29  1  0  0  0  0
 15 30  1  0  0  0  0
 16 31  1  0  0  0  0
 16 15  2  0  0  0  0
 17 16  1  0  0  0  0
 18 11  1  0  0  0  0
 20 35  1  0  0  0  0
 20 19  1  0  0  0  0
 21  7  2  0  0  0  0
 22 21  1  0  0  0  0
 22  1  1  0  0  0  0
 23  2  1  0  0  0  0
 27  9  1  0  0  0  0
 28 13  1  0  0  0  0
 32 17  1  0  0  0  0
 33 20  1  0  0  0  0
 34 20  1  0  0  0  0
M  END
$$$$
