
     RDKit          3D

 35 38  0  0  0  0  0  0  0  0999 V2000
   -0.0293    0.0041    0.0367 C   0  0  0  0  0  0  0  0  0  0  0  0
    1.3729   -0.0026    0.0010 C   0  0  0  0  0  0  0  0  0  0  0  0
    2.0570   -0.0162    1.2113 C   0  0  0  0  0  0  0  0  0  0  0  0
    1.3632   -0.0201    2.4392 C   0  0  0  0  0  0  0  0  0  0  0  0
   -0.0254   -0.0144    2.4759 C   0  0  0  0  0  0  0  0  0  0  0  0
   -0.7415   -0.0053    1.2620 C   0  0  0  0  0  0  0  0  0  0  0  0
   -2.1732    0.0045    0.9996 C   0  0  0  0  0  0  0  0  0  0  0  0
   -3.2323   -0.0054    2.0113 C   0  0  0  0  0  0  0  0  0  0  0  0
   -4.6320    0.0756    1.7607 C   0  0  0  0  0  0  0  0  0  0  0  0
   -5.1982    0.0351    3.0203 C   0  0  0  0  0  0  0  0  0  0  0  0
   -4.1746   -0.0608    3.9360 N   0  0  0  0  0  0  0  0  0  0  0  0
   -4.2403   -0.1957    5.3467 C   0  0  0  0  0  0  0  0  0  0  0  0
   -3.2100   -0.8843    6.0033 C   0  0  0  0  0  0  0  0  0  0  0  0
   -3.2417   -1.0156    7.3909 C   0  0  0  0  0  0  0  0  0  0  0  0
   -4.2968   -0.4741    8.1317 C   0  0  0  0  0  0  0  0  0  0  0  0
   -5.3196    0.2096    7.4703 C   0  0  0  0  0  0  0  0  0  0  0  0
   -5.2965    0.3591    6.0822 C   0  0  0  0  0  0  0  0  0  0  0  0
   -2.9704   -0.0900    3.3118 N   0  0  0  0  0  0  0  0  0  0  0  0
   -6.4677    0.0515    3.4401 O   0  0  0  0  0  0  0  0  0  0  0  0
   -7.4561    0.0705    2.4231 C   0  0  0  0  0  0  0  0  0  0  0  0
   -2.5202    0.0253   -0.2678 N   0  0  0  0  0  0  0  0  0  0  0  0
   -1.1767    0.0294   -1.2806 S   0  0  0  0  0  0  0  0  0  0  0  0
    1.9122    0.0041   -0.9483 H   0  0  0  0  0  0  0  0  0  0  0  0
    3.1498   -0.0212    1.2102 H   0  0  0  0  0  0  0  0  0  0  0  0
    1.9283   -0.0259    3.3740 H   0  0  0  0  0  0  0  0  0  0  0  0
   -0.5764   -0.0119    3.4153 H   0  0  0  0  0  0  0  0  0  0  0  0
   -5.1168    0.1499    0.7938 H   0  0  0  0  0  0  0  0  0  0  0  0
   -2.3980   -1.3054    5.4119 H   0  0  0  0  0  0  0  0  0  0  0  0
   -2.4360   -1.5532    7.8965 H   0  0  0  0  0  0  0  0  0  0  0  0
   -4.3202   -0.5833    9.2182 H   0  0  0  0  0  0  0  0  0  0  0  0
   -6.1452    0.6437    8.0392 H   0  0  0  0  0  0  0  0  0  0  0  0
   -6.0893    0.9021    5.5726 H   0  0  0  0  0  0  0  0  0  0  0  0
   -7.3670   -0.8151    1.7717 H   0  0  0  0  0  0  0  0  0  0  0  0
   -7.3699    0.9810    1.8061 H   0  0  0  0  0  0  0  0  0  0  0  0
   -8.4288    0.0600    2.9302 H   0  0  0  0  0  0  0  0  0  0  0  0
  1  2  2  0
  1  6  1  0
  1 22  1  0
  2  3  1  0
  2 23  1  0
  3  4  2  0
  3 24  1  0
  4  5  1  0
  4 25  1  0
  5  6  2  0
  5 26  1  0
  6  7  1  0
  7  8  1  0
  7 21  2  0
  8  9  1  0
  8 18  2  0
  9 10  2  0
  9 27  1  0
 10 11  1  0
 10 19  1  0
 11 12  1  0
 11 18  1  0
 12 13  2  0
 12 17  1  0
 13 14  1  0
 13 28  1  0
 14 15  2  0
 14 29  1  0
 15 16  1  0
 15 30  1  0
 16 17  2  0
 16 31  1  0
 17 32  1  0
 19 20  1  0
 20 33  1  0
 20 34  1  0
 20 35  1  0
 21 22  1  0
M  END

