rmsd24.gzmat
 OpenBabel08211713403D

 35 38  0  0  0  0  0  0  0  0999 V2000
    0.0000    0.0000    0.0000 C   0  0  0  0  0  0  0  0  0  0  0  0
    1.3897    0.0000    0.0000 C   0  0  0  0  0  0  0  0  0  0  0  0
    2.0465    0.0000    1.2260 C   0  0  0  0  0  0  0  0  0  0  0  0
    1.3266   -0.0027    2.4288 C   0  0  0  0  0  0  0  0  0  0  0  0
   -0.0632   -0.0082    2.4276 C   0  0  0  0  0  0  0  0  0  0  0  0
   -0.7339   -0.0082    1.2050 C   0  0  0  0  0  0  0  0  0  0  0  0
   -2.1788   -0.0048    0.9387 C   0  0  0  0  0  0  0  0  0  0  0  0
   -3.2042   -0.0117    1.9673 C   0  0  0  0  0  0  0  0  0  0  0  0
   -4.5771    0.3586    1.7930 C   0  0  0  0  0  0  0  0  0  0  0  0
   -5.1541    0.1720    3.0447 C   0  0  0  0  0  0  0  0  0  0  0  0
   -4.1598   -0.2831    3.9155 N   0  0  0  0  0  0  0  0  0  0  0  0
   -4.2544   -0.6547    5.2806 C   0  0  0  0  0  0  0  0  0  0  0  0
   -5.2869   -0.1320    6.0691 C   0  0  0  0  0  0  0  0  0  0  0  0
   -5.3872   -0.5254    7.4008 C   0  0  0  0  0  0  0  0  0  0  0  0
   -4.4647   -1.4161    7.9460 C   0  0  0  0  0  0  0  0  0  0  0  0
   -3.4280   -1.9164    7.1579 C   0  0  0  0  0  0  0  0  0  0  0  0
   -3.3139   -1.5427    5.8236 C   0  0  0  0  0  0  0  0  0  0  0  0
   -2.9728   -0.3981    3.2485 N   0  0  0  0  0  0  0  0  0  0  0  0
   -6.3951    0.3109    3.5483 O   0  0  0  0  0  0  0  0  0  0  0  0
   -7.3479    0.7818    2.5893 C   0  0  0  0  0  0  0  0  0  0  0  0
   -2.5251    0.0124   -0.3237 N   0  0  0  0  0  0  0  0  0  0  0  0
   -1.1142    0.0159   -1.3560 S   0  0  0  0  0  0  0  0  0  0  0  0
    1.9564    0.0006   -0.9283 H   0  0  0  0  0  0  0  0  0  0  0  0
    3.1356    0.0033    1.2537 H   0  0  0  0  0  0  0  0  0  0  0  0
    1.8662    0.0008    3.3744 H   0  0  0  0  0  0  0  0  0  0  0  0
   -0.6240   -0.0125    3.3665 H   0  0  0  0  0  0  0  0  0  0  0  0
   -5.0190    0.6881    0.8797 H   0  0  0  0  0  0  0  0  0  0  0  0
   -6.0031    0.5809    5.6612 H   0  0  0  0  0  0  0  0  0  0  0  0
   -6.1929   -0.1294    8.0177 H   0  0  0  0  0  0  0  0  0  0  0  0
   -4.5526   -1.7186    8.9873 H   0  0  0  0  0  0  0  0  0  0  0  0
   -2.7032   -2.6065    7.5881 H   0  0  0  0  0  0  0  0  0  0  0  0
   -2.5041   -1.9309    5.2006 H   0  0  0  0  0  0  0  0  0  0  0  0
   -7.3992    0.1098    1.7254 H   0  0  0  0  0  0  0  0  0  0  0  0
   -7.1040    1.8049    2.2832 H   0  0  0  0  0  0  0  0  0  0  0  0
   -8.2821    0.7510    3.1648 H   0  0  0  0  0  0  0  0  0  0  0  0
  1  6  1  0  0  0  0
  2  1  2  0  0  0  0
  2  3  1  0  0  0  0
  3 24  1  0  0  0  0
  3  4  2  0  0  0  0
  4 25  1  0  0  0  0
  5  4  1  0  0  0  0
  5 26  1  0  0  0  0
  6  5  2  0  0  0  0
  7  6  1  0  0  0  0
  7  8  1  0  0  0  0
  8 18  2  0  0  0  0
  9  8  1  0  0  0  0
  9 10  2  0  0  0  0
 10 19  1  0  0  0  0
 10 11  1  0  0  0  0
 11 12  1  0  0  0  0
 12 17  2  0  0  0  0
 12 13  1  0  0  0  0
 13 14  2  0  0  0  0
 14 15  1  0  0  0  0
 14 29  1  0  0  0  0
 15 30  1  0  0  0  0
 16 31  1  0  0  0  0
 16 15  2  0  0  0  0
 17 16  1  0  0  0  0
 18 11  1  0  0  0  0
 20 35  1  0  0  0  0
 20 19  1  0  0  0  0
 21  7  2  0  0  0  0
 22 21  1  0  0  0  0
 22  1  1  0  0  0  0
 23  2  1  0  0  0  0
 27  9  1  0  0  0  0
 28 13  1  0  0  0  0
 32 17  1  0  0  0  0
 33 20  1  0  0  0  0
 34 20  1  0  0  0  0
M  END
$$$$
