35
rmsd46.gzmat
C          0.00000        0.00000        0.00000
C          1.38990        0.00000        0.00000
C          2.04740        0.00000        1.22570
C          1.32740        0.00150        2.42820
C         -0.06230        0.00230        2.42650
C         -0.73390        0.00170        1.20440
C         -2.17980       -0.00670        0.93880
C         -3.19460       -0.01890        1.97830
C         -4.56240       -0.42140        1.84090
C         -5.10900       -0.25210        3.10960
N         -4.10490        0.23300        3.95200
C         -4.14630        0.55410        5.33270
C         -5.11910       -0.02770        6.15440
C         -5.14950        0.30590        7.50610
C         -4.21880        1.19710        8.03630
C         -3.24600        1.76250        7.21150
C         -3.20260        1.44980        5.85790
N         -2.93880        0.37170        3.25380
O         -6.32760       -0.42720        3.65410
C         -7.32130       -0.83490        2.70860
N         -2.52740       -0.01560       -0.32280
S         -1.11560       -0.00880       -1.35540
H          1.95560       -0.00110       -0.92860
H          3.13630       -0.00260        1.25440
H          1.86540        0.00110        3.37480
H         -0.62030        0.00530        3.36710
H         -5.02280       -0.76110        0.94040
H         -5.84230       -0.73940        5.75710
H         -5.90700       -0.13930        8.15030
H         -4.25000        1.45110        9.09360
H         -2.51430        2.45460        7.62710
H         -2.44340        1.89020        5.20670
H         -7.09550       -1.83920        2.33520
H         -7.40220       -0.11230        1.88940
H         -8.23180       -0.83550        3.32220
