rmsd37.gzmat
 OpenBabel08211713403D

 35 38  0  0  0  0  0  0  0  0999 V2000
    0.0000    0.0000    0.0000 C   0  0  0  0  0  0  0  0  0  0  0  0
    1.3897    0.0000    0.0000 C   0  0  0  0  0  0  0  0  0  0  0  0
    2.0471    0.0000    1.2260 C   0  0  0  0  0  0  0  0  0  0  0  0
    1.3289    0.0032    2.4297 C   0  0  0  0  0  0  0  0  0  0  0  0
   -0.0609    0.0034    2.4288 C   0  0  0  0  0  0  0  0  0  0  0  0
   -0.7310    0.0020    1.2063 C   0  0  0  0  0  0  0  0  0  0  0  0
   -2.1763   -0.0072    0.9444 C   0  0  0  0  0  0  0  0  0  0  0  0
   -3.1873   -0.0265    1.9869 C   0  0  0  0  0  0  0  0  0  0  0  0
   -4.5082   -0.5695    1.8799 C   0  0  0  0  0  0  0  0  0  0  0  0
   -5.0792   -0.3517    3.1298 C   0  0  0  0  0  0  0  0  0  0  0  0
   -4.1339    0.2958    3.9289 N   0  0  0  0  0  0  0  0  0  0  0  0
   -4.2511    0.7356    5.2719 C   0  0  0  0  0  0  0  0  0  0  0  0
   -5.0992    0.0444    6.1458 C   0  0  0  0  0  0  0  0  0  0  0  0
   -5.2426    0.5042    7.4515 C   0  0  0  0  0  0  0  0  0  0  0  0
   -4.5427    1.6295    7.8833 C   0  0  0  0  0  0  0  0  0  0  0  0
   -3.6858    2.2985    7.0099 C   0  0  0  0  0  0  0  0  0  0  0  0
   -3.5294    1.8578    5.7001 C   0  0  0  0  0  0  0  0  0  0  0  0
   -2.9792    0.4908    3.2263 N   0  0  0  0  0  0  0  0  0  0  0  0
   -6.2758   -0.6089    3.6919 O   0  0  0  0  0  0  0  0  0  0  0  0
   -7.2387   -1.1167    2.7632 C   0  0  0  0  0  0  0  0  0  0  0  0
   -2.5288   -0.0170   -0.3154 N   0  0  0  0  0  0  0  0  0  0  0  0
   -1.1196   -0.0085   -1.3524 S   0  0  0  0  0  0  0  0  0  0  0  0
    1.9571   -0.0003   -0.9277 H   0  0  0  0  0  0  0  0  0  0  0  0
    3.1359   -0.0033    1.2532 H   0  0  0  0  0  0  0  0  0  0  0  0
    1.8690    0.0060    3.3754 H   0  0  0  0  0  0  0  0  0  0  0  0
   -0.6234    0.0078    3.3665 H   0  0  0  0  0  0  0  0  0  0  0  0
   -4.9263   -1.0234    1.0100 H   0  0  0  0  0  0  0  0  0  0  0  0
   -5.6377   -0.8446    5.8179 H   0  0  0  0  0  0  0  0  0  0  0  0
   -5.9056   -0.0223    8.1367 H   0  0  0  0  0  0  0  0  0  0  0  0
   -4.6627    1.9849    8.9046 H   0  0  0  0  0  0  0  0  0  0  0  0
   -3.1368    3.1746    7.3528 H   0  0  0  0  0  0  0  0  0  0  0  0
   -2.8555    2.3723    5.0110 H   0  0  0  0  0  0  0  0  0  0  0  0
   -6.9141   -2.0860    2.3703 H   0  0  0  0  0  0  0  0  0  0  0  0
   -7.4176   -0.3969    1.9568 H   0  0  0  0  0  0  0  0  0  0  0  0
   -8.1302   -1.2267    3.3940 H   0  0  0  0  0  0  0  0  0  0  0  0
  1  6  1  0  0  0  0
  2  1  2  0  0  0  0
  2  3  1  0  0  0  0
  3 24  1  0  0  0  0
  3  4  2  0  0  0  0
  4 25  1  0  0  0  0
  5  4  1  0  0  0  0
  5 26  1  0  0  0  0
  6  5  2  0  0  0  0
  7  6  1  0  0  0  0
  7  8  1  0  0  0  0
  8 18  2  0  0  0  0
  9  8  1  0  0  0  0
  9 10  2  0  0  0  0
 10 19  1  0  0  0  0
 10 11  1  0  0  0  0
 11 12  1  0  0  0  0
 12 17  2  0  0  0  0
 12 13  1  0  0  0  0
 13 14  2  0  0  0  0
 14 15  1  0  0  0  0
 14 29  1  0  0  0  0
 15 30  1  0  0  0  0
 16 31  1  0  0  0  0
 16 15  2  0  0  0  0
 17 16  1  0  0  0  0
 18 11  1  0  0  0  0
 20 35  1  0  0  0  0
 20 19  1  0  0  0  0
 21  7  2  0  0  0  0
 22 21  1  0  0  0  0
 22  1  1  0  0  0  0
 23  2  1  0  0  0  0
 27  9  1  0  0  0  0
 28 13  1  0  0  0  0
 32 17  1  0  0  0  0
 33 20  1  0  0  0  0
 34 20  1  0  0  0  0
M  END
$$$$
