rmsd195.gzmat
 OpenBabel08211713413D

 38 40  0  0  0  0  0  0  0  0999 V2000
    0.0000    0.0000    0.0000 O   0  0  0  0  0  0  0  0  0  0  0  0
    1.4204    0.0000    0.0000 C   0  0  0  0  0  0  0  0  0  0  0  0
   -0.6167    0.0000   -1.2145 C   0  0  0  0  0  0  0  0  0  0  0  0
   -2.0376   -0.0302   -1.0688 C   0  0  0  0  0  0  0  0  0  0  0  0
   -2.8470   -0.0361   -2.1768 C   0  0  0  0  0  0  0  0  0  0  0  0
   -2.2237   -0.0102   -3.4405 C   0  0  0  0  0  0  0  0  0  0  0  0
   -2.7822   -0.0093   -4.7111 N   0  0  0  0  0  0  0  0  0  0  0  0
   -3.7533   -0.0124   -4.9439 H   0  0  0  0  0  0  0  0  0  0  0  0
   -1.7451    0.0231   -5.6412 C   0  0  0  0  0  0  0  0  0  0  0  0
   -0.5181    0.0421   -4.9820 C   0  0  0  0  0  0  0  0  0  0  0  0
   -0.7975    0.0214   -3.5838 C   0  0  0  0  0  0  0  0  0  0  0  0
    0.0164    0.0264   -2.4383 C   0  0  0  0  0  0  0  0  0  0  0  0
   -2.1036    0.0415   -7.0735 C   0  0  0  0  0  0  0  0  0  0  0  0
   -3.2632    0.1135   -7.4254 O   0  0  0  0  0  0  0  0  0  0  0  0
   -1.0347   -0.0294   -7.9578 N   0  0  0  0  0  0  0  0  0  0  0  0
   -1.1316   -0.0133   -9.3669 C   0  0  0  0  0  0  0  0  0  0  0  0
   -2.3460    0.1115  -10.0571 C   0  0  0  0  0  0  0  0  0  0  0  0
   -2.3431    0.1255  -11.4476 C   0  0  0  0  0  0  0  0  0  0  0  0
   -1.1598    0.0148  -12.1750 C   0  0  0  0  0  0  0  0  0  0  0  0
    0.0383   -0.1111  -11.4699 C   0  0  0  0  0  0  0  0  0  0  0  0
    1.2723   -0.2347  -12.0257 O   0  0  0  0  0  0  0  0  0  0  0  0
    1.3557   -0.2051  -13.4438 C   0  0  0  0  0  0  0  0  0  0  0  0
    0.0766   -0.1251  -10.0715 C   0  0  0  0  0  0  0  0  0  0  0  0
    1.6520   -0.0186    1.0736 H   0  0  0  0  0  0  0  0  0  0  0  0
    1.8116    0.9127   -0.4606 H   0  0  0  0  0  0  0  0  0  0  0  0
    1.8125   -0.8960   -0.4918 H   0  0  0  0  0  0  0  0  0  0  0  0
   -2.4490   -0.0481   -0.0603 H   0  0  0  0  0  0  0  0  0  0  0  0
   -3.9304   -0.0605   -2.0939 H   0  0  0  0  0  0  0  0  0  0  0  0
    0.4587    0.0724   -5.4121 H   0  0  0  0  0  0  0  0  0  0  0  0
    1.0935    0.0517   -2.5465 H   0  0  0  0  0  0  0  0  0  0  0  0
   -0.0934   -0.1036   -7.5752 H   0  0  0  0  0  0  0  0  0  0  0  0
   -3.2916    0.1966   -9.5202 H   0  0  0  0  0  0  0  0  0  0  0  0
   -3.2901    0.2258  -11.9811 H   0  0  0  0  0  0  0  0  0  0  0  0
   -1.1831    0.0255  -13.2567 H   0  0  0  0  0  0  0  0  0  0  0  0
    2.4363   -0.3145  -13.6127 H   0  0  0  0  0  0  0  0  0  0  0  0
    1.0007    0.7531  -13.8361 H   0  0  0  0  0  0  0  0  0  0  0  0
    0.8117   -1.0460  -13.8855 H   0  0  0  0  0  0  0  0  0  0  0  0
    1.0319   -0.2223   -9.5667 H   0  0  0  0  0  0  0  0  0  0  0  0
  2  1  1  0  0  0  0
  2 24  1  0  0  0  0
  3  4  1  0  0  0  0
  3  1  1  0  0  0  0
  4 27  1  0  0  0  0
  5 28  1  0  0  0  0
  5  4  2  0  0  0  0
  6  5  1  0  0  0  0
  7  6  1  0  0  0  0
  8  7  1  0  0  0  0
  9 10  2  0  0  0  0
  9  7  1  0  0  0  0
 10 11  1  0  0  0  0
 11  6  2  0  0  0  0
 11 12  1  0  0  0  0
 12  3  2  0  0  0  0
 13  9  1  0  0  0  0
 14 13  2  0  0  0  0
 15 31  1  0  0  0  0
 15 13  1  0  0  0  0
 16 15  1  0  0  0  0
 17 32  1  0  0  0  0
 17 16  1  0  0  0  0
 18 17  2  0  0  0  0
 19 20  2  0  0  0  0
 19 18  1  0  0  0  0
 20 23  1  0  0  0  0
 21 20  1  0  0  0  0
 22 21  1  0  0  0  0
 23 38  1  0  0  0  0
 23 16  2  0  0  0  0
 25  2  1  0  0  0  0
 26  2  1  0  0  0  0
 29 10  1  0  0  0  0
 30 12  1  0  0  0  0
 33 18  1  0  0  0  0
 34 19  1  0  0  0  0
 35 22  1  0  0  0  0
 36 22  1  0  0  0  0
 37 22  1  0  0  0  0
M  END
$$$$
