38
rmsd235.gzmat
O          0.00000        0.00000        0.00000
C          1.42040        0.00000        0.00000
C         -0.61730        0.00000       -1.21420
C         -2.03820       -0.01370       -1.06640
C         -2.84930       -0.01560       -2.17300
C         -2.22740       -0.00360       -3.43750
N         -2.78830        0.00060       -4.70680
H         -3.75960       -0.01880       -4.93750
C         -1.75260        0.01980       -5.63910
C         -0.52420        0.02490       -4.98230
C         -0.80110        0.01180       -3.58330
C          0.01450        0.01250       -2.43900
C         -2.11650        0.03410       -7.07010
O         -3.27490       -0.06430       -7.41990
N         -1.05640        0.17810       -7.95580
C         -1.16810        0.25010       -9.36210
C         -2.37430        0.06070      -10.05210
C         -2.38980        0.15300      -11.43950
C         -1.23210        0.43030      -12.16370
C         -0.04140        0.61330      -11.45880
O          1.16860        0.89270      -12.01110
C          1.22320        1.03000      -13.42430
C          0.01550        0.52440      -10.06380
H          1.65210       -0.01090        1.07360
H          1.81100        0.90950       -0.46680
H          1.81160       -0.89980       -0.48530
H         -2.44910       -0.02260       -0.05780
H         -3.93270       -0.02480       -2.08710
H          0.45240        0.03210       -5.41390
H          1.09150        0.02270       -2.54810
H         -0.11610        0.27460       -7.57600
H         -3.30020       -0.15600       -9.51740
H         -3.33110        0.00560      -11.97220
H         -1.26920        0.49870      -13.24300
H          2.28050        1.27740      -13.59120
H          0.58100        1.84850      -13.76420
H          0.96710        0.08680      -13.91690
H          0.96470        0.67360       -9.56030
