38
rmsd195.gzmat
O          0.00000        0.00000        0.00000
C          1.42040        0.00000        0.00000
C         -0.61670        0.00000       -1.21450
C         -2.03760       -0.03020       -1.06880
C         -2.84700       -0.03610       -2.17680
C         -2.22370       -0.01020       -3.44050
N         -2.78220       -0.00930       -4.71110
H         -3.75330       -0.01240       -4.94390
C         -1.74510        0.02310       -5.64120
C         -0.51810        0.04210       -4.98200
C         -0.79750        0.02140       -3.58380
C          0.01640        0.02640       -2.43830
C         -2.10360        0.04150       -7.07350
O         -3.26320        0.11350       -7.42540
N         -1.03470       -0.02940       -7.95780
C         -1.13160       -0.01330       -9.36690
C         -2.34600        0.11150      -10.05710
C         -2.34310        0.12550      -11.44760
C         -1.15980        0.01480      -12.17500
C          0.03830       -0.11110      -11.46990
O          1.27230       -0.23470      -12.02570
C          1.35570       -0.20510      -13.44380
C          0.07660       -0.12510      -10.07150
H          1.65200       -0.01860        1.07360
H          1.81160        0.91270       -0.46060
H          1.81250       -0.89600       -0.49180
H         -2.44900       -0.04810       -0.06030
H         -3.93040       -0.06050       -2.09390
H          0.45870        0.07240       -5.41210
H          1.09350        0.05170       -2.54650
H         -0.09340       -0.10360       -7.57520
H         -3.29160        0.19660       -9.52020
H         -3.29010        0.22580      -11.98110
H         -1.18310        0.02550      -13.25670
H          2.43630       -0.31450      -13.61270
H          1.00070        0.75310      -13.83610
H          0.81170       -1.04600      -13.88550
H          1.03190       -0.22230       -9.56670
