38
rmsd196.gzmat
O          0.00000        0.00000        0.00000
C          1.42010        0.00000        0.00000
C         -0.61760        0.00000       -1.21420
C         -2.03780       -0.04190       -1.06560
C         -2.84900       -0.05460       -2.17200
C         -2.22800       -0.02400       -3.43660
N         -2.78980       -0.03380       -4.70530
H         -3.76140       -0.06460       -4.93580
C         -1.75580        0.00580       -5.63850
C         -0.52720        0.04440       -4.98260
C         -0.80260        0.02410       -3.58330
C          0.01330        0.03610       -2.43880
C         -2.12350       -0.00810       -7.06830
O         -3.28840       -0.02300       -7.41070
N         -1.06060       -0.01120       -7.96190
C         -1.17510       -0.05230       -9.36930
C         -2.40080        0.02150      -10.04680
C         -2.41720       -0.02470      -11.43650
C         -1.24130       -0.14010      -12.17510
C         -0.03140       -0.20890      -11.48240
O          1.19790       -0.32470      -12.05060
C          1.25790       -0.35430      -13.46990
C          0.02610       -0.16680      -10.08520
H          1.65210       -0.03050        1.07330
H          1.80940        0.91800       -0.45090
H          1.81270       -0.88990       -0.50190
H         -2.44740       -0.06460       -0.05650
H         -3.93200       -0.08920       -2.08670
H          0.44770        0.08320       -5.41590
H          1.08970        0.07170       -2.54780
H         -0.11250       -0.00960       -7.58980
H         -3.34070        0.11400       -9.50080
H         -3.37360        0.03070      -11.95980
H         -1.27990       -0.17510      -13.25590
H          2.33720       -0.44590      -13.65300
H          0.87450        0.57780      -13.89620
H          0.72680       -1.22540      -13.86560
H          0.98940       -0.22580       -9.59030
