rmsd167.gzmat
 OpenBabel08211713413D

 38 40  0  0  0  0  0  0  0  0999 V2000
    0.0000    0.0000    0.0000 O   0  0  0  0  0  0  0  0  0  0  0  0
    1.4203    0.0000    0.0000 C   0  0  0  0  0  0  0  0  0  0  0  0
   -0.6174    0.0000   -1.2144 C   0  0  0  0  0  0  0  0  0  0  0  0
   -2.0340    0.1136   -1.0702 C   0  0  0  0  0  0  0  0  0  0  0  0
   -2.8423    0.1416   -2.1789 C   0  0  0  0  0  0  0  0  0  0  0  0
   -2.2227    0.0537   -3.4416 C   0  0  0  0  0  0  0  0  0  0  0  0
   -2.7793    0.0702   -4.7144 N   0  0  0  0  0  0  0  0  0  0  0  0
   -3.7407    0.1991   -4.9502 H   0  0  0  0  0  0  0  0  0  0  0  0
   -1.7444   -0.0403   -5.6403 C   0  0  0  0  0  0  0  0  0  0  0  0
   -0.5230   -0.1392   -4.9791 C   0  0  0  0  0  0  0  0  0  0  0  0
   -0.8022   -0.0763   -3.5818 C   0  0  0  0  0  0  0  0  0  0  0  0
    0.0112   -0.1016   -2.4365 C   0  0  0  0  0  0  0  0  0  0  0  0
   -2.0753    0.0202   -7.0775 C   0  0  0  0  0  0  0  0  0  0  0  0
   -3.1378    0.4641   -7.4625 O   0  0  0  0  0  0  0  0  0  0  0  0
   -1.0935   -0.4552   -7.9370 N   0  0  0  0  0  0  0  0  0  0  0  0
   -1.1834   -0.4199   -9.3491 C   0  0  0  0  0  0  0  0  0  0  0  0
   -0.3566   -1.2973  -10.0711 C   0  0  0  0  0  0  0  0  0  0  0  0
   -0.3897   -1.2779  -11.4642 C   0  0  0  0  0  0  0  0  0  0  0  0
   -1.2160   -0.3977  -12.1483 C   0  0  0  0  0  0  0  0  0  0  0  0
   -2.0246    0.4770  -11.4045 C   0  0  0  0  0  0  0  0  0  0  0  0
   -2.7743    1.2977  -12.1819 O   0  0  0  0  0  0  0  0  0  0  0  0
   -3.6136    2.2347  -11.5175 C   0  0  0  0  0  0  0  0  0  0  0  0
   -2.0248    0.4791  -10.0110 C   0  0  0  0  0  0  0  0  0  0  0  0
    1.6524    0.0210    1.0734 H   0  0  0  0  0  0  0  0  0  0  0  0
    1.8108    0.8961   -0.4924 H   0  0  0  0  0  0  0  0  0  0  0  0
    1.8117   -0.9135   -0.4580 H   0  0  0  0  0  0  0  0  0  0  0  0
   -2.4426    0.1797   -0.0622 H   0  0  0  0  0  0  0  0  0  0  0  0
   -3.9222    0.2316   -2.0958 H   0  0  0  0  0  0  0  0  0  0  0  0
    0.4500   -0.2255   -5.4105 H   0  0  0  0  0  0  0  0  0  0  0  0
    1.0843   -0.1950   -2.5438 H   0  0  0  0  0  0  0  0  0  0  0  0
   -0.2704   -0.9048   -7.5445 H   0  0  0  0  0  0  0  0  0  0  0  0
    0.2971   -1.9931   -9.5574 H   0  0  0  0  0  0  0  0  0  0  0  0
    0.2432   -1.9671  -12.0256 H   0  0  0  0  0  0  0  0  0  0  0  0
   -1.2479   -0.3729  -13.2328 H   0  0  0  0  0  0  0  0  0  0  0  0
   -4.0746    2.7698  -12.3581 H   0  0  0  0  0  0  0  0  0  0  0  0
   -3.0237    2.9204  -10.9009 H   0  0  0  0  0  0  0  0  0  0  0  0
   -4.3762    1.7205  -10.9222 H   0  0  0  0  0  0  0  0  0  0  0  0
   -2.6644    1.1566   -9.4491 H   0  0  0  0  0  0  0  0  0  0  0  0
  2  1  1  0  0  0  0
  2 24  1  0  0  0  0
  3  4  1  0  0  0  0
  3  1  1  0  0  0  0
  4 27  1  0  0  0  0
  5 28  1  0  0  0  0
  5  4  2  0  0  0  0
  6  5  1  0  0  0  0
  7  6  1  0  0  0  0
  8  7  1  0  0  0  0
  9 10  2  0  0  0  0
  9  7  1  0  0  0  0
 10 11  1  0  0  0  0
 11  6  2  0  0  0  0
 11 12  1  0  0  0  0
 12  3  2  0  0  0  0
 13  9  1  0  0  0  0
 14 13  2  0  0  0  0
 15 31  1  0  0  0  0
 15 13  1  0  0  0  0
 16 15  1  0  0  0  0
 17 32  1  0  0  0  0
 17 16  2  0  0  0  0
 18 17  1  0  0  0  0
 19 18  2  0  0  0  0
 19 20  1  0  0  0  0
 20 23  2  0  0  0  0
 21 22  1  0  0  0  0
 21 20  1  0  0  0  0
 22 37  1  0  0  0  0
 22 36  1  0  0  0  0
 23 38  1  0  0  0  0
 23 16  1  0  0  0  0
 25  2  1  0  0  0  0
 26  2  1  0  0  0  0
 29 10  1  0  0  0  0
 30 12  1  0  0  0  0
 33 18  1  0  0  0  0
 34 19  1  0  0  0  0
 35 22  1  0  0  0  0
M  END
$$$$
