rmsd184.gzmat
 OpenBabel08211713413D

 38 40  0  0  0  0  0  0  0  0999 V2000
    0.0000    0.0000    0.0000 O   0  0  0  0  0  0  0  0  0  0  0  0
    1.4204    0.0000    0.0000 C   0  0  0  0  0  0  0  0  0  0  0  0
   -0.6177    0.0000   -1.2139 C   0  0  0  0  0  0  0  0  0  0  0  0
   -2.0385   -0.0175   -1.0656 C   0  0  0  0  0  0  0  0  0  0  0  0
   -2.8494   -0.0216   -2.1720 C   0  0  0  0  0  0  0  0  0  0  0  0
   -2.2280   -0.0061   -3.4367 C   0  0  0  0  0  0  0  0  0  0  0  0
   -2.7887   -0.0047   -4.7061 N   0  0  0  0  0  0  0  0  0  0  0  0
   -3.7601   -0.0203   -4.9380 H   0  0  0  0  0  0  0  0  0  0  0  0
   -1.7530    0.0184   -5.6383 C   0  0  0  0  0  0  0  0  0  0  0  0
   -0.5248    0.0284   -4.9814 C   0  0  0  0  0  0  0  0  0  0  0  0
   -0.8020    0.0132   -3.5825 C   0  0  0  0  0  0  0  0  0  0  0  0
    0.0139    0.0148   -2.4387 C   0  0  0  0  0  0  0  0  0  0  0  0
   -2.1173    0.0277   -7.0692 C   0  0  0  0  0  0  0  0  0  0  0  0
   -3.2814   -0.0228   -7.4132 O   0  0  0  0  0  0  0  0  0  0  0  0
   -1.0554    0.1013   -7.9603 N   0  0  0  0  0  0  0  0  0  0  0  0
   -1.1650    0.1321   -9.3695 C   0  0  0  0  0  0  0  0  0  0  0  0
    0.0403    0.2161  -10.0914 C   0  0  0  0  0  0  0  0  0  0  0  0
    0.0071    0.2581  -11.4833 C   0  0  0  0  0  0  0  0  0  0  0  0
   -1.1968    0.2170  -12.1718 C   0  0  0  0  0  0  0  0  0  0  0  0
   -2.3866    0.1279  -11.4309 C   0  0  0  0  0  0  0  0  0  0  0  0
   -3.4939    0.0921  -12.2131 O   0  0  0  0  0  0  0  0  0  0  0  0
   -4.7538   -0.0137  -11.5609 C   0  0  0  0  0  0  0  0  0  0  0  0
   -2.3923    0.0847  -10.0374 C   0  0  0  0  0  0  0  0  0  0  0  0
    1.6522   -0.0041    1.0738 H   0  0  0  0  0  0  0  0  0  0  0  0
    1.8125    0.9059   -0.4728 H   0  0  0  0  0  0  0  0  0  0  0  0
    1.8103   -0.9035   -0.4792 H   0  0  0  0  0  0  0  0  0  0  0  0
   -2.4484   -0.0282   -0.0564 H   0  0  0  0  0  0  0  0  0  0  0  0
   -3.9326   -0.0352   -2.0862 H   0  0  0  0  0  0  0  0  0  0  0  0
    0.4511    0.0428   -5.4132 H   0  0  0  0  0  0  0  0  0  0  0  0
    1.0906    0.0273   -2.5487 H   0  0  0  0  0  0  0  0  0  0  0  0
   -0.1096    0.1430   -7.5852 H   0  0  0  0  0  0  0  0  0  0  0  0
    0.9936    0.2480   -9.5766 H   0  0  0  0  0  0  0  0  0  0  0  0
    0.9432    0.3247  -12.0403 H   0  0  0  0  0  0  0  0  0  0  0  0
   -1.2351    0.2508  -13.2558 H   0  0  0  0  0  0  0  0  0  0  0  0
   -5.4516   -0.0239  -12.4084 H   0  0  0  0  0  0  0  0  0  0  0  0
   -4.9376    0.8553  -10.9207 H   0  0  0  0  0  0  0  0  0  0  0  0
   -4.8222   -0.9466  -10.9915 H   0  0  0  0  0  0  0  0  0  0  0  0
   -3.3285    0.0165   -9.4855 H   0  0  0  0  0  0  0  0  0  0  0  0
  2  1  1  0  0  0  0
  2 24  1  0  0  0  0
  3  4  1  0  0  0  0
  3  1  1  0  0  0  0
  4 27  1  0  0  0  0
  5 28  1  0  0  0  0
  5  4  2  0  0  0  0
  6  5  1  0  0  0  0
  7  6  1  0  0  0  0
  8  7  1  0  0  0  0
  9 10  2  0  0  0  0
  9  7  1  0  0  0  0
 10 11  1  0  0  0  0
 11  6  2  0  0  0  0
 11 12  1  0  0  0  0
 12  3  2  0  0  0  0
 13  9  1  0  0  0  0
 14 13  2  0  0  0  0
 15 31  1  0  0  0  0
 15 13  1  0  0  0  0
 16 15  1  0  0  0  0
 17 32  1  0  0  0  0
 17 16  2  0  0  0  0
 18 17  1  0  0  0  0
 19 18  2  0  0  0  0
 19 20  1  0  0  0  0
 20 23  2  0  0  0  0
 21 22  1  0  0  0  0
 21 20  1  0  0  0  0
 22 37  1  0  0  0  0
 22 36  1  0  0  0  0
 23 38  1  0  0  0  0
 23 16  1  0  0  0  0
 25  2  1  0  0  0  0
 26  2  1  0  0  0  0
 29 10  1  0  0  0  0
 30 12  1  0  0  0  0
 33 18  1  0  0  0  0
 34 19  1  0  0  0  0
 35 22  1  0  0  0  0
M  END
$$$$
