
     RDKit          3D

 38 40  0  0  0  0  0  0  0  0999 V2000
    0.0415   -0.0136    0.0114 O   0  0  0  0  0  0  0  0  0  0  0  0
    1.4463    0.0411   -0.0021 C   0  0  0  0  0  0  0  0  0  0  0  0
   -0.6222   -0.0157   -1.1767 C   0  0  0  0  0  0  0  0  0  0  0  0
   -2.0393   -0.0724   -1.0649 C   0  0  0  0  0  0  0  0  0  0  0  0
   -2.8548   -0.0816   -2.1825 C   0  0  0  0  0  0  0  0  0  0  0  0
   -2.2403   -0.0329   -3.4448 C   0  0  0  0  0  0  0  0  0  0  0  0
   -2.7748   -0.0284   -4.7081 N   0  0  0  0  0  0  0  0  0  0  0  0
   -3.7499   -0.0601   -4.9817 H   0  0  0  0  0  0  0  0  0  0  0  0
   -1.7652    0.0289   -5.6401 C   0  0  0  0  0  0  0  0  0  0  0  0
   -0.5428    0.0628   -4.9817 C   0  0  0  0  0  0  0  0  0  0  0  0
   -0.8209    0.0243   -3.5786 C   0  0  0  0  0  0  0  0  0  0  0  0
   -0.0056    0.0327   -2.4231 C   0  0  0  0  0  0  0  0  0  0  0  0
   -2.1730    0.0417   -7.0616 C   0  0  0  0  0  0  0  0  0  0  0  0
   -3.3622    0.0038   -7.3614 O   0  0  0  0  0  0  0  0  0  0  0  0
   -1.1392    0.0973   -7.9602 N   0  0  0  0  0  0  0  0  0  0  0  0
   -1.1838    0.1232   -9.3642 C   0  0  0  0  0  0  0  0  0  0  0  0
    0.0386    0.1803  -10.0517 C   0  0  0  0  0  0  0  0  0  0  0  0
    0.0433    0.2078  -11.4477 C   0  0  0  0  0  0  0  0  0  0  0  0
   -1.1462    0.1795  -12.1685 C   0  0  0  0  0  0  0  0  0  0  0  0
   -2.3676    0.1223  -11.4760 C   0  0  0  0  0  0  0  0  0  0  0  0
   -3.4867    0.0974  -12.2398 O   0  0  0  0  0  0  0  0  0  0  0  0
   -4.7450    0.0409  -11.6049 C   0  0  0  0  0  0  0  0  0  0  0  0
   -2.3956    0.0939  -10.0759 C   0  0  0  0  0  0  0  0  0  0  0  0
    1.7740    0.0331    1.0461 H   0  0  0  0  0  0  0  0  0  0  0  0
    1.8171    0.9630   -0.4869 H   0  0  0  0  0  0  0  0  0  0  0  0
    1.8866   -0.8295   -0.5223 H   0  0  0  0  0  0  0  0  0  0  0  0
   -2.4618   -0.1085   -0.0593 H   0  0  0  0  0  0  0  0  0  0  0  0
   -3.9413   -0.1253   -2.0818 H   0  0  0  0  0  0  0  0  0  0  0  0
    0.4447    0.1101   -5.4374 H   0  0  0  0  0  0  0  0  0  0  0  0
    1.0779    0.0764   -2.5260 H   0  0  0  0  0  0  0  0  0  0  0  0
   -0.2085    0.1230   -7.5628 H   0  0  0  0  0  0  0  0  0  0  0  0
    0.9792    0.2030   -9.4954 H   0  0  0  0  0  0  0  0  0  0  0  0
    0.9963    0.2522  -11.9802 H   0  0  0  0  0  0  0  0  0  0  0  0
   -1.1616    0.2003  -13.2590 H   0  0  0  0  0  0  0  0  0  0  0  0
   -5.4977    0.0302  -12.4043 H   0  0  0  0  0  0  0  0  0  0  0  0
   -4.9172    0.9191  -10.9580 H   0  0  0  0  0  0  0  0  0  0  0  0
   -4.8544   -0.8719  -10.9931 H   0  0  0  0  0  0  0  0  0  0  0  0
   -3.3229    0.0496   -9.5158 H   0  0  0  0  0  0  0  0  0  0  0  0
  1  2  1  0
  1  3  1  0
  2 24  1  0
  2 25  1  0
  2 26  1  0
  3  4  2  0
  3 12  1  0
  4  5  1  0
  4 27  1  0
  5  6  2  0
  5 28  1  0
  6  7  1  0
  6 11  1  0
  7  8  1  0
  7  9  1  0
  9 10  2  0
  9 13  1  0
 10 11  1  0
 10 29  1  0
 11 12  2  0
 12 30  1  0
 13 14  2  0
 13 15  1  0
 15 16  1  0
 15 31  1  0
 16 17  2  0
 16 23  1  0
 17 18  1  0
 17 32  1  0
 18 19  2  0
 18 33  1  0
 19 20  1  0
 19 34  1  0
 20 21  1  0
 20 23  2  0
 21 22  1  0
 22 35  1  0
 22 36  1  0
 22 37  1  0
 23 38  1  0
M  END

