
     RDKit          3D

 38 40  0  0  0  0  0  0  0  0999 V2000
    0.0538   -0.0139    0.0078 O   0  0  0  0  0  0  0  0  0  0  0  0
    1.4587   -0.0611   -0.0105 C   0  0  0  0  0  0  0  0  0  0  0  0
   -0.6133    0.0026   -1.1787 C   0  0  0  0  0  0  0  0  0  0  0  0
   -2.0302    0.0512   -1.0625 C   0  0  0  0  0  0  0  0  0  0  0  0
   -2.8485    0.0733   -2.1780 C   0  0  0  0  0  0  0  0  0  0  0  0
   -2.2370    0.0461   -3.4423 C   0  0  0  0  0  0  0  0  0  0  0  0
   -2.7746    0.0580   -4.7042 N   0  0  0  0  0  0  0  0  0  0  0  0
   -3.7504    0.0902   -4.9756 H   0  0  0  0  0  0  0  0  0  0  0  0
   -1.7672    0.0190   -5.6393 C   0  0  0  0  0  0  0  0  0  0  0  0
   -0.5430   -0.0192   -4.9848 C   0  0  0  0  0  0  0  0  0  0  0  0
   -0.8177   -0.0028   -3.5804 C   0  0  0  0  0  0  0  0  0  0  0  0
    0.0004   -0.0246   -2.4272 C   0  0  0  0  0  0  0  0  0  0  0  0
   -2.1800    0.0264   -7.0602 C   0  0  0  0  0  0  0  0  0  0  0  0
   -3.3681    0.0670   -7.3568 O   0  0  0  0  0  0  0  0  0  0  0  0
   -1.1464   -0.0151   -7.9618 N   0  0  0  0  0  0  0  0  0  0  0  0
   -1.1954   -0.0194   -9.3650 C   0  0  0  0  0  0  0  0  0  0  0  0
   -2.4002    0.0214  -10.0937 C   0  0  0  0  0  0  0  0  0  0  0  0
   -2.3375    0.0132  -11.4847 C   0  0  0  0  0  0  0  0  0  0  0  0
   -1.1238   -0.0341  -12.1787 C   0  0  0  0  0  0  0  0  0  0  0  0
    0.0707   -0.0746  -11.4449 C   0  0  0  0  0  0  0  0  0  0  0  0
    1.3103   -0.1222  -11.9962 O   0  0  0  0  0  0  0  0  0  0  0  0
    1.4308   -0.1333  -13.3996 C   0  0  0  0  0  0  0  0  0  0  0  0
    0.0281   -0.0670  -10.0450 C   0  0  0  0  0  0  0  0  0  0  0  0
    1.7894   -0.0667    1.0368 H   0  0  0  0  0  0  0  0  0  0  0  0
    1.8931    0.8192   -0.5192 H   0  0  0  0  0  0  0  0  0  0  0  0
    1.8329   -0.9739   -0.5098 H   0  0  0  0  0  0  0  0  0  0  0  0
   -2.4503    0.0706   -0.0555 H   0  0  0  0  0  0  0  0  0  0  0  0
   -3.9349    0.1106   -2.0740 H   0  0  0  0  0  0  0  0  0  0  0  0
    0.4435   -0.0548   -5.4436 H   0  0  0  0  0  0  0  0  0  0  0  0
    1.0839   -0.0619   -2.5334 H   0  0  0  0  0  0  0  0  0  0  0  0
   -0.2153   -0.0471   -7.5657 H   0  0  0  0  0  0  0  0  0  0  0  0
   -3.3474    0.0582   -9.5641 H   0  0  0  0  0  0  0  0  0  0  0  0
   -3.2698    0.0448  -12.0540 H   0  0  0  0  0  0  0  0  0  0  0  0
   -1.1211   -0.0388  -13.2677 H   0  0  0  0  0  0  0  0  0  0  0  0
    2.5053   -0.1739  -13.6221 H   0  0  0  0  0  0  0  0  0  0  0  0
    1.0045    0.7784  -13.8557 H   0  0  0  0  0  0  0  0  0  0  0  0
    0.9384   -1.0154  -13.8472 H   0  0  0  0  0  0  0  0  0  0  0  0
    0.9763   -0.0993   -9.5033 H   0  0  0  0  0  0  0  0  0  0  0  0
  1  2  1  0
  1  3  1  0
  2 24  1  0
  2 25  1  0
  2 26  1  0
  3  4  2  0
  3 12  1  0
  4  5  1  0
  4 27  1  0
  5  6  2  0
  5 28  1  0
  6  7  1  0
  6 11  1  0
  7  8  1  0
  7  9  1  0
  9 10  2  0
  9 13  1  0
 10 11  1  0
 10 29  1  0
 11 12  2  0
 12 30  1  0
 13 14  2  0
 13 15  1  0
 15 16  1  0
 15 31  1  0
 16 17  2  0
 16 23  1  0
 17 18  1  0
 17 32  1  0
 18 19  2  0
 18 33  1  0
 19 20  1  0
 19 34  1  0
 20 21  1  0
 20 23  2  0
 21 22  1  0
 22 35  1  0
 22 36  1  0
 22 37  1  0
 23 38  1  0
M  END

