38
rmsd193.gzmat
O          0.00000        0.00000        0.00000
C          1.42020        0.00000        0.00000
C         -0.61800        0.00000       -1.21390
C         -2.03900       -0.01190       -1.06560
C         -2.85010       -0.01610       -2.17220
C         -2.22830       -0.00490       -3.43650
N         -2.79060       -0.00020       -4.70530
H         -3.76170       -0.03350       -4.93580
C         -1.75570        0.02170       -5.63810
C         -0.52660        0.02890       -4.98290
C         -0.80210        0.01250       -3.58330
C          0.01380        0.01150       -2.43870
C         -2.12170        0.02270       -7.06800
O         -3.27240       -0.15560       -7.41550
N         -1.08000        0.24870       -7.95730
C         -1.21090        0.29980       -9.36460
C         -0.10750        0.79060      -10.08620
C         -0.17140        0.85700      -11.47630
C         -1.30660        0.44680      -12.16130
C         -2.39390       -0.04320      -11.41980
O         -3.44210       -0.41210      -12.19760
C         -4.59680       -0.92080      -11.54100
C         -2.36350       -0.12970      -10.02890
H          1.65180       -0.00300        1.07370
H          1.81190        0.90570       -0.47370
H          1.81130       -0.90340       -0.47900
H         -2.44950       -0.01700       -0.05660
H         -3.93350       -0.02590       -2.08750
H          0.44850        0.03540       -5.41760
H          1.09100        0.01890       -2.54790
H         -0.15160        0.43610       -7.58460
H          0.78840        1.12200       -9.57280
H          0.68510        1.23910      -12.03420
H         -1.36880        0.49730      -13.24360
H         -5.28620       -1.08420      -12.38030
H         -5.01000       -0.18670      -10.84070
H         -4.36900       -1.86510      -11.03550
H         -3.21490       -0.52030       -9.47400
