32
rmsd1.gzmat
C          0.00000        0.00000        0.00000
C          1.47060        0.00000        0.00000
N          2.31200        0.00000        0.97850
O          1.71290       -0.00110        2.21450
C          1.88720        0.00230       -1.44820
C          3.09980       -0.00060       -2.05800
C          3.19140        0.00210       -3.55170
O          2.30180        0.00430       -4.37500
N          4.55060        0.00170       -3.90350
C          5.33590       -0.00270       -2.73360
C          4.47570       -0.00530       -1.58260
C          5.06180       -0.01120       -0.33270
C          6.46080       -0.01400       -0.22650
C          7.27180       -0.01060       -1.35460
C          6.71590       -0.00500       -2.63950
N          0.70010        0.00980       -2.19490
C         -0.42530        0.00430       -1.35950
C         -1.76750        0.00520       -1.70840
C         -2.69520        0.00140       -0.66140
C         -2.29150       -0.00250        0.67260
C         -0.93330       -0.00320        1.01710
H          2.50560       -0.00010        2.84030
H          4.90710        0.00330       -4.83450
H          4.46390       -0.01400        0.57680
H          6.91250       -0.01880        0.76280
H          8.35490       -0.01260       -1.24530
H          7.34860       -0.00240       -3.51940
H          0.68830        0.00470       -3.20890
H         -2.08940        0.00850       -2.74460
H         -3.76050        0.00200       -0.89930
H         -3.04000       -0.00500        1.46210
H         -0.62950       -0.00620        2.06350
