32

C         -0.01120       -0.00090        0.01310
C          1.45810       -0.00290        0.01550
N          2.30520       -0.00620        0.98960
O          1.69330       -0.00800        2.21610
C          1.88280       -0.00040       -1.41360
C          3.11860       -0.00100       -2.03020
C          3.16970        0.00180       -3.51930
O          2.23930        0.00480       -4.32580
N          4.50710        0.00040       -3.85920
C          5.32330       -0.00310       -2.73030
C          4.50150       -0.00410       -1.56630
C          5.12330       -0.00750       -0.31170
C          6.52200       -0.00980       -0.23650
C          7.30720       -0.00880       -1.39390
C          6.71070       -0.00530       -2.66280
N          0.72240        0.00290       -2.14930
C         -0.40490        0.00270       -1.34730
C         -1.74820        0.00540       -1.71910
C         -2.70340        0.00450       -0.69560
C         -2.32970        0.00100        0.65540
C         -0.97860       -0.00170        1.02200
H          2.43320       -0.01040        2.83830
H          4.82160        0.00180       -4.82090
H          4.50980       -0.00840        0.58530
H          7.00540       -0.01250        0.74320
H          8.39680       -0.01060       -1.31400
H          7.31740       -0.00450       -3.57100
H          0.78820        0.00480       -3.17250
H         -2.04200        0.00810       -2.77020
H         -3.76370        0.00650       -0.95970
H         -3.09960        0.00030        1.42950
H         -0.67860       -0.00450        2.06760
