36
rmsd205.gzmat
O          0.00000        0.00000        0.00000
C          1.20270        0.00000        0.00000
N          2.00520        0.00000        1.16590
C          3.45470       -0.02040        0.82200
C          3.46100       -0.01200       -0.68330
C          2.13530       -0.00270       -1.15400
C          1.84780        0.00350       -2.50500
C          2.92540        0.00020       -3.39980
C          4.23890       -0.00990       -2.93450
C          4.52520       -0.01580       -1.56260
C          1.57490       -0.01200        2.49770
C          2.51390       -0.16290        3.53580
C          2.08790       -0.18460        4.85680
C          0.73370       -0.06120        5.17240
C         -0.19590        0.10130        4.14350
C          0.21170        0.12570        2.81690
C          0.28520       -0.08880        6.60270
H         -0.83500       -0.16890        6.66240
C          0.72030        1.18770        7.32580
C          0.84940       -1.30090        7.32280
O          1.26510       -1.33460        8.44660
O          0.83900       -2.47020        6.62420
H          3.96610        0.87220        1.24700
H          3.94260       -0.93490        1.22880
H          0.81530        0.01120       -2.85720
H          2.73310        0.00720       -4.47180
H          5.06250       -0.01220       -3.64900
H          5.55350       -0.02190       -1.21200
H          3.57350       -0.26780        3.32470
H          2.82330       -0.30640        5.65510
H         -1.25590        0.21470        4.37600
H         -0.53510        0.25410        2.02940
H          0.49650        1.13470        8.40060
H          0.21180        2.06880        6.91670
H          1.80040        1.35910        7.23350
H          0.57340       -2.39350        5.67960
