36
rmsd101.gzmat
O          0.00000        0.00000        0.00000
C          1.20260        0.00000        0.00000
N          2.00190        0.00000        1.16860
C          3.45180       -0.03320        0.83000
C          3.46240       -0.00850       -0.67540
C          2.13820       -0.00200       -1.15140
C          1.85910        0.00510       -2.50420
C          2.94080        0.01190       -3.39450
C          4.25210        0.01360       -2.92420
C          4.53050        0.00230       -1.54980
C          1.56420        0.00830        2.49840
C          2.47970       -0.22860        3.54110
C          2.04450       -0.22460        4.85990
C          0.70370        0.01140        5.16890
C         -0.20220        0.25600        4.13420
C          0.21450        0.25420        2.81030
C          0.24390        0.02310        6.59570
H         -0.87640        0.11620        6.64490
C          0.86230        1.20480        7.34710
C          0.60350       -1.26610        7.31370
O          0.87370       -1.37320        8.47720
O          0.57500       -2.40630        6.57180
H          3.97340        0.84650        1.26830
H          3.92620       -0.96010        1.22550
H          0.83010        0.00490       -2.86580
H          2.75110        0.01660       -4.46730
H          5.07960        0.02440       -3.63440
H          5.55620        0.00360       -1.19290
H          3.52770       -0.42220        3.33420
H          2.76240       -0.41160        5.66100
H         -1.25120        0.45580        4.35940
H         -0.51330        0.44780        2.01830
H          0.52990        1.22880        8.39450
H          0.58870        2.15780        6.87930
H          1.95800        1.15000        7.36270
H          0.41520       -2.27980        5.60850
