36
rmsd196.gzmat
O          0.00000        0.00000        0.00000
C          1.20270        0.00000        0.00000
N          2.00360        0.00000        1.16750
C          3.45300       -0.04240        0.82750
C          3.46200       -0.02670       -0.67790
C          2.13740       -0.00910       -1.15210
C          1.85440       -0.00460       -2.50400
C          2.93430       -0.01880       -3.39600
C          4.24640       -0.03110       -2.92730
C          4.52830       -0.03380       -1.55450
C          1.56900        0.02580        2.49770
C          2.48930       -0.18640        3.54170
C          2.05570       -0.17130        4.86090
C          0.71280        0.05350        5.16830
C         -0.19670        0.27900        4.13220
C          0.21770        0.26430        2.80790
C          0.24920        0.07010        6.59370
H         -0.87330        0.13870        6.63760
C          0.83470        1.27340        7.33630
C          0.63240       -1.20510        7.32400
O          0.90640       -1.29730        8.48780
O          0.61660       -2.35390        6.59420
H          3.98040        0.83690        1.25960
H          3.92200       -0.96880        1.23060
H          0.82410        0.00750       -2.86200
H          2.74310       -0.02260       -4.46830
H          5.07240       -0.04090       -3.63900
H          5.55540       -0.04310       -1.20110
H          3.53940       -0.36800        3.33570
H          2.77670       -0.34170        5.66300
H         -1.24650        0.47460        4.35770
H         -0.51340        0.44070        2.01500
H          0.50160        1.29560        8.38350
H          0.53440        2.21570        6.86310
H          1.93140        1.24820        7.35250
H          0.46150       -2.24020        5.62890
