36
rmsd188.gzmat
O          0.00000        0.00000        0.00000
C          1.20260        0.00000        0.00000
N          2.00510        0.00000        1.16630
C          3.45430       -0.02840        0.82250
C          3.46000       -0.01420       -0.68320
C          2.13420       -0.00070       -1.15390
C          1.84540        0.01030       -2.50440
C          2.92220        0.00690       -3.40010
C          4.23570       -0.00830       -2.93570
C          4.52290       -0.01810       -1.56400
C          1.57030       -0.01590        2.49670
C          2.49910       -0.20020        3.53870
C          2.06460       -0.22550        4.85760
C          0.71180       -0.07580        5.16750
C         -0.20710        0.11980        4.13380
C          0.20880        0.15100        2.81030
C          0.24600       -0.10250        6.59250
H         -0.87840       -0.13150        6.63470
C          0.72350        1.14660        7.33660
C          0.73820       -1.34130        7.31930
O          1.04740       -1.40840        8.47590
O          0.78450       -2.49140        6.59250
H          3.97140        0.85920        1.25120
H          3.93570       -0.94780        1.22600
H          0.81280        0.02070       -2.85690
H          2.72730        0.01600       -4.47180
H          5.05940       -0.01320       -3.65040
H          5.55140       -0.02840       -1.21460
H          3.55720       -0.32700        3.33110
H          2.79330       -0.36780        5.65810
H         -1.26600        0.25480        4.36070
H         -0.53140        0.30720        2.02130
H          0.42180        1.12160        8.39330
H          0.31030        2.05720        6.88700
H          1.81650        1.23840        7.31900
H          0.59930       -2.39080        5.63110
