rmsd204.gzmat
 OpenBabel08211713403D

 36 38  0  0  1  0  0  0  0  0999 V2000
    0.0000    0.0000    0.0000 O   0  0  0  0  0  0  0  0  0  0  0  0
    1.2026    0.0000    0.0000 C   0  0  0  0  0  0  0  0  0  0  0  0
    2.0059    0.0000    1.1661 N   0  0  0  0  0  0  0  0  0  0  0  0
    3.4549   -0.0262    0.8210 C   0  0  0  0  0  0  0  0  0  0  0  0
    3.4599   -0.0201   -0.6847 C   0  0  0  0  0  0  0  0  0  0  0  0
    2.1340   -0.0085   -1.1547 C   0  0  0  0  0  0  0  0  0  0  0  0
    1.8456   -0.0040   -2.5055 C   0  0  0  0  0  0  0  0  0  0  0  0
    2.9221   -0.0140   -3.4015 C   0  0  0  0  0  0  0  0  0  0  0  0
    4.2360   -0.0220   -2.9376 C   0  0  0  0  0  0  0  0  0  0  0  0
    4.5231   -0.0246   -1.5652 C   0  0  0  0  0  0  0  0  0  0  0  0
    1.5751    0.0513    2.4967 C   0  0  0  0  0  0  0  0  0  0  0  0
    2.5105   -0.0427    3.5448 C   0  0  0  0  0  0  0  0  0  0  0  0
    2.0800   -0.0039    4.8651 C   0  0  0  0  0  0  0  0  0  0  0  0
    0.7248    0.1283    5.1713 C   0  0  0  0  0  0  0  0  0  0  0  0
   -0.2013    0.2349    4.1308 C   0  0  0  0  0  0  0  0  0  0  0  0
    0.2095    0.1935    2.8063 C   0  0  0  0  0  0  0  0  0  0  0  0
    0.2573    0.1675    6.5952 C   0  0  2  0  0  0  0  0  0  0  0  0
   -0.8676    0.1898    6.6325 H   0  0  0  0  0  0  0  0  0  0  0  0
    0.7858    1.4155    7.3063 C   0  0  0  0  0  0  0  0  0  0  0  0
    0.6895   -1.0666    7.3672 C   0  0  0  0  0  0  0  0  0  0  0  0
    0.9285   -1.1152    8.5415 O   0  0  0  0  0  0  0  0  0  0  0  0
    0.7747   -2.2286    6.6651 O   0  0  0  0  0  0  0  0  0  0  0  0
    3.9732    0.8634    1.2433 H   0  0  0  0  0  0  0  0  0  0  0  0
    3.9366   -0.9431    1.2303 H   0  0  0  0  0  0  0  0  0  0  0  0
    0.8136    0.0070   -2.8588 H   0  0  0  0  0  0  0  0  0  0  0  0
    2.7266   -0.0161   -4.4730 H   0  0  0  0  0  0  0  0  0  0  0  0
    5.0597   -0.0260   -3.6522 H   0  0  0  0  0  0  0  0  0  0  0  0
    5.5517   -0.0287   -1.2161 H   0  0  0  0  0  0  0  0  0  0  0  0
    3.5716   -0.1496    3.3422 H   0  0  0  0  0  0  0  0  0  0  0  0
    2.8143   -0.0829    5.6692 H   0  0  0  0  0  0  0  0  0  0  0  0
   -1.2629    0.3561    4.3531 H   0  0  0  0  0  0  0  0  0  0  0  0
   -0.5382    0.2730    2.0130 H   0  0  0  0  0  0  0  0  0  0  0  0
    0.3796    1.4943    8.3246 H   0  0  0  0  0  0  0  0  0  0  0  0
    0.5152    2.3266    6.7595 H   0  0  0  0  0  0  0  0  0  0  0  0
    1.8788    1.4011    7.3998 H   0  0  0  0  0  0  0  0  0  0  0  0
    0.6012   -2.1524    5.6992 H   0  0  0  0  0  0  0  0  0  0  0  0
  2  1  2  0  0  0  0
  2  3  1  0  0  0  0
  3 11  1  0  0  0  0
  4  3  1  0  0  0  0
  4 24  1  0  0  0  0
  4 23  1  0  0  0  0
  5  4  1  0  0  0  0
  6  5  1  0  0  0  0
  6  2  1  0  0  0  0
  7  6  2  0  0  0  0
  8  9  2  0  0  0  0
  8  7  1  0  0  0  0
  9 10  1  0  0  0  0
 10 28  1  0  0  0  0
 10  5  2  0  0  0  0
 11 16  2  0  0  0  0
 11 12  1  0  0  0  0
 12 13  2  0  0  0  0
 13 14  1  0  0  0  0
 13 30  1  0  0  0  0
 14 17  1  0  0  0  0
 15 31  1  0  0  0  0
 15 14  2  0  0  0  0
 16 15  1  0  0  0  0
 17 18  1  1  0  0  0
 17 19  1  0  0  0  0
 17 20  1  0  0  0  0
 19 35  1  0  0  0  0
 19 33  1  0  0  0  0
 20 21  2  0  0  0  0
 22 20  1  0  0  0  0
 25  7  1  0  0  0  0
 26  8  1  0  0  0  0
 27  9  1  0  0  0  0
 29 12  1  0  0  0  0
 32 16  1  0  0  0  0
 34 19  1  0  0  0  0
 36 22  1  0  0  0  0
M  END
$$$$
