36
rmsd167.gzmat
O          0.00000        0.00000        0.00000
C          1.20270        0.00000        0.00000
N          2.00510        0.00000        1.16610
C          3.45430       -0.03810        0.82320
C          3.46050       -0.03140       -0.68290
C          2.13480       -0.01140       -1.15350
C          1.84580       -0.00080       -2.50390
C          2.92190       -0.01320       -3.40030
C          4.23550       -0.03610       -2.93630
C          4.52320       -0.04320       -1.56400
C          1.56960        0.03810        2.49570
C          2.49080       -0.14100        3.54500
C          2.05110       -0.12810        4.86280
C          0.70110        0.05850        5.16370
C         -0.20760        0.26190        4.12260
C          0.21300        0.25250        2.80050
C          0.22230        0.05020        6.58460
H         -0.90270        0.06740        6.61530
C          0.74170        1.27390        7.34200
C          0.65510       -1.21120        7.31110
O          0.93950       -1.29630        8.47280
O          0.67970       -2.35730        6.57730
H          3.97820        0.84750        1.24700
H          3.92800       -0.95930        1.23180
H          0.81360        0.01710       -2.85630
H          2.72590       -0.00400       -4.47160
H          5.05850       -0.04790       -3.65120
H          5.55220       -0.05560       -1.21600
H          3.54630       -0.29550        3.34350
H          2.77310       -0.27220        5.66890
H         -1.26250        0.43400        4.34190
H         -0.51950        0.41270        2.00540
H          0.39560        1.27260        8.38530
H          0.40110        2.20420        6.87270
H          1.83790        1.30140        7.37060
H          0.50350       -2.24710        5.61520
