rmsd205.gzmat
 OpenBabel08211713403D

 36 38  0  0  1  0  0  0  0  0999 V2000
    0.0000    0.0000    0.0000 O   0  0  0  0  0  0  0  0  0  0  0  0
    1.2027    0.0000    0.0000 C   0  0  0  0  0  0  0  0  0  0  0  0
    2.0052    0.0000    1.1659 N   0  0  0  0  0  0  0  0  0  0  0  0
    3.4547   -0.0204    0.8220 C   0  0  0  0  0  0  0  0  0  0  0  0
    3.4610   -0.0120   -0.6833 C   0  0  0  0  0  0  0  0  0  0  0  0
    2.1353   -0.0027   -1.1540 C   0  0  0  0  0  0  0  0  0  0  0  0
    1.8478    0.0035   -2.5050 C   0  0  0  0  0  0  0  0  0  0  0  0
    2.9254    0.0002   -3.3998 C   0  0  0  0  0  0  0  0  0  0  0  0
    4.2389   -0.0099   -2.9345 C   0  0  0  0  0  0  0  0  0  0  0  0
    4.5252   -0.0158   -1.5626 C   0  0  0  0  0  0  0  0  0  0  0  0
    1.5749   -0.0120    2.4977 C   0  0  0  0  0  0  0  0  0  0  0  0
    2.5139   -0.1629    3.5358 C   0  0  0  0  0  0  0  0  0  0  0  0
    2.0879   -0.1846    4.8568 C   0  0  0  0  0  0  0  0  0  0  0  0
    0.7337   -0.0612    5.1724 C   0  0  0  0  0  0  0  0  0  0  0  0
   -0.1959    0.1013    4.1435 C   0  0  0  0  0  0  0  0  0  0  0  0
    0.2117    0.1257    2.8169 C   0  0  0  0  0  0  0  0  0  0  0  0
    0.2852   -0.0888    6.6027 C   0  0  2  0  0  0  0  0  0  0  0  0
   -0.8350   -0.1689    6.6624 H   0  0  0  0  0  0  0  0  0  0  0  0
    0.7203    1.1877    7.3258 C   0  0  0  0  0  0  0  0  0  0  0  0
    0.8494   -1.3009    7.3228 C   0  0  0  0  0  0  0  0  0  0  0  0
    1.2651   -1.3346    8.4466 O   0  0  0  0  0  0  0  0  0  0  0  0
    0.8390   -2.4702    6.6242 O   0  0  0  0  0  0  0  0  0  0  0  0
    3.9661    0.8722    1.2470 H   0  0  0  0  0  0  0  0  0  0  0  0
    3.9426   -0.9349    1.2288 H   0  0  0  0  0  0  0  0  0  0  0  0
    0.8153    0.0112   -2.8572 H   0  0  0  0  0  0  0  0  0  0  0  0
    2.7331    0.0072   -4.4718 H   0  0  0  0  0  0  0  0  0  0  0  0
    5.0625   -0.0122   -3.6490 H   0  0  0  0  0  0  0  0  0  0  0  0
    5.5535   -0.0219   -1.2120 H   0  0  0  0  0  0  0  0  0  0  0  0
    3.5735   -0.2678    3.3247 H   0  0  0  0  0  0  0  0  0  0  0  0
    2.8233   -0.3064    5.6551 H   0  0  0  0  0  0  0  0  0  0  0  0
   -1.2559    0.2147    4.3760 H   0  0  0  0  0  0  0  0  0  0  0  0
   -0.5351    0.2541    2.0294 H   0  0  0  0  0  0  0  0  0  0  0  0
    0.4965    1.1347    8.4006 H   0  0  0  0  0  0  0  0  0  0  0  0
    0.2118    2.0688    6.9167 H   0  0  0  0  0  0  0  0  0  0  0  0
    1.8004    1.3591    7.2335 H   0  0  0  0  0  0  0  0  0  0  0  0
    0.5734   -2.3935    5.6796 H   0  0  0  0  0  0  0  0  0  0  0  0
  2  1  2  0  0  0  0
  2  3  1  0  0  0  0
  3 11  1  0  0  0  0
  4  3  1  0  0  0  0
  4 24  1  0  0  0  0
  4 23  1  0  0  0  0
  5  4  1  0  0  0  0
  6  5  1  0  0  0  0
  6  2  1  0  0  0  0
  7  6  2  0  0  0  0
  8  9  2  0  0  0  0
  8  7  1  0  0  0  0
  9 10  1  0  0  0  0
 10 28  1  0  0  0  0
 10  5  2  0  0  0  0
 11 16  2  0  0  0  0
 11 12  1  0  0  0  0
 12 13  2  0  0  0  0
 13 14  1  0  0  0  0
 13 30  1  0  0  0  0
 14 17  1  0  0  0  0
 15 31  1  0  0  0  0
 15 14  2  0  0  0  0
 16 15  1  0  0  0  0
 17 18  1  1  0  0  0
 17 20  1  0  0  0  0
 17 19  1  0  0  0  0
 19 33  1  0  0  0  0
 20 21  2  0  0  0  0
 22 20  1  0  0  0  0
 25  7  1  0  0  0  0
 26  8  1  0  0  0  0
 27  9  1  0  0  0  0
 29 12  1  0  0  0  0
 32 16  1  0  0  0  0
 34 19  1  0  0  0  0
 35 19  1  0  0  0  0
 36 22  1  0  0  0  0
M  END
$$$$
