rmsd167.gzmat
 OpenBabel08211713403D

 36 38  0  0  1  0  0  0  0  0999 V2000
    0.0000    0.0000    0.0000 O   0  0  0  0  0  0  0  0  0  0  0  0
    1.2027    0.0000    0.0000 C   0  0  0  0  0  0  0  0  0  0  0  0
    2.0051    0.0000    1.1661 N   0  0  0  0  0  0  0  0  0  0  0  0
    3.4543   -0.0381    0.8232 C   0  0  0  0  0  0  0  0  0  0  0  0
    3.4605   -0.0314   -0.6829 C   0  0  0  0  0  0  0  0  0  0  0  0
    2.1348   -0.0114   -1.1535 C   0  0  0  0  0  0  0  0  0  0  0  0
    1.8458   -0.0008   -2.5039 C   0  0  0  0  0  0  0  0  0  0  0  0
    2.9219   -0.0132   -3.4003 C   0  0  0  0  0  0  0  0  0  0  0  0
    4.2355   -0.0361   -2.9363 C   0  0  0  0  0  0  0  0  0  0  0  0
    4.5232   -0.0432   -1.5640 C   0  0  0  0  0  0  0  0  0  0  0  0
    1.5696    0.0381    2.4957 C   0  0  0  0  0  0  0  0  0  0  0  0
    2.4908   -0.1410    3.5450 C   0  0  0  0  0  0  0  0  0  0  0  0
    2.0511   -0.1281    4.8628 C   0  0  0  0  0  0  0  0  0  0  0  0
    0.7011    0.0585    5.1637 C   0  0  0  0  0  0  0  0  0  0  0  0
   -0.2076    0.2619    4.1226 C   0  0  0  0  0  0  0  0  0  0  0  0
    0.2130    0.2525    2.8005 C   0  0  0  0  0  0  0  0  0  0  0  0
    0.2223    0.0502    6.5846 C   0  0  2  0  0  0  0  0  0  0  0  0
   -0.9027    0.0674    6.6153 H   0  0  0  0  0  0  0  0  0  0  0  0
    0.7417    1.2739    7.3420 C   0  0  0  0  0  0  0  0  0  0  0  0
    0.6551   -1.2112    7.3111 C   0  0  0  0  0  0  0  0  0  0  0  0
    0.9395   -1.2963    8.4728 O   0  0  0  0  0  0  0  0  0  0  0  0
    0.6797   -2.3573    6.5773 O   0  0  0  0  0  0  0  0  0  0  0  0
    3.9782    0.8475    1.2470 H   0  0  0  0  0  0  0  0  0  0  0  0
    3.9280   -0.9593    1.2318 H   0  0  0  0  0  0  0  0  0  0  0  0
    0.8136    0.0171   -2.8563 H   0  0  0  0  0  0  0  0  0  0  0  0
    2.7259   -0.0040   -4.4716 H   0  0  0  0  0  0  0  0  0  0  0  0
    5.0585   -0.0479   -3.6512 H   0  0  0  0  0  0  0  0  0  0  0  0
    5.5522   -0.0556   -1.2160 H   0  0  0  0  0  0  0  0  0  0  0  0
    3.5463   -0.2955    3.3435 H   0  0  0  0  0  0  0  0  0  0  0  0
    2.7731   -0.2722    5.6689 H   0  0  0  0  0  0  0  0  0  0  0  0
   -1.2625    0.4340    4.3419 H   0  0  0  0  0  0  0  0  0  0  0  0
   -0.5195    0.4127    2.0054 H   0  0  0  0  0  0  0  0  0  0  0  0
    0.3956    1.2726    8.3853 H   0  0  0  0  0  0  0  0  0  0  0  0
    0.4011    2.2042    6.8727 H   0  0  0  0  0  0  0  0  0  0  0  0
    1.8379    1.3014    7.3706 H   0  0  0  0  0  0  0  0  0  0  0  0
    0.5035   -2.2471    5.6152 H   0  0  0  0  0  0  0  0  0  0  0  0
  2  1  2  0  0  0  0
  2  3  1  0  0  0  0
  3 11  1  0  0  0  0
  4  3  1  0  0  0  0
  4 24  1  0  0  0  0
  4 23  1  0  0  0  0
  5  4  1  0  0  0  0
  6  5  1  0  0  0  0
  6  2  1  0  0  0  0
  7  6  2  0  0  0  0
  8  9  2  0  0  0  0
  8  7  1  0  0  0  0
  9 10  1  0  0  0  0
 10 28  1  0  0  0  0
 10  5  2  0  0  0  0
 11 16  2  0  0  0  0
 11 12  1  0  0  0  0
 12 13  2  0  0  0  0
 13 14  1  0  0  0  0
 13 30  1  0  0  0  0
 14 17  1  0  0  0  0
 15 31  1  0  0  0  0
 15 14  2  0  0  0  0
 16 15  1  0  0  0  0
 17 18  1  6  0  0  0
 17 20  1  0  0  0  0
 17 19  1  0  0  0  0
 19 35  1  0  0  0  0
 19 33  1  0  0  0  0
 20 21  2  0  0  0  0
 22 20  1  0  0  0  0
 25  7  1  0  0  0  0
 26  8  1  0  0  0  0
 27  9  1  0  0  0  0
 29 12  1  0  0  0  0
 32 16  1  0  0  0  0
 34 19  1  0  0  0  0
 36 22  1  0  0  0  0
M  END
$$$$
