rmsd168.gzmat
 OpenBabel08211713403D

 36 38  0  0  1  0  0  0  0  0999 V2000
    0.0000    0.0000    0.0000 O   0  0  0  0  0  0  0  0  0  0  0  0
    1.2027    0.0000    0.0000 C   0  0  0  0  0  0  0  0  0  0  0  0
    2.0045    0.0000    1.1666 N   0  0  0  0  0  0  0  0  0  0  0  0
    3.4539   -0.0378    0.8247 C   0  0  0  0  0  0  0  0  0  0  0  0
    3.4616   -0.0247   -0.6809 C   0  0  0  0  0  0  0  0  0  0  0  0
    2.1364   -0.0047   -1.1530 C   0  0  0  0  0  0  0  0  0  0  0  0
    1.8507    0.0088   -2.5042 C   0  0  0  0  0  0  0  0  0  0  0  0
    2.9287    0.0008   -3.3986 C   0  0  0  0  0  0  0  0  0  0  0  0
    4.2416   -0.0200   -2.9324 C   0  0  0  0  0  0  0  0  0  0  0  0
    4.5262   -0.0324   -1.5597 C   0  0  0  0  0  0  0  0  0  0  0  0
    1.5692   -0.0062    2.4970 C   0  0  0  0  0  0  0  0  0  0  0  0
    2.4932   -0.2124    3.5391 C   0  0  0  0  0  0  0  0  0  0  0  0
    2.0562   -0.2379    4.8571 C   0  0  0  0  0  0  0  0  0  0  0  0
    0.7067   -0.0590    5.1658 C   0  0  0  0  0  0  0  0  0  0  0  0
   -0.2056    0.1674    4.1331 C   0  0  0  0  0  0  0  0  0  0  0  0
    0.2120    0.1936    2.8099 C   0  0  0  0  0  0  0  0  0  0  0  0
    0.2408   -0.0937    6.5908 C   0  0  2  0  0  0  0  0  0  0  0  0
   -0.8833   -0.0872    6.6358 H   0  0  0  0  0  0  0  0  0  0  0  0
    0.7628    1.1221    7.3592 C   0  0  0  0  0  0  0  0  0  0  0  0
    0.7005   -1.3657    7.2812 C   0  0  0  0  0  0  0  0  0  0  0  0
    1.1006   -1.4631    8.4070 O   0  0  0  0  0  0  0  0  0  0  0  0
    0.6064   -2.5107    6.5495 O   0  0  0  0  0  0  0  0  0  0  0  0
    3.9759    0.8462    1.2541 H   0  0  0  0  0  0  0  0  0  0  0  0
    3.9291   -0.9603    1.2288 H   0  0  0  0  0  0  0  0  0  0  0  0
    0.8195    0.0249   -2.8597 H   0  0  0  0  0  0  0  0  0  0  0  0
    2.7346    0.0100   -4.4702 H   0  0  0  0  0  0  0  0  0  0  0  0
    5.0663   -0.0271   -3.6457 H   0  0  0  0  0  0  0  0  0  0  0  0
    5.5541   -0.0482   -1.2086 H   0  0  0  0  0  0  0  0  0  0  0  0
    3.5489   -0.3583    3.3322 H   0  0  0  0  0  0  0  0  0  0  0  0
    2.7789   -0.4056    5.6583 H   0  0  0  0  0  0  0  0  0  0  0  0
   -1.2603    0.3314    4.3590 H   0  0  0  0  0  0  0  0  0  0  0  0
   -0.5226    0.3715    2.0203 H   0  0  0  0  0  0  0  0  0  0  0  0
    0.4170    1.1133    8.4022 H   0  0  0  0  0  0  0  0  0  0  0  0
    0.4265    2.0579    6.8970 H   0  0  0  0  0  0  0  0  0  0  0  0
    1.8597    1.1449    7.3880 H   0  0  0  0  0  0  0  0  0  0  0  0
    0.3678   -2.3864    5.6029 H   0  0  0  0  0  0  0  0  0  0  0  0
  2  1  2  0  0  0  0
  2  3  1  0  0  0  0
  3 11  1  0  0  0  0
  4  3  1  0  0  0  0
  4 24  1  0  0  0  0
  4 23  1  0  0  0  0
  5  4  1  0  0  0  0
  6  5  1  0  0  0  0
  6  2  1  0  0  0  0
  7  6  2  0  0  0  0
  8  9  2  0  0  0  0
  8  7  1  0  0  0  0
  9 10  1  0  0  0  0
 10 28  1  0  0  0  0
 10  5  2  0  0  0  0
 11 16  2  0  0  0  0
 11 12  1  0  0  0  0
 12 13  2  0  0  0  0
 13 14  1  0  0  0  0
 13 30  1  0  0  0  0
 14 17  1  0  0  0  0
 15 31  1  0  0  0  0
 15 14  2  0  0  0  0
 16 15  1  0  0  0  0
 17 18  1  1  0  0  0
 17 20  1  0  0  0  0
 17 19  1  0  0  0  0
 19 35  1  0  0  0  0
 19 33  1  0  0  0  0
 20 21  2  0  0  0  0
 22 20  1  0  0  0  0
 25  7  1  0  0  0  0
 26  8  1  0  0  0  0
 27  9  1  0  0  0  0
 29 12  1  0  0  0  0
 32 16  1  0  0  0  0
 34 19  1  0  0  0  0
 36 22  1  0  0  0  0
M  END
$$$$
