36
rmsd200.gzmat
O          0.00000        0.00000        0.00000
C          1.20240        0.00000        0.00000
N          2.00610        0.00000        1.16550
C          3.45510        0.01120        0.81930
C          3.45890        0.00250       -0.68620
C          2.13270       -0.00090       -1.15540
C          1.84330       -0.00210       -2.50580
C          2.91930       -0.00180       -3.40280
C          4.23320       -0.00190       -2.93950
C          4.52130        0.00130       -1.56770
C          1.57600        0.02560        2.49710
C          2.51490        0.14560        3.53910
C          2.08800        0.15520        4.86080
C          0.73330        0.03690        5.17480
C         -0.19850       -0.07130        4.13990
C          0.20920       -0.07940        2.81370
C          0.27330        0.04390        6.60130
H         -0.81520       -0.23750        6.65930
C          0.44370        1.43740        7.21190
C          1.02060       -0.96700        7.45290
O          1.22440       -0.87810        8.63140
O          1.45920       -2.09460        6.83070
H          3.94870        0.92170        1.22690
H          3.96190       -0.88540        1.24220
H          0.81100       -0.00320       -2.85810
H          2.72380       -0.00170       -4.47440
H          5.05620       -0.00490       -3.65490
H          5.54990        0.00270       -1.21910
H          3.57620        0.23620        3.33040
H          2.82520        0.25410        5.66010
H         -1.26270       -0.14850        4.36770
H         -0.54140       -0.16860        2.02450
H          0.13730        1.45020        8.26770
H         -0.15830        2.18070        6.67620
H          1.48720        1.77310        7.17660
H          1.30610       -2.13120        5.85930
