rmsd181.gzmat
 OpenBabel08211713403D

 39 41  0  0  0  0  0  0  0  0999 V2000
    0.0000    0.0000    0.0000 C   0  0  0  0  0  0  0  0  0  0  0  0
    1.4720    0.0000    0.0000 N   0  0  0  0  0  0  0  0  0  0  0  0
    2.0378    0.0000    1.3626 C   0  0  0  0  0  0  0  0  0  0  0  0
    1.5539   -1.1240    2.2458 C   0  0  0  0  0  0  0  0  0  0  0  0
    2.0619   -2.3675    2.2292 C   0  0  0  0  0  0  0  0  0  0  0  0
    1.5348   -3.4319    3.1421 C   0  0  0  0  0  0  0  0  0  0  0  0
    1.9336   -4.5700    3.0685 O   0  0  0  0  0  0  0  0  0  0  0  0
    0.5161   -3.0443    4.1444 C   0  0  0  0  0  0  0  0  0  0  0  0
   -0.0076   -1.7489    4.1556 C   0  0  0  0  0  0  0  0  0  0  0  0
    0.4554   -0.7437    3.1687 C   0  0  0  0  0  0  0  0  0  0  0  0
   -0.0502    0.3555    3.1314 O   0  0  0  0  0  0  0  0  0  0  0  0
   -0.9657   -1.3905    5.0995 C   0  0  0  0  0  0  0  0  0  0  0  0
   -1.3985   -2.3301    6.0382 C   0  0  0  0  0  0  0  0  0  0  0  0
   -0.8753   -3.6196    6.0288 C   0  0  0  0  0  0  0  0  0  0  0  0
    0.0838   -3.9806    5.0796 C   0  0  0  0  0  0  0  0  0  0  0  0
    3.1469   -2.8228    1.3311 C   0  0  0  0  0  0  0  0  0  0  0  0
    2.1069   -0.8446   -0.9410 C   0  0  0  0  0  0  0  0  0  0  0  0
    1.4006   -1.7539   -1.7457 C   0  0  0  0  0  0  0  0  0  0  0  0
    2.0684   -2.4799   -2.7274 C   0  0  0  0  0  0  0  0  0  0  0  0
    3.4379   -2.3230   -2.9188 C   0  0  0  0  0  0  0  0  0  0  0  0
    4.1430   -1.4160   -2.1272 C   0  0  0  0  0  0  0  0  0  0  0  0
    3.4920   -0.6787   -1.1484 C   0  0  0  0  0  0  0  0  0  0  0  0
   -0.3637    0.2651   -1.0078 H   0  0  0  0  0  0  0  0  0  0  0  0
   -0.3593    0.7843    0.6946 H   0  0  0  0  0  0  0  0  0  0  0  0
   -0.4506   -0.9568    0.3059 H   0  0  0  0  0  0  0  0  0  0  0  0
    1.7685    0.9914    1.8173 H   0  0  0  0  0  0  0  0  0  0  0  0
    3.1511   -0.0051    1.3074 H   0  0  0  0  0  0  0  0  0  0  0  0
   -1.3727   -0.3753    5.1009 H   0  0  0  0  0  0  0  0  0  0  0  0
   -2.1475   -2.0495    6.7779 H   0  0  0  0  0  0  0  0  0  0  0  0
   -1.2130   -4.3520    6.7614 H   0  0  0  0  0  0  0  0  0  0  0  0
    0.4971   -4.9930    5.0656 H   0  0  0  0  0  0  0  0  0  0  0  0
    3.9025   -2.0480    1.1342 H   0  0  0  0  0  0  0  0  0  0  0  0
    2.7415   -3.1171    0.3437 H   0  0  0  0  0  0  0  0  0  0  0  0
    3.6789   -3.7091    1.7173 H   0  0  0  0  0  0  0  0  0  0  0  0
    0.3340   -1.9037   -1.6094 H   0  0  0  0  0  0  0  0  0  0  0  0
    1.5106   -3.1806   -3.3484 H   0  0  0  0  0  0  0  0  0  0  0  0
    3.9536   -2.8962   -3.6836 H   0  0  0  0  0  0  0  0  0  0  0  0
    5.2127   -1.2799   -2.2831 H   0  0  0  0  0  0  0  0  0  0  0  0
    4.0450    0.0513   -0.5629 H   0  0  0  0  0  0  0  0  0  0  0  0
  1  2  1  0  0  0  0
  1 25  1  0  0  0  0
  1 24  1  0  0  0  0
  2  3  1  0  0  0  0
  3 26  1  0  0  0  0
  3  4  1  0  0  0  0
  4 10  1  0  0  0  0
  5  4  2  0  0  0  0
  5  6  1  0  0  0  0
  6  8  1  0  0  0  0
  7  6  2  0  0  0  0
  8  9  2  0  0  0  0
  8 15  1  0  0  0  0
  9 12  1  0  0  0  0
 10  9  1  0  0  0  0
 11 10  2  0  0  0  0
 12 28  1  0  0  0  0
 12 13  2  0  0  0  0
 13 29  1  0  0  0  0
 14 13  1  0  0  0  0
 14 30  1  0  0  0  0
 15 14  2  0  0  0  0
 16 34  1  0  0  0  0
 16  5  1  0  0  0  0
 17  2  1  0  0  0  0
 18 35  1  0  0  0  0
 18 17  2  0  0  0  0
 19 18  1  0  0  0  0
 20 19  2  0  0  0  0
 20 21  1  0  0  0  0
 21 22  2  0  0  0  0
 22 17  1  0  0  0  0
 22 39  1  0  0  0  0
 23  1  1  0  0  0  0
 27  3  1  0  0  0  0
 31 15  1  0  0  0  0
 32 16  1  0  0  0  0
 33 16  1  0  0  0  0
 36 19  1  0  0  0  0
 37 20  1  0  0  0  0
 38 21  1  0  0  0  0
M  END
$$$$
