39
rmsd178.gzmat
C          0.00000        0.00000        0.00000
N          1.47270        0.00000        0.00000
C          2.03540        0.00000        1.36670
C          1.51810       -1.11240        2.24320
C          2.00030       -2.36590        2.23380
C          1.39320       -3.43140        3.09380
O          1.90460       -4.52120        3.19340
C          0.14260       -3.10440        3.81810
C         -0.32360       -1.78770        3.85980
C          0.40470       -0.71400        3.14160
O          0.08980        0.44560        3.28440
C         -1.47130       -1.47440        4.58190
C         -2.16690       -2.48500        5.24990
C         -1.71340       -3.79950        5.19380
C         -0.55350       -4.11160        4.48040
C          3.12960       -2.83160        1.39770
C          2.09680       -0.90010       -0.90480
C          1.40880       -1.92330       -1.57420
C          2.07550       -2.71320       -2.50740
C          3.42360       -2.50170       -2.78120
C          4.10690       -1.47440       -2.12930
C          3.45590       -0.67530       -1.20000
H         -0.36140        0.20540       -1.02220
H         -0.35540        0.82410        0.64780
H         -0.45490       -0.93660        0.35820
H          1.78520        0.99900        1.81470
H          3.14800       -0.02880        1.31120
H         -1.81900       -0.43890        4.62810
H         -3.06460       -2.23930        5.81640
H         -2.26030       -4.58810        5.70940
H         -0.18560       -5.14050        4.44340
H          3.86630       -2.04390        1.18150
H          2.77220       -3.19890        0.41700
H          3.67730       -3.67190        1.86000
H          0.35940       -2.11300       -1.36880
H          1.53470       -3.50590       -3.02380
H          3.94070       -3.12750       -3.50330
H          5.15660       -1.29310       -2.35690
H          3.98310        0.14600       -0.72040
