39
rmsd17.gzmat
C          0.00000        0.00000        0.00000
N          1.47260        0.00000        0.00000
C          2.03500        0.00000        1.36580
C          1.54670       -1.13510        2.22810
C          2.07450       -2.36990        2.22830
C          1.51100       -3.44080        3.11160
O          2.12040       -4.45950        3.33170
C          0.17370       -3.19970        3.70210
C         -0.36500       -1.90990        3.70230
C          0.40020       -0.78760        3.10610
O          0.08850        0.36060        3.32290
C         -1.61260       -1.67240        4.26930
C         -2.32880       -2.73220        4.83120
C         -1.79300       -4.01680        4.83150
C         -0.53550       -4.25320        4.27050
C          3.21340       -2.80730        1.39110
C          2.10080       -0.87810       -0.91890
C          3.48110       -0.70420       -1.14850
C          4.13090       -1.47660       -2.10040
C          3.42950       -2.43100       -2.83800
C          2.06420       -2.59520       -2.62530
C          1.39620       -1.82870       -1.67440
H         -0.36030        0.25880       -1.01090
H         -0.35930        0.78780        0.68870
H         -0.45280       -0.95600        0.30600
H          1.76040        0.98660        1.82730
H          3.14800        0.00220        1.31130
H         -2.02220       -0.65920        4.27690
H         -3.30780       -2.54770        5.27250
H         -2.35140       -4.84160        5.27290
H         -0.10390       -5.25740        4.27960
H          3.94310       -2.00680        1.19900
H          2.86600       -3.15390        0.39940
H          3.76700       -3.65160        1.83820
H          4.02940        0.05760       -0.59940
H          5.19590       -1.33180       -2.27830
H          3.94610       -3.03650       -3.57670
H          1.50910       -3.33280       -3.20420
H          0.33160       -1.98120       -1.52610
