39
rmsd49.gzmat
C          0.00000        0.00000        0.00000
N          1.47290        0.00000        0.00000
C          2.04060        0.00000        1.36440
C          1.61700       -1.17270        2.21420
C          2.22710       -2.36950        2.19960
C          1.71070       -3.51190        3.01900
O          2.21540       -4.60740        2.94690
C          0.56100       -3.25990        3.91780
C         -0.04320       -2.00050        3.95800
C          0.45110       -0.90210        3.09230
O         -0.08390        0.18340        3.11560
C         -1.11390       -1.76760        4.81620
C         -1.58380       -2.79760        5.63450
C         -0.98590       -4.05360        5.59010
C          0.08880       -4.28760        4.72970
C          3.41890       -2.69970        1.38500
C          2.09140       -0.91450       -0.89720
C          3.43590       -0.66860       -1.23740
C          4.07880       -1.48510       -2.15760
C          3.40160       -2.54970       -2.75350
C          2.06880       -2.78610       -2.42980
C          1.41080       -1.97870       -1.50580
H         -0.36160        0.18670       -1.02560
H         -0.35440        0.83550        0.63400
H         -0.45640       -0.92700        0.37910
H          1.72140        0.96290        1.84450
H          3.15150        0.05630        1.29480
H         -1.57980       -0.77890        4.84650
H         -2.42020       -2.61380        6.30810
H         -1.35320       -4.85750        6.22720
H          0.56280       -5.27210        4.68930
H          4.12190       -1.86050        1.28530
H          3.12620       -2.98890        0.35670
H          3.98690       -3.55600        1.78760
H          3.95760        0.17730       -0.79610
H          5.11750       -1.28960       -2.42090
H          3.91140       -3.18640       -3.47130
H          1.53350       -3.61080       -2.89990
H          0.37420       -2.18850       -1.25760
