rmsd179.gzmat
 OpenBabel08211713403D

 39 41  0  0  0  0  0  0  0  0999 V2000
    0.0000    0.0000    0.0000 C   0  0  0  0  0  0  0  0  0  0  0  0
    1.4722    0.0000    0.0000 N   0  0  0  0  0  0  0  0  0  0  0  0
    2.0397    0.0000    1.3627 C   0  0  0  0  0  0  0  0  0  0  0  0
    1.6091   -1.1652    2.2174 C   0  0  0  0  0  0  0  0  0  0  0  0
    2.2191   -2.3619    2.2252 C   0  0  0  0  0  0  0  0  0  0  0  0
    1.7391   -3.4639    3.1193 C   0  0  0  0  0  0  0  0  0  0  0  0
    2.3971   -4.4620    3.2915 O   0  0  0  0  0  0  0  0  0  0  0  0
    0.4283   -3.2853    3.7857 C   0  0  0  0  0  0  0  0  0  0  0  0
   -0.2074   -2.0409    3.7606 C   0  0  0  0  0  0  0  0  0  0  0  0
    0.4333   -0.8891    3.0804 C   0  0  0  0  0  0  0  0  0  0  0  0
    0.0001    0.2311    3.2259 O   0  0  0  0  0  0  0  0  0  0  0  0
   -1.4372   -1.8707    4.3887 C   0  0  0  0  0  0  0  0  0  0  0  0
   -2.0321   -2.9495    5.0477 C   0  0  0  0  0  0  0  0  0  0  0  0
   -1.3964   -4.1872    5.0788 C   0  0  0  0  0  0  0  0  0  0  0  0
   -0.1619   -4.3581    4.4475 C   0  0  0  0  0  0  0  0  0  0  0  0
    3.3805   -2.7213    1.3812 C   0  0  0  0  0  0  0  0  0  0  0  0
    2.0995   -0.8782   -0.9203 C   0  0  0  0  0  0  0  0  0  0  0  0
    1.4022   -1.8559   -1.6468 C   0  0  0  0  0  0  0  0  0  0  0  0
    2.0661   -2.6126   -2.6086 C   0  0  0  0  0  0  0  0  0  0  0  0
    3.4224   -2.4176   -2.8526 C   0  0  0  0  0  0  0  0  0  0  0  0
    4.1180   -1.4432   -2.1359 C   0  0  0  0  0  0  0  0  0  0  0  0
    3.4700   -0.6753   -1.1790 C   0  0  0  0  0  0  0  0  0  0  0  0
   -0.3614    0.2220   -1.0191 H   0  0  0  0  0  0  0  0  0  0  0  0
   -0.3576    0.8137    0.6597 H   0  0  0  0  0  0  0  0  0  0  0  0
   -0.4529   -0.9429    0.3436 H   0  0  0  0  0  0  0  0  0  0  0  0
    1.7281    0.9668    1.8420 H   0  0  0  0  0  0  0  0  0  0  0  0
    3.1516    0.0486    1.2986 H   0  0  0  0  0  0  0  0  0  0  0  0
   -1.9272   -0.8936    4.3677 H   0  0  0  0  0  0  0  0  0  0  0  0
   -2.9949   -2.8162    5.5397 H   0  0  0  0  0  0  0  0  0  0  0  0
   -1.8592   -5.0268    5.5961 H   0  0  0  0  0  0  0  0  0  0  0  0
    0.3443   -5.3267    4.4717 H   0  0  0  0  0  0  0  0  0  0  0  0
    4.0898   -1.8912    1.2462 H   0  0  0  0  0  0  0  0  0  0  0  0
    3.0526   -3.0173    0.3662 H   0  0  0  0  0  0  0  0  0  0  0  0
    3.9526   -3.5756    1.7824 H   0  0  0  0  0  0  0  0  0  0  0  0
    0.3466   -2.0352   -1.4661 H   0  0  0  0  0  0  0  0  0  0  0  0
    1.5161   -3.3648   -3.1736 H   0  0  0  0  0  0  0  0  0  0  0  0
    3.9356   -3.0139   -3.6016 H   0  0  0  0  0  0  0  0  0  0  0  0
    5.1765   -1.2779   -2.3331 H   0  0  0  0  0  0  0  0  0  0  0  0
    4.0110    0.1047   -0.6489 H   0  0  0  0  0  0  0  0  0  0  0  0
  1  2  1  0  0  0  0
  1 25  1  0  0  0  0
  1 24  1  0  0  0  0
  2  3  1  0  0  0  0
  3 26  1  0  0  0  0
  3  4  1  0  0  0  0
  4  5  2  0  0  0  0
  4 10  1  0  0  0  0
  5  6  1  0  0  0  0
  6  7  2  0  0  0  0
  6  8  1  0  0  0  0
  8 15  1  0  0  0  0
  9  8  2  0  0  0  0
  9 12  1  0  0  0  0
 10 11  2  0  0  0  0
 10  9  1  0  0  0  0
 12 13  2  0  0  0  0
 13 14  1  0  0  0  0
 13 29  1  0  0  0  0
 14 30  1  0  0  0  0
 15 31  1  0  0  0  0
 15 14  2  0  0  0  0
 16 34  1  0  0  0  0
 16  5  1  0  0  0  0
 17  2  1  0  0  0  0
 18 35  1  0  0  0  0
 18 17  2  0  0  0  0
 19 18  1  0  0  0  0
 20 19  2  0  0  0  0
 20 21  1  0  0  0  0
 21 22  2  0  0  0  0
 22 17  1  0  0  0  0
 22 39  1  0  0  0  0
 23  1  1  0  0  0  0
 27  3  1  0  0  0  0
 28 12  1  0  0  0  0
 32 16  1  0  0  0  0
 33 16  1  0  0  0  0
 36 19  1  0  0  0  0
 37 20  1  0  0  0  0
 38 21  1  0  0  0  0
M  END
$$$$
