
     RDKit          3D

 39 41  0  0  0  0  0  0  0  0999 V2000
    0.0220   -1.0243   -0.4654 C   0  0  0  0  0  0  0  0  0  0  0  0
    1.4135   -0.7137   -0.2203 N   0  0  0  0  0  0  0  0  0  0  0  0
    1.7688   -0.4662    1.1699 C   0  0  0  0  0  0  0  0  0  0  0  0
    1.3208   -1.5818    2.0996 C   0  0  0  0  0  0  0  0  0  0  0  0
    1.8482   -2.8344    2.0423 C   0  0  0  0  0  0  0  0  0  0  0  0
    1.3638   -3.9173    2.9611 C   0  0  0  0  0  0  0  0  0  0  0  0
    1.8479   -5.0364    2.9119 O   0  0  0  0  0  0  0  0  0  0  0  0
    0.2890   -3.5876    3.9381 C   0  0  0  0  0  0  0  0  0  0  0  0
   -0.2606   -2.2954    3.9828 C   0  0  0  0  0  0  0  0  0  0  0  0
    0.2146   -1.2427    3.0426 C   0  0  0  0  0  0  0  0  0  0  0  0
   -0.3001   -0.1332    3.0325 O   0  0  0  0  0  0  0  0  0  0  0  0
   -1.2702   -1.9966    4.9053 C   0  0  0  0  0  0  0  0  0  0  0  0
   -1.7259   -2.9821    5.7810 C   0  0  0  0  0  0  0  0  0  0  0  0
   -1.1782   -4.2709    5.7364 C   0  0  0  0  0  0  0  0  0  0  0  0
   -0.1740   -4.5741    4.8169 C   0  0  0  0  0  0  0  0  0  0  0  0
    2.9152   -3.2381    1.0711 C   0  0  0  0  0  0  0  0  0  0  0  0
    2.3621   -0.9228   -1.2129 C   0  0  0  0  0  0  0  0  0  0  0  0
    3.6798   -0.4175   -1.1070 C   0  0  0  0  0  0  0  0  0  0  0  0
    4.6167   -0.6380   -2.1145 C   0  0  0  0  0  0  0  0  0  0  0  0
    4.2830   -1.3538   -3.2681 C   0  0  0  0  0  0  0  0  0  0  0  0
    2.9821   -1.8451   -3.3913 C   0  0  0  0  0  0  0  0  0  0  0  0
    2.0355   -1.6418   -2.3866 C   0  0  0  0  0  0  0  0  0  0  0  0
   -0.2957   -0.6311   -1.4431 H   0  0  0  0  0  0  0  0  0  0  0  0
   -0.5931   -0.5422    0.3073 H   0  0  0  0  0  0  0  0  0  0  0  0
   -0.1980   -2.1106   -0.4463 H   0  0  0  0  0  0  0  0  0  0  0  0
    1.3148    0.4727    1.5195 H   0  0  0  0  0  0  0  0  0  0  0  0
    2.8559   -0.3586    1.2509 H   0  0  0  0  0  0  0  0  0  0  0  0
   -1.6809   -0.9858    4.9153 H   0  0  0  0  0  0  0  0  0  0  0  0
   -2.5123   -2.7484    6.5025 H   0  0  0  0  0  0  0  0  0  0  0  0
   -1.5387   -5.0406    6.4228 H   0  0  0  0  0  0  0  0  0  0  0  0
    0.2693   -5.5695    4.7589 H   0  0  0  0  0  0  0  0  0  0  0  0
    3.6344   -2.4302    0.8820 H   0  0  0  0  0  0  0  0  0  0  0  0
    2.4693   -3.4860    0.0934 H   0  0  0  0  0  0  0  0  0  0  0  0
    3.4369   -4.1329    1.4318 H   0  0  0  0  0  0  0  0  0  0  0  0
    3.9722    0.1785   -0.2424 H   0  0  0  0  0  0  0  0  0  0  0  0
    5.6236   -0.2286   -1.9975 H   0  0  0  0  0  0  0  0  0  0  0  0
    5.0210   -1.5204   -4.0550 H   0  0  0  0  0  0  0  0  0  0  0  0
    2.6929   -2.4092   -4.2821 H   0  0  0  0  0  0  0  0  0  0  0  0
    1.0386   -2.0625   -2.5110 H   0  0  0  0  0  0  0  0  0  0  0  0
  1  2  1  0
  1 23  1  0
  1 24  1  0
  1 25  1  0
  2  3  1  0
  2 17  1  0
  3  4  1  0
  3 26  1  0
  3 27  1  0
  4  5  2  0
  4 10  1  0
  5  6  1  0
  5 16  1  0
  6  7  2  0
  6  8  1  0
  8  9  2  0
  8 15  1  0
  9 10  1  0
  9 12  1  0
 10 11  2  0
 12 13  2  0
 12 28  1  0
 13 14  1  0
 13 29  1  0
 14 15  2  0
 14 30  1  0
 15 31  1  0
 16 32  1  0
 16 33  1  0
 16 34  1  0
 17 18  2  0
 17 22  1  0
 18 19  1  0
 18 35  1  0
 19 20  2  0
 19 36  1  0
 20 21  1  0
 20 37  1  0
 21 22  2  0
 21 38  1  0
 22 39  1  0
M  END

