39
rmsd152.gzmat
C          0.00000        0.00000        0.00000
N          1.47300        0.00000        0.00000
C          2.04140        0.00000        1.36490
C          1.65090       -1.19210        2.20010
C          2.32360       -2.35400        2.22610
C          1.85220       -3.48910        3.08300
O          2.57070       -4.42560        3.33810
C          0.46740       -3.41650        3.60550
C         -0.22650       -2.20350        3.57340
C          0.42740       -0.99280        3.01780
O         -0.03100        0.10760        3.22100
C         -1.52090       -2.12400        4.07690
C         -2.12540       -3.26480        4.61110
C         -1.43300       -4.47180        4.64770
C         -0.13100       -4.55020        4.14700
C          3.54360       -2.65160        1.44280
C          2.08550       -0.94510       -0.87520
C          1.42440       -2.06800       -1.39110
C          2.08500       -2.91080       -2.28130
C          3.39630       -2.64590       -2.66600
C          4.04960       -1.51770       -2.16830
C          3.40560       -0.66950       -1.27780
H         -0.35890        0.17200       -1.02910
H         -0.35420        0.84430        0.62110
H         -0.45930       -0.92200        0.38700
H          1.70100        0.94810        1.85920
H          3.15050        0.08620        1.28860
H         -2.05420       -1.17010        4.05830
H         -3.13990       -3.20450        5.00360
H         -1.90260       -5.35940        5.07020
H          0.42130       -5.49270        4.18300
H          4.14210       -1.75970        1.20730
H          3.28330       -3.11300        0.47090
H          4.20930       -3.36620        1.95840
H          0.40310       -2.29340       -1.09770
H          1.56990       -3.78580       -2.67620
H          3.90840       -3.31060       -3.35650
H          5.06860       -1.29880       -2.48480
H          3.90530        0.22290       -0.90710
