69
rmsd225.gzmat
C          0.00000        0.00000        0.00000
C          1.39410        0.00000        0.00000
C          2.06790        0.00000        1.22100
C          1.31820       -0.02190        2.41080
N         -0.02680        0.01710        2.41270
C         -0.67140        0.01940        1.22530
C          3.53730        0.01450        1.28060
C          4.30730        0.91230        0.53420
C          5.70210        0.84930        0.70460
N          6.28520       -0.02360        1.53140
C          5.45700       -0.88220        2.22790
N          4.09300       -0.88060        2.12230
N          6.10130       -1.75850        3.06750
C          5.46240       -2.81900        3.75870
C          6.14890       -4.04200        3.91020
C          5.51560       -5.07890        4.59560
C          4.22760       -4.93830        5.10030
C          3.55920       -3.71620        4.93780
C          4.18720       -2.64510        4.30230
N          2.21350       -3.63100        5.38820
C          1.52680       -2.45360        5.56520
O          2.00960       -1.34160        5.46720
C          0.06740       -2.56690        5.86330
C         -0.38830       -2.42970        7.17170
C         -1.72890       -2.12260        7.39100
C         -2.58010       -1.93480        6.29880
C         -2.16360       -2.30180        5.01700
C         -0.82410       -2.60640        4.79220
C         -3.88840       -1.21770        6.48130
N         -3.80300        0.25060        6.32220
C         -3.50580        0.73320        4.96930
C         -2.01340        0.87060        4.61100
N         -1.26900        1.67050        5.65450
H         -1.62750        2.65580        5.64540
C          0.20220        1.66310        5.34240
C         -1.49740        1.07870        7.02590
C         -3.00810        0.95830        7.32880
C          7.51100       -4.24760        3.34510
H         -0.55520       -0.01650       -0.93610
H          1.95080       -0.01130       -0.94100
H          1.81510       -0.08730        3.39230
H         -1.76460        0.03060        1.27560
H          3.85810        1.63080       -0.13750
H          6.38240        1.52150        0.15900
H          7.12470       -1.74860        3.04710
H          6.03620       -6.03010        4.72770
H          3.75270       -5.77110        5.61160
H          3.68220       -1.67820        4.20950
H          1.73200       -4.51310        5.54220
H          0.30180       -2.52550        8.01240
H         -2.10120       -1.99630        8.40710
H         -2.87150       -2.31010        4.18870
H         -0.46830       -2.82400        3.78080
H         -4.32720       -1.41690        7.49030
H         -4.66040       -1.58630        5.76140
H         -4.01990        1.72160        4.86430
H         -3.99570        0.06670        4.21870
H         -1.89010        1.35740        3.61490
H         -1.52170       -0.12910        4.49360
H          0.62940        0.63120        5.38200
H          0.76790        2.28450        6.05700
H          0.39090        2.03360        4.31620
H         -1.00420        0.07760        7.07570
H         -0.99770        1.71110        7.79250
H         -3.14040        0.46910        8.32410
H         -3.46080        1.97570        7.43990
H          7.83430       -5.29840        3.40170
H          8.27040       -3.66140        3.88470
H          7.56120       -3.97260        2.27940
