69
rmsd53.gzmat
C          0.00000        0.00000        0.00000
C          1.39190        0.00000        0.00000
C          2.06730        0.00000        1.22400
C          1.32220        0.00980        2.41100
N         -0.02450        0.05030        2.41340
C         -0.66940        0.02840        1.22840
C          3.53750        0.07520        1.25280
C          4.36450       -0.90820        1.79320
C          5.75350       -0.68320        1.71380
N          6.27510        0.41640        1.16240
C          5.39100        1.34530        0.65000
N          4.03220        1.19990        0.69130
N          5.95360        2.45220        0.06210
C          5.20090        3.59510       -0.31800
C          5.73420        4.88120       -0.08410
C          4.97180        5.99670       -0.43010
C          3.68700        5.86570       -0.95280
C          3.17700        4.58670       -1.17510
C          3.94990        3.45070       -0.92160
N          1.83530        4.40940       -1.63720
C          0.78120        4.26170       -0.75850
O         -0.32430        3.98830       -1.18430
C          1.02780        4.48220        0.69580
C          0.44600        5.58760        1.31390
C          0.61090        5.77440        2.68430
C          1.34780        4.85430        3.43260
C          1.96680        3.77630        2.79800
C          1.79370        3.58160        1.43100
C          1.48610        5.03200        4.92150
N          0.47280        4.36540        5.76180
C          0.53980        2.90090        5.78460
C         -0.22830        2.19340        4.65160
N         -1.66530        2.66550        4.63090
H         -2.11460        2.42110        5.54780
C         -2.41030        1.99530        3.51320
C         -1.69520        4.16740        4.45050
C         -0.90030        4.84560        5.59060
C          7.07920        5.06240        0.52760
H         -0.55930       -0.00720       -0.93600
H          1.95300        0.00800       -0.93940
H          1.81060       -0.01130        3.39090
H         -1.76340        0.02760        1.27750
H          3.96770       -1.81280        2.23490
H          6.47930       -1.41190        2.10850
H          6.97150        2.53300        0.09550
H          5.38120        6.99650       -0.27240
H          3.08850        6.74640       -1.17980
H          3.55990        2.46160       -1.17400
H          1.68590        4.25320       -2.62950
H         -0.13100        6.30460        0.72420
H          0.18030        6.65230        3.16390
H          2.60580        3.09630        3.35950
H          2.27950        2.73180        0.93300
H          1.46950        6.11850        5.19120
H          2.48990        4.67670        5.26750
H          0.15610        2.57180        6.78180
H          1.60830        2.57440        5.76090
H         -0.19870        1.08370        4.77330
H          0.24170        2.39720        3.65800
H         -2.01810        2.30200        2.52290
H         -3.48680        2.23640        3.54770
H         -2.29160        0.89140        3.56940
H         -1.25300        4.43030        3.45790
H         -2.74720        4.52590        4.43850
H         -0.89390        5.95030        5.42300
H         -1.42300        4.70100        6.56860
H          7.29060        6.11440        0.77600
H          7.88350        4.74150       -0.15390
H          7.18630        4.49950        1.46760
