69
rmsd8.gzmat
C          0.00000        0.00000        0.00000
C          1.39160        0.00000        0.00000
C          2.06430        0.00000        1.22410
C          1.32010        0.00560        2.41090
N         -0.02760       -0.01200        2.41440
C         -0.67070       -0.01280        1.22830
C          3.53460       -0.09810        1.24650
C          4.39070        1.00140        1.27340
C          5.77290        0.73050        1.23570
N          6.26110       -0.51140        1.16370
C          5.34820       -1.54610        1.12630
N          3.99280       -1.36670        1.19630
N          5.87240       -2.80770        0.99540
C          5.07690       -3.98340        1.01380
C          5.55280       -5.13120        1.68300
C          4.74630       -6.26840        1.71930
C          3.47280       -6.27520        1.15360
C          3.01900       -5.12930        0.50090
C          3.83730       -4.00430        0.37160
N          1.68450       -5.05960       -0.00900
C          0.64770       -4.61320        0.78590
O         -0.44460       -4.39920        0.29750
C          0.89380       -4.45990        2.24880
C          1.70750       -3.44080        2.73580
C          1.84820       -3.27020        4.11040
C          1.15350       -4.10160        4.99010
C          0.39790       -5.16630        4.49540
C          0.25860       -5.34150        3.12140
C          1.20070       -3.83990        6.47140
N          0.15040       -2.94810        7.00240
C         -1.22030       -3.45230        6.88900
C         -1.92860       -3.14540        5.54970
N         -1.86860       -1.66270        5.25940
H         -2.38010       -1.14470        6.01470
C         -2.50780       -1.37700        3.93100
C         -0.42610       -1.20830        5.24500
C          0.24960       -1.54510        6.58760
C          6.88350       -5.13910        2.34970
H         -0.55840       -0.00410       -0.93590
H          1.95170       -0.01020       -0.93880
H          1.81120        0.01990        3.38890
H         -1.76450       -0.02330        1.27430
H          4.01900        2.01740        1.30980
H          6.52090        1.53890        1.25760
H          6.88800       -2.90480        1.01810
H          5.11030       -7.16890        2.21740
H          2.83850       -7.15710        1.22540
H          3.48710       -3.14260       -0.20150
H          1.54630       -5.14790       -1.01120
H          2.24980       -2.78270        2.04280
H          2.51270       -2.49580        4.49070
H         -0.07580       -5.86800        5.17990
H         -0.34290       -6.16420        2.72670
H          2.18750       -3.40380        6.76710
H          1.13800       -4.79800        7.04610
H         -1.80000       -3.02000        7.74170
H         -1.22890       -4.55640        7.05990
H         -2.98780       -3.48100        5.58120
H         -1.44180       -3.70340        4.71180
H         -2.00210       -1.92970        3.11120
H         -2.41870       -0.30010        3.67790
H         -3.57460       -1.65870        3.93000
H          0.10570       -1.69660        4.39020
H         -0.38030       -0.11420        5.03080
H          1.32470       -1.24460        6.53980
H         -0.18990       -0.93030        7.41140
H          7.05000       -6.04820        2.94820
H          7.00460       -4.29100        3.04120
H          7.70580       -5.09900        1.61730
