rmsd12.gzmat
 OpenBabel08211713363D

 69 73  0  0  1  0  0  0  0  0999 V2000
    0.0000    0.0000    0.0000 C   0  0  0  0  0  0  0  0  0  0  0  0
    1.3938    0.0000    0.0000 C   0  0  0  0  0  0  0  0  0  0  0  0
    2.0656    0.0000    1.2229 C   0  0  1  0  0  0  0  0  0  0  0  0
    1.3182   -0.0293    2.4101 C   0  0  0  0  0  0  0  0  0  0  0  0
   -0.0269   -0.0752    2.4117 N   0  0  0  0  0  0  0  0  0  0  0  0
   -0.6712   -0.0411    1.2261 C   0  0  0  0  0  0  0  0  0  0  0  0
    3.5361   -0.0526    1.2815 C   0  0  0  0  0  0  0  0  0  0  0  0
    4.3249    0.9794    1.7934 C   0  0  0  0  0  0  0  0  0  0  0  0
    5.7166    0.7667    1.8023 C   0  0  0  0  0  0  0  0  0  0  0  0
    6.2733   -0.3723    1.3795 N   0  0  0  0  0  0  0  0  0  0  0  0
    5.4220   -1.3513    0.9040 C   0  0  0  0  0  0  0  0  0  0  0  0
    4.0661   -1.2016    0.8173 N   0  0  0  0  0  0  0  0  0  0  0  0
    6.0291   -2.5178    0.5086 N   0  0  0  0  0  0  0  0  0  0  0  0
    5.3529   -3.6644    0.0249 C   0  0  0  0  0  0  0  0  0  0  0  0
    6.0377   -4.5245   -0.8611 C   0  0  0  0  0  0  0  0  0  0  0  0
    5.3749   -5.6560   -1.3354 C   0  0  0  0  0  0  0  0  0  0  0  0
    4.0623   -5.9402   -0.9724 C   0  0  0  0  0  0  0  0  0  0  0  0
    3.3996   -5.0796   -0.0870 C   0  0  0  0  0  0  0  0  0  0  0  0
    4.0512   -3.9626    0.4356 C   0  0  0  0  0  0  0  0  0  0  0  0
    2.0363   -5.3491    0.2181 N   0  0  0  0  0  0  0  0  0  0  0  0
    1.3799   -4.8402    1.3130 C   0  0  0  0  0  0  0  0  0  0  0  0
    1.9005   -4.1873    2.1971 O   0  0  0  0  0  0  0  0  0  0  0  0
   -0.0914   -5.0866    1.4054 C   0  0  0  0  0  0  0  0  0  0  0  0
   -0.5691   -6.1040    2.2275 C   0  0  0  0  0  0  0  0  0  0  0  0
   -1.8948   -6.0633    2.6521 C   0  0  0  0  0  0  0  0  0  0  0  0
   -2.7088   -4.9940    2.2705 C   0  0  0  0  0  0  0  0  0  0  0  0
   -2.2846   -4.1188    1.2671 C   0  0  0  0  0  0  0  0  0  0  0  0
   -0.9605   -4.1559    0.8386 C   0  0  0  0  0  0  0  0  0  0  0  0
   -3.9797   -4.7142    3.0235 C   0  0  0  0  0  0  0  0  0  0  0  0
   -3.8117   -3.8312    4.1978 N   0  0  0  0  0  0  0  0  0  0  0  0
   -3.4238   -2.4467    3.9107 C   0  0  0  0  0  0  0  0  0  0  0  0
   -1.9092   -2.1798    3.8069 C   0  0  0  0  0  0  0  0  0  0  0  0
   -1.1710   -2.7125    5.0123 N   0  0  0  0  0  0  0  0  0  0  0  0
   -1.4652   -2.1622    5.8559 H   0  0  0  0  0  0  0  0  0  0  0  0
    0.3105   -2.5608    4.8028 C   0  0  0  0  0  0  0  0  0  0  0  0
   -1.5053   -4.1694    5.2325 C   0  0  0  0  0  0  0  0  0  0  0  0
   -3.0346   -4.3824    5.3102 C   0  0  0  0  0  0  0  0  0  0  0  0
    7.4341   -4.2442   -1.2962 C   0  0  0  0  0  0  0  0  0  0  0  0
   -0.5548    0.0307   -0.9357 H   0  0  0  0  0  0  0  0  0  0  0  0
    1.9572   -0.0095   -0.9381 H   0  0  0  0  0  0  0  0  0  0  0  0
    1.8098   -0.0203    3.3894 H   0  0  0  0  0  0  0  0  0  0  0  0
   -1.7645   -0.0408    1.2777 H   0  0  0  0  0  0  0  0  0  0  0  0
    3.8960    1.9051    2.1528 H   0  0  0  0  0  0  0  0  0  0  0  0
    6.4162    1.5351    2.1664 H   0  0  0  0  0  0  0  0  0  0  0  0
    7.0521   -2.5357    0.5252 H   0  0  0  0  0  0  0  0  0  0  0  0
    5.8943   -6.3335   -2.0170 H   0  0  0  0  0  0  0  0  0  0  0  0
    3.5676   -6.8210   -1.3716 H   0  0  0  0  0  0  0  0  0  0  0  0
    3.5383   -3.3167    1.1567 H   0  0  0  0  0  0  0  0  0  0  0  0
    1.5306   -5.9358   -0.4394 H   0  0  0  0  0  0  0  0  0  0  0  0
    0.0961   -6.9022    2.5646 H   0  0  0  0  0  0  0  0  0  0  0  0
   -2.2827   -6.8437    3.3063 H   0  0  0  0  0  0  0  0  0  0  0  0
   -2.9757   -3.3890    0.8467 H   0  0  0  0  0  0  0  0  0  0  0  0
   -0.5967   -3.4407    0.0972 H   0  0  0  0  0  0  0  0  0  0  0  0
   -4.4577   -5.6590    3.3834 H   0  0  0  0  0  0  0  0  0  0  0  0
   -4.7505   -4.2442    2.3637 H   0  0  0  0  0  0  0  0  0  0  0  0
   -3.8726   -1.8139    4.7177 H   0  0  0  0  0  0  0  0  0  0  0  0
   -3.9153   -2.1071    2.9674 H   0  0  0  0  0  0  0  0  0  0  0  0
   -1.7108   -1.0794    3.7137 H   0  0  0  0  0  0  0  0  0  0  0  0
   -1.4802   -2.6363    2.8847 H   0  0  0  0  0  0  0  0  0  0  0  0
    0.6733   -3.1438    3.9224 H   0  0  0  0  0  0  0  0  0  0  0  0
    0.8788   -2.9069    5.6828 H   0  0  0  0  0  0  0  0  0  0  0  0
    0.5706   -1.5016    4.6017 H   0  0  0  0  0  0  0  0  0  0  0  0
   -1.0653   -4.7728    4.4030 H   0  0  0  0  0  0  0  0  0  0  0  0
   -1.0196   -4.5250    6.1684 H   0  0  0  0  0  0  0  0  0  0  0  0
   -3.2433   -5.4750    5.4103 H   0  0  0  0  0  0  0  0  0  0  0  0
   -3.4397   -3.9197    6.2453 H   0  0  0  0  0  0  0  0  0  0  0  0
    7.7750   -4.9343   -2.0834 H   0  0  0  0  0  0  0  0  0  0  0  0
    8.1494   -4.3482   -0.4655 H   0  0  0  0  0  0  0  0  0  0  0  0
    7.5399   -3.2307   -1.7149 H   0  0  0  0  0  0  0  0  0  0  0  0
  1  2  2  0  0  0  0
  1  6  1  0  0  0  0
  2  3  1  0  0  0  0
  3  7  1  6  0  0  0
  3  4  1  0  0  0  0
  4  5  2  0  0  0  0
  4 41  1  0  0  0  0
  6 42  1  0  0  0  0
  6  5  2  0  0  0  0
  7  8  1  0  0  0  0
  8  9  1  0  0  0  0
  8 43  1  0  0  0  0
  9 44  1  0  0  0  0
 10  9  2  0  0  0  0
 11 10  2  0  0  0  0
 12 11  2  0  0  0  0
 12  7  2  0  0  0  0
 13 45  1  0  0  0  0
 13 11  1  0  0  0  0
 14 19  1  0  0  0  0
 14 13  1  0  0  0  0
 15 14  2  0  0  0  0
 16 17  2  0  0  0  0
 16 15  1  0  0  0  0
 17 18  1  0  0  0  0
 18 20  1  0  0  0  0
 18 19  2  0  0  0  0
 19 48  1  0  0  0  0
 20 21  1  0  0  0  0
 21 23  1  0  0  0  0
 21 22  2  0  0  0  0
 23 24  2  0  0  0  0
 24 50  1  0  0  0  0
 24 25  1  0  0  0  0
 25 51  1  0  0  0  0
 26 25  2  0  0  0  0
 26 29  1  0  0  0  0
 27 26  1  0  0  0  0
 28 27  2  0  0  0  0
 28 23  1  0  0  0  0
 29 54  1  0  0  0  0
 29 30  1  0  0  0  0
 30 37  1  0  0  0  0
 31 30  1  0  0  0  0
 31 56  1  0  0  0  0
 32 31  1  0  0  0  0
 32 33  1  0  0  0  0
 33 36  1  0  0  0  0
 33 34  1  0  0  0  0
 35 33  1  0  0  0  0
 35 61  1  0  0  0  0
 36 37  1  0  0  0  0
 36 64  1  0  0  0  0
 37 65  1  0  0  0  0
 37 66  1  0  0  0  0
 38 15  1  0  0  0  0
 38 68  1  0  0  0  0
 39  1  1  0  0  0  0
 40  2  1  0  0  0  0
 46 16  1  0  0  0  0
 47 17  1  0  0  0  0
 49 20  1  0  0  0  0
 52 27  1  0  0  0  0
 53 28  1  0  0  0  0
 55 29  1  0  0  0  0
 57 31  1  0  0  0  0
 58 32  1  0  0  0  0
 59 32  1  0  0  0  0
 60 35  1  0  0  0  0
 62 35  1  0  0  0  0
 63 36  1  0  0  0  0
 67 38  1  0  0  0  0
 69 38  1  0  0  0  0
M  RAD  2   3   2   8   2
M  END
$$$$
