69
rmsd181.gzmat
C          0.00000        0.00000        0.00000
C          1.39400        0.00000        0.00000
C          2.07000        0.00000        1.22050
C          1.32070        0.01610        2.41130
N         -0.02450       -0.01930        2.41310
C         -0.67020       -0.01590        1.22610
C          3.53950       -0.01540        1.27260
C          4.30300       -0.85420        0.45380
C          5.69960       -0.79990        0.61040
N          6.28920        0.01100        1.49290
C          5.46720        0.81160        2.26320
N          4.10290        0.81590        2.17420
N          6.12970        1.61910        3.15580
C          5.52590        2.62500        3.95000
C          6.25880        3.80380        4.20750
C          5.67940        4.78530        5.01110
C          4.40010        4.63430        5.53420
C          3.68360        3.46010        5.26180
C          4.25340        2.44200        4.49660
N          2.34960        3.38010        5.74530
C          1.61020        2.22310        5.81640
O          2.03060        1.10810        5.57630
C          0.16880        2.38050        6.17720
C         -0.74240        2.63840        5.15430
C         -2.09520        2.39910        5.37830
C         -2.50790        1.88000        6.60800
C         -1.61970        1.84680        7.68590
C         -0.26490        2.08610        7.46700
C         -3.86300        1.24140        6.72940
N         -3.89270       -0.19220        6.36630
C         -3.17770       -1.09460        7.27170
C         -1.67560       -1.29580        6.96940
N         -1.46240       -1.70320        5.52990
H         -1.89180       -2.64730        5.37600
C          0.01210       -1.76290        5.23850
C         -2.12290       -0.71040        4.60180
C         -3.60690       -0.50460        4.96210
C          7.61340        4.02350        3.62930
H         -0.55550        0.01390       -0.93590
H          1.94940        0.01000       -0.94210
H          1.81800        0.07030        3.39460
H         -1.76330       -0.01920        1.27690
H          3.84820       -1.52470       -0.26250
H          6.37460       -1.42660        0.00760
H          7.15340        1.59620        3.11830
H          6.23590        5.70020        5.22620
H          3.96860        5.42340        6.14400
H          3.70680        1.51200        4.30940
H          1.91850        4.25820        6.02380
H         -0.39550        2.97960        4.17470
H         -2.82060        2.57970        4.58530
H         -1.97710        1.60380        8.68590
H          0.44940        2.01140        8.28950
H         -4.61800        1.76010        6.08760
H         -4.26740        1.33160        7.76740
H         -3.71340       -2.07640        7.23670
H         -3.29060       -0.73790        8.32430
H         -1.24680       -2.07050        7.64320
H         -1.10600       -0.35600        7.16740
H          0.51080       -0.77850        5.41170
H          0.19560       -2.01060        4.17390
H          0.51670       -2.51110        5.87260
H         -1.55270        0.25210        4.62700
H         -2.01980       -1.06650        3.54890
H         -4.02730        0.29730        4.30760
H         -4.19480       -1.42420        4.71480
H          7.98380        5.04510        3.80650
H          7.62100        3.88440        2.53620
H          8.36240        3.34460        4.06530
