69
rmsd110.gzmat
C          0.00000        0.00000        0.00000
C          1.39150        0.00000        0.00000
C          2.06830        0.00000        1.22400
C          1.32430        0.01180        2.41140
N         -0.02270        0.05020        2.41380
C         -0.66810        0.02560        1.22900
C          3.53830        0.08040        1.24030
C          4.37990       -0.86960        1.81690
C          5.76620       -0.64240        1.70220
N          6.27390        0.43010        1.08670
C          5.37640        1.32570        0.54150
N          4.01970        1.17640        0.61470
N          5.91210        2.40560       -0.11790
C          5.11850        3.50470       -0.54520
C          5.58960        4.82020       -0.34890
C          4.77010        5.88720       -0.71740
C          3.49220        5.67860       -1.23190
C          3.04940        4.37070       -1.43070
C          3.88010        3.28240       -1.15160
N          1.72040        4.11110       -1.89000
C          0.66160        3.98310       -1.01320
O         -0.42400        3.62790       -1.43000
C          0.87810        4.32740        0.42130
C          0.19650        5.41970        0.95470
C          0.35230        5.73550        2.30240
C          1.17760        4.95430        3.11330
C          1.88200        3.88180        2.56440
C          1.72110        3.55970        1.22040
C          1.32390        5.27670        4.57640
N          0.39220        4.59770        5.49670
C          0.56750        3.14650        5.61160
C         -0.19510        2.30900        4.56650
N         -1.66070        2.68390        4.57760
H         -2.05370        2.48440        5.53080
C         -2.40500        1.88240        3.55050
C         -1.79870        4.16190        4.28670
C         -1.01640        4.97030        5.34670
C          6.92770        5.07980        0.24920
H         -0.55950       -0.00230       -0.93630
H          1.95300        0.00930       -0.93920
H          1.81260       -0.00520        3.39140
H         -1.76210        0.02030        1.27780
H          3.99540       -1.75260        2.31020
H          6.50250       -1.34730        2.12040
H          6.92660        2.51440       -0.10000
H          5.12760        6.90970       -0.58370
H          2.84700        6.52230       -1.47150
H          3.54290        2.26840       -1.37890
H          1.59020        3.87130       -2.86840
H         -0.44970        6.02780        0.31580
H         -0.15310        6.60850        2.71270
H          2.57910        3.30820        3.17360
H          2.27740        2.71630        0.78930
H          1.21350        6.37670        4.75020
H          2.36160        5.04440        4.92670
H          0.25290        2.86080        6.64590
H          1.65520        2.89530        5.55670
H         -0.08630        1.21590        4.76450
H          0.22050        2.46900        3.54100
H         -2.06190        2.12360        2.52420
H         -3.49160        2.06920        3.60550
H         -2.22300        0.79430        3.69320
H         -1.40530        4.37730        3.26280
H         -2.87220        4.44950        4.28530
H         -1.09310        6.05860        5.10550
H         -1.49490        4.85860        6.35100
H          7.12450        6.15360        0.39270
H          7.74230        4.70410       -0.39050
H          7.03250        4.61270        1.24070
