rmsd53.gzmat
 OpenBabel08211713363D

 69 73  0  0  1  0  0  0  0  0999 V2000
    0.0000    0.0000    0.0000 C   0  0  0  0  0  0  0  0  0  0  0  0
    1.3919    0.0000    0.0000 C   0  0  0  0  0  0  0  0  0  0  0  0
    2.0673    0.0000    1.2240 C   0  0  2  0  0  0  0  0  0  0  0  0
    1.3222    0.0098    2.4110 C   0  0  0  0  0  0  0  0  0  0  0  0
   -0.0245    0.0503    2.4134 N   0  0  0  0  0  0  0  0  0  0  0  0
   -0.6694    0.0284    1.2284 C   0  0  0  0  0  0  0  0  0  0  0  0
    3.5375    0.0752    1.2528 C   0  0  0  0  0  0  0  0  0  0  0  0
    4.3645   -0.9082    1.7932 C   0  0  0  0  0  0  0  0  0  0  0  0
    5.7535   -0.6832    1.7138 C   0  0  0  0  0  0  0  0  0  0  0  0
    6.2751    0.4164    1.1624 N   0  0  0  0  0  0  0  0  0  0  0  0
    5.3910    1.3453    0.6500 C   0  0  0  0  0  0  0  0  0  0  0  0
    4.0322    1.1999    0.6913 N   0  0  0  0  0  0  0  0  0  0  0  0
    5.9536    2.4522    0.0621 N   0  0  0  0  0  0  0  0  0  0  0  0
    5.2009    3.5951   -0.3180 C   0  0  0  0  0  0  0  0  0  0  0  0
    5.7342    4.8812   -0.0841 C   0  0  0  0  0  0  0  0  0  0  0  0
    4.9718    5.9967   -0.4301 C   0  0  0  0  0  0  0  0  0  0  0  0
    3.6870    5.8657   -0.9528 C   0  0  0  0  0  0  0  0  0  0  0  0
    3.1770    4.5867   -1.1751 C   0  0  0  0  0  0  0  0  0  0  0  0
    3.9499    3.4507   -0.9216 C   0  0  0  0  0  0  0  0  0  0  0  0
    1.8353    4.4094   -1.6372 N   0  0  0  0  0  0  0  0  0  0  0  0
    0.7812    4.2617   -0.7585 C   0  0  0  0  0  0  0  0  0  0  0  0
   -0.3243    3.9883   -1.1843 O   0  0  0  0  0  0  0  0  0  0  0  0
    1.0278    4.4822    0.6958 C   0  0  0  0  0  0  0  0  0  0  0  0
    0.4460    5.5876    1.3139 C   0  0  0  0  0  0  0  0  0  0  0  0
    0.6109    5.7744    2.6843 C   0  0  0  0  0  0  0  0  0  0  0  0
    1.3478    4.8543    3.4326 C   0  0  0  0  0  0  0  0  0  0  0  0
    1.9668    3.7763    2.7980 C   0  0  0  0  0  0  0  0  0  0  0  0
    1.7937    3.5816    1.4310 C   0  0  0  0  0  0  0  0  0  0  0  0
    1.4861    5.0320    4.9215 C   0  0  0  0  0  0  0  0  0  0  0  0
    0.4728    4.3654    5.7618 N   0  0  0  0  0  0  0  0  0  0  0  0
    0.5398    2.9009    5.7846 C   0  0  0  0  0  0  0  0  0  0  0  0
   -0.2283    2.1934    4.6516 C   0  0  0  0  0  0  0  0  0  0  0  0
   -1.6653    2.6655    4.6309 N   0  0  0  0  0  0  0  0  0  0  0  0
   -2.1146    2.4211    5.5478 H   0  0  0  0  0  0  0  0  0  0  0  0
   -2.4103    1.9953    3.5132 C   0  0  0  0  0  0  0  0  0  0  0  0
   -1.6952    4.1674    4.4505 C   0  0  0  0  0  0  0  0  0  0  0  0
   -0.9003    4.8456    5.5906 C   0  0  0  0  0  0  0  0  0  0  0  0
    7.0792    5.0624    0.5276 C   0  0  0  0  0  0  0  0  0  0  0  0
   -0.5593   -0.0072   -0.9360 H   0  0  0  0  0  0  0  0  0  0  0  0
    1.9530    0.0080   -0.9394 H   0  0  0  0  0  0  0  0  0  0  0  0
    1.8106   -0.0113    3.3909 H   0  0  0  0  0  0  0  0  0  0  0  0
   -1.7634    0.0276    1.2775 H   0  0  0  0  0  0  0  0  0  0  0  0
    3.9677   -1.8128    2.2349 H   0  0  0  0  0  0  0  0  0  0  0  0
    6.4793   -1.4119    2.1085 H   0  0  0  0  0  0  0  0  0  0  0  0
    6.9715    2.5330    0.0955 H   0  0  0  0  0  0  0  0  0  0  0  0
    5.3812    6.9965   -0.2724 H   0  0  0  0  0  0  0  0  0  0  0  0
    3.0885    6.7464   -1.1798 H   0  0  0  0  0  0  0  0  0  0  0  0
    3.5599    2.4616   -1.1740 H   0  0  0  0  0  0  0  0  0  0  0  0
    1.6859    4.2532   -2.6295 H   0  0  0  0  0  0  0  0  0  0  0  0
   -0.1310    6.3046    0.7242 H   0  0  0  0  0  0  0  0  0  0  0  0
    0.1803    6.6523    3.1639 H   0  0  0  0  0  0  0  0  0  0  0  0
    2.6058    3.0963    3.3595 H   0  0  0  0  0  0  0  0  0  0  0  0
    2.2795    2.7318    0.9330 H   0  0  0  0  0  0  0  0  0  0  0  0
    1.4695    6.1185    5.1912 H   0  0  0  0  0  0  0  0  0  0  0  0
    2.4899    4.6767    5.2675 H   0  0  0  0  0  0  0  0  0  0  0  0
    0.1561    2.5718    6.7818 H   0  0  0  0  0  0  0  0  0  0  0  0
    1.6083    2.5744    5.7609 H   0  0  0  0  0  0  0  0  0  0  0  0
   -0.1987    1.0837    4.7733 H   0  0  0  0  0  0  0  0  0  0  0  0
    0.2417    2.3972    3.6580 H   0  0  0  0  0  0  0  0  0  0  0  0
   -2.0181    2.3020    2.5229 H   0  0  0  0  0  0  0  0  0  0  0  0
   -3.4868    2.2364    3.5477 H   0  0  0  0  0  0  0  0  0  0  0  0
   -2.2916    0.8914    3.5694 H   0  0  0  0  0  0  0  0  0  0  0  0
   -1.2530    4.4303    3.4579 H   0  0  0  0  0  0  0  0  0  0  0  0
   -2.7472    4.5259    4.4385 H   0  0  0  0  0  0  0  0  0  0  0  0
   -0.8939    5.9503    5.4230 H   0  0  0  0  0  0  0  0  0  0  0  0
   -1.4230    4.7010    6.5686 H   0  0  0  0  0  0  0  0  0  0  0  0
    7.2906    6.1144    0.7760 H   0  0  0  0  0  0  0  0  0  0  0  0
    7.8835    4.7415   -0.1539 H   0  0  0  0  0  0  0  0  0  0  0  0
    7.1863    4.4995    1.4676 H   0  0  0  0  0  0  0  0  0  0  0  0
  1  2  2  0  0  0  0
  1  6  1  0  0  0  0
  2  3  1  0  0  0  0
  3  7  1  6  0  0  0
  3  4  1  0  0  0  0
  4  5  2  0  0  0  0
  4 41  1  0  0  0  0
  6 42  1  0  0  0  0
  6  5  2  0  0  0  0
  7  8  1  0  0  0  0
  8 43  1  0  0  0  0
  9  8  1  0  0  0  0
  9 44  1  0  0  0  0
 10  9  2  0  0  0  0
 11 12  2  0  0  0  0
 11 10  2  0  0  0  0
 12  7  2  0  0  0  0
 13 45  1  0  0  0  0
 13 11  1  0  0  0  0
 14 15  1  0  0  0  0
 14 13  1  0  0  0  0
 15 38  1  0  0  0  0
 16 46  1  0  0  0  0
 16 15  2  0  0  0  0
 17 16  1  0  0  0  0
 18 17  2  0  0  0  0
 18 19  1  0  0  0  0
 19 14  2  0  0  0  0
 20 18  1  0  0  0  0
 20 21  1  0  0  0  0
 21 23  1  0  0  0  0
 22 21  2  0  0  0  0
 23 24  2  0  0  0  0
 23 28  1  0  0  0  0
 24 25  1  0  0  0  0
 25 51  1  0  0  0  0
 25 26  2  0  0  0  0
 26 29  1  0  0  0  0
 27 52  1  0  0  0  0
 27 26  1  0  0  0  0
 28 27  2  0  0  0  0
 29 54  1  0  0  0  0
 29 55  1  0  0  0  0
 29 30  1  0  0  0  0
 30 31  1  0  0  0  0
 31 56  1  0  0  0  0
 32 58  1  0  0  0  0
 32 31  1  0  0  0  0
 33 32  1  0  0  0  0
 33 34  1  0  0  0  0
 35 61  1  0  0  0  0
 35 62  1  0  0  0  0
 35 33  1  0  0  0  0
 36 33  1  0  0  0  0
 36 37  1  0  0  0  0
 37 30  1  0  0  0  0
 37 66  1  0  0  0  0
 38 67  1  0  0  0  0
 38 69  1  0  0  0  0
 39  1  1  0  0  0  0
 40  2  1  0  0  0  0
 47 17  1  0  0  0  0
 48 19  1  0  0  0  0
 49 20  1  0  0  0  0
 50 24  1  0  0  0  0
 53 28  1  0  0  0  0
 57 31  1  0  0  0  0
 59 32  1  0  0  0  0
 60 35  1  0  0  0  0
 63 36  1  0  0  0  0
 64 36  1  0  0  0  0
 65 37  1  0  0  0  0
 68 38  1  0  0  0  0
M  RAD  2   3   2   8   2
M  END
$$$$
