rmsd110.gzmat
 OpenBabel08211713363D

 69 73  0  0  1  0  0  0  0  0999 V2000
    0.0000    0.0000    0.0000 C   0  0  0  0  0  0  0  0  0  0  0  0
    1.3915    0.0000    0.0000 C   0  0  0  0  0  0  0  0  0  0  0  0
    2.0683    0.0000    1.2240 C   0  0  2  0  0  0  0  0  0  0  0  0
    1.3243    0.0118    2.4114 C   0  0  0  0  0  0  0  0  0  0  0  0
   -0.0227    0.0502    2.4138 N   0  0  0  0  0  0  0  0  0  0  0  0
   -0.6681    0.0256    1.2290 C   0  0  0  0  0  0  0  0  0  0  0  0
    3.5383    0.0804    1.2403 C   0  0  0  0  0  0  0  0  0  0  0  0
    4.3799   -0.8696    1.8169 C   0  0  0  0  0  0  0  0  0  0  0  0
    5.7662   -0.6424    1.7022 C   0  0  0  0  0  0  0  0  0  0  0  0
    6.2739    0.4301    1.0867 N   0  0  0  0  0  0  0  0  0  0  0  0
    5.3764    1.3257    0.5415 C   0  0  0  0  0  0  0  0  0  0  0  0
    4.0197    1.1764    0.6147 N   0  0  0  0  0  0  0  0  0  0  0  0
    5.9121    2.4056   -0.1179 N   0  0  0  0  0  0  0  0  0  0  0  0
    5.1185    3.5047   -0.5452 C   0  0  0  0  0  0  0  0  0  0  0  0
    5.5896    4.8202   -0.3489 C   0  0  0  0  0  0  0  0  0  0  0  0
    4.7701    5.8872   -0.7174 C   0  0  0  0  0  0  0  0  0  0  0  0
    3.4922    5.6786   -1.2319 C   0  0  0  0  0  0  0  0  0  0  0  0
    3.0494    4.3707   -1.4307 C   0  0  0  0  0  0  0  0  0  0  0  0
    3.8801    3.2824   -1.1516 C   0  0  0  0  0  0  0  0  0  0  0  0
    1.7204    4.1111   -1.8900 N   0  0  0  0  0  0  0  0  0  0  0  0
    0.6616    3.9831   -1.0132 C   0  0  0  0  0  0  0  0  0  0  0  0
   -0.4240    3.6279   -1.4300 O   0  0  0  0  0  0  0  0  0  0  0  0
    0.8781    4.3274    0.4213 C   0  0  0  0  0  0  0  0  0  0  0  0
    0.1965    5.4197    0.9547 C   0  0  0  0  0  0  0  0  0  0  0  0
    0.3523    5.7355    2.3024 C   0  0  0  0  0  0  0  0  0  0  0  0
    1.1776    4.9543    3.1133 C   0  0  0  0  0  0  0  0  0  0  0  0
    1.8820    3.8818    2.5644 C   0  0  0  0  0  0  0  0  0  0  0  0
    1.7211    3.5597    1.2204 C   0  0  0  0  0  0  0  0  0  0  0  0
    1.3239    5.2767    4.5764 C   0  0  0  0  0  0  0  0  0  0  0  0
    0.3922    4.5977    5.4967 N   0  0  0  0  0  0  0  0  0  0  0  0
    0.5675    3.1465    5.6116 C   0  0  0  0  0  0  0  0  0  0  0  0
   -0.1951    2.3090    4.5665 C   0  0  0  0  0  0  0  0  0  0  0  0
   -1.6607    2.6839    4.5776 N   0  0  0  0  0  0  0  0  0  0  0  0
   -2.0537    2.4844    5.5308 H   0  0  0  0  0  0  0  0  0  0  0  0
   -2.4050    1.8824    3.5505 C   0  0  0  0  0  0  0  0  0  0  0  0
   -1.7987    4.1619    4.2867 C   0  0  0  0  0  0  0  0  0  0  0  0
   -1.0164    4.9703    5.3467 C   0  0  0  0  0  0  0  0  0  0  0  0
    6.9277    5.0798    0.2492 C   0  0  0  0  0  0  0  0  0  0  0  0
   -0.5595   -0.0023   -0.9363 H   0  0  0  0  0  0  0  0  0  0  0  0
    1.9530    0.0093   -0.9392 H   0  0  0  0  0  0  0  0  0  0  0  0
    1.8126   -0.0052    3.3914 H   0  0  0  0  0  0  0  0  0  0  0  0
   -1.7621    0.0203    1.2778 H   0  0  0  0  0  0  0  0  0  0  0  0
    3.9954   -1.7526    2.3102 H   0  0  0  0  0  0  0  0  0  0  0  0
    6.5025   -1.3473    2.1204 H   0  0  0  0  0  0  0  0  0  0  0  0
    6.9266    2.5144   -0.1000 H   0  0  0  0  0  0  0  0  0  0  0  0
    5.1276    6.9097   -0.5837 H   0  0  0  0  0  0  0  0  0  0  0  0
    2.8470    6.5223   -1.4715 H   0  0  0  0  0  0  0  0  0  0  0  0
    3.5429    2.2684   -1.3789 H   0  0  0  0  0  0  0  0  0  0  0  0
    1.5902    3.8713   -2.8684 H   0  0  0  0  0  0  0  0  0  0  0  0
   -0.4497    6.0278    0.3158 H   0  0  0  0  0  0  0  0  0  0  0  0
   -0.1531    6.6085    2.7127 H   0  0  0  0  0  0  0  0  0  0  0  0
    2.5791    3.3082    3.1736 H   0  0  0  0  0  0  0  0  0  0  0  0
    2.2774    2.7163    0.7893 H   0  0  0  0  0  0  0  0  0  0  0  0
    1.2135    6.3767    4.7502 H   0  0  0  0  0  0  0  0  0  0  0  0
    2.3616    5.0444    4.9267 H   0  0  0  0  0  0  0  0  0  0  0  0
    0.2529    2.8608    6.6459 H   0  0  0  0  0  0  0  0  0  0  0  0
    1.6552    2.8953    5.5567 H   0  0  0  0  0  0  0  0  0  0  0  0
   -0.0863    1.2159    4.7645 H   0  0  0  0  0  0  0  0  0  0  0  0
    0.2205    2.4690    3.5410 H   0  0  0  0  0  0  0  0  0  0  0  0
   -2.0619    2.1236    2.5242 H   0  0  0  0  0  0  0  0  0  0  0  0
   -3.4916    2.0692    3.6055 H   0  0  0  0  0  0  0  0  0  0  0  0
   -2.2230    0.7943    3.6932 H   0  0  0  0  0  0  0  0  0  0  0  0
   -1.4053    4.3773    3.2628 H   0  0  0  0  0  0  0  0  0  0  0  0
   -2.8722    4.4495    4.2853 H   0  0  0  0  0  0  0  0  0  0  0  0
   -1.0931    6.0586    5.1055 H   0  0  0  0  0  0  0  0  0  0  0  0
   -1.4949    4.8586    6.3510 H   0  0  0  0  0  0  0  0  0  0  0  0
    7.1245    6.1536    0.3927 H   0  0  0  0  0  0  0  0  0  0  0  0
    7.7423    4.7041   -0.3905 H   0  0  0  0  0  0  0  0  0  0  0  0
    7.0325    4.6127    1.2407 H   0  0  0  0  0  0  0  0  0  0  0  0
  1  2  2  0  0  0  0
  1  6  1  0  0  0  0
  2  3  1  0  0  0  0
  3  7  1  6  0  0  0
  3  4  1  0  0  0  0
  4  5  2  0  0  0  0
  4 41  1  0  0  0  0
  6 42  1  0  0  0  0
  6  5  2  0  0  0  0
  7  8  1  0  0  0  0
  8 43  1  0  0  0  0
  9  8  1  0  0  0  0
  9 44  1  0  0  0  0
 10  9  2  0  0  0  0
 11 12  2  0  0  0  0
 11 10  2  0  0  0  0
 12  7  2  0  0  0  0
 13 45  1  0  0  0  0
 13 11  1  0  0  0  0
 14 15  1  0  0  0  0
 14 13  1  0  0  0  0
 15 38  1  0  0  0  0
 16 46  1  0  0  0  0
 16 15  2  0  0  0  0
 17 16  1  0  0  0  0
 18 17  2  0  0  0  0
 18 19  1  0  0  0  0
 19 14  2  0  0  0  0
 20 18  1  0  0  0  0
 20 21  1  0  0  0  0
 21 23  1  0  0  0  0
 22 21  2  0  0  0  0
 23 24  2  0  0  0  0
 23 28  1  0  0  0  0
 24 25  1  0  0  0  0
 25 51  1  0  0  0  0
 25 26  2  0  0  0  0
 26 29  1  0  0  0  0
 27 26  1  0  0  0  0
 27 52  1  0  0  0  0
 28 27  2  0  0  0  0
 29 54  1  0  0  0  0
 29 55  1  0  0  0  0
 29 30  1  0  0  0  0
 30 31  1  0  0  0  0
 31 56  1  0  0  0  0
 32 33  1  0  0  0  0
 32 58  1  0  0  0  0
 32 31  1  0  0  0  0
 33 34  1  0  0  0  0
 35 61  1  0  0  0  0
 35 62  1  0  0  0  0
 35 33  1  0  0  0  0
 36 33  1  0  0  0  0
 36 37  1  0  0  0  0
 37 30  1  0  0  0  0
 37 66  1  0  0  0  0
 38 67  1  0  0  0  0
 38 69  1  0  0  0  0
 39  1  1  0  0  0  0
 40  2  1  0  0  0  0
 47 17  1  0  0  0  0
 48 19  1  0  0  0  0
 49 20  1  0  0  0  0
 50 24  1  0  0  0  0
 53 28  1  0  0  0  0
 57 31  1  0  0  0  0
 59 32  1  0  0  0  0
 60 35  1  0  0  0  0
 63 36  1  0  0  0  0
 64 36  1  0  0  0  0
 65 37  1  0  0  0  0
 68 38  1  0  0  0  0
M  RAD  2   3   2   8   2
M  END
$$$$
