rmsd157.gzmat
 OpenBabel08211713363D

 69 73  0  0  1  0  0  0  0  0999 V2000
    0.0000    0.0000    0.0000 C   0  0  0  0  0  0  0  0  0  0  0  0
    1.3915    0.0000    0.0000 C   0  0  0  0  0  0  0  0  0  0  0  0
    2.0675    0.0000    1.2241 C   0  0  1  0  0  0  0  0  0  0  0  0
    1.3234   -0.0096    2.4113 C   0  0  0  0  0  0  0  0  0  0  0  0
   -0.0232   -0.0469    2.4137 N   0  0  0  0  0  0  0  0  0  0  0  0
   -0.6685   -0.0240    1.2288 C   0  0  0  0  0  0  0  0  0  0  0  0
    3.5372   -0.0828    1.2447 C   0  0  0  0  0  0  0  0  0  0  0  0
    4.3799    0.8865    1.7866 C   0  0  0  0  0  0  0  0  0  0  0  0
    5.7657    0.6475    1.6908 C   0  0  0  0  0  0  0  0  0  0  0  0
    6.2720   -0.4485    1.1170 N   0  0  0  0  0  0  0  0  0  0  0  0
    5.3735   -1.3582    0.5972 C   0  0  0  0  0  0  0  0  0  0  0  0
    4.0165   -1.2035    0.6628 N   0  0  0  0  0  0  0  0  0  0  0  0
    5.9074   -2.4598   -0.0258 N   0  0  0  0  0  0  0  0  0  0  0  0
    5.1089   -3.5515   -0.4624 C   0  0  0  0  0  0  0  0  0  0  0  0
    5.5574   -4.8716   -0.2454 C   0  0  0  0  0  0  0  0  0  0  0  0
    4.7373   -5.9309   -0.6340 C   0  0  0  0  0  0  0  0  0  0  0  0
    3.4745   -5.7102   -1.1798 C   0  0  0  0  0  0  0  0  0  0  0  0
    3.0483   -4.3981   -1.3857 C   0  0  0  0  0  0  0  0  0  0  0  0
    3.8861   -3.3179   -1.0957 C   0  0  0  0  0  0  0  0  0  0  0  0
    1.7242   -4.1254   -1.8519 N   0  0  0  0  0  0  0  0  0  0  0  0
    0.6671   -3.9944   -0.9729 C   0  0  0  0  0  0  0  0  0  0  0  0
   -0.4155   -3.6235   -1.3827 O   0  0  0  0  0  0  0  0  0  0  0  0
    0.8858   -4.3556    0.4575 C   0  0  0  0  0  0  0  0  0  0  0  0
    1.7427   -3.6066    1.2593 C   0  0  0  0  0  0  0  0  0  0  0  0
    1.9127   -3.9485    2.5972 C   0  0  0  0  0  0  0  0  0  0  0  0
    1.1965   -5.0165    3.1396 C   0  0  0  0  0  0  0  0  0  0  0  0
    0.3572   -5.7792    2.3262 C   0  0  0  0  0  0  0  0  0  0  0  0
    0.1972   -5.4470    0.9831 C   0  0  0  0  0  0  0  0  0  0  0  0
    1.3385   -5.3445    4.6017 C   0  0  0  0  0  0  0  0  0  0  0  0
    0.4253   -4.6370    5.5200 N   0  0  0  0  0  0  0  0  0  0  0  0
   -0.9906   -4.9869    5.3828 C   0  0  0  0  0  0  0  0  0  0  0  0
   -1.7662   -4.1746    4.3212 C   0  0  0  0  0  0  0  0  0  0  0  0
   -1.6020   -2.6963    4.5977 N   0  0  0  0  0  0  0  0  0  0  0  0
   -1.9800   -2.4818    5.5537 H   0  0  0  0  0  0  0  0  0  0  0  0
   -2.3469   -1.8933    3.5722 C   0  0  0  0  0  0  0  0  0  0  0  0
   -0.1307   -2.3456    4.5676 C   0  0  0  0  0  0  0  0  0  0  0  0
    0.6280   -3.1877    5.6132 C   0  0  0  0  0  0  0  0  0  0  0  0
    6.8710   -5.1436    0.3995 C   0  0  0  0  0  0  0  0  0  0  0  0
   -0.5600    0.0000   -0.9360 H   0  0  0  0  0  0  0  0  0  0  0  0
    1.9522   -0.0095   -0.9394 H   0  0  0  0  0  0  0  0  0  0  0  0
    1.8122    0.0083    3.3909 H   0  0  0  0  0  0  0  0  0  0  0  0
   -1.7625   -0.0199    1.2771 H   0  0  0  0  0  0  0  0  0  0  0  0
    3.9969    1.7911    2.2409 H   0  0  0  0  0  0  0  0  0  0  0  0
    6.5027    1.3633    2.0886 H   0  0  0  0  0  0  0  0  0  0  0  0
    6.9204   -2.5763    0.0033 H   0  0  0  0  0  0  0  0  0  0  0  0
    5.0804   -6.9569   -0.4894 H   0  0  0  0  0  0  0  0  0  0  0  0
    2.8265   -6.5473   -1.4348 H   0  0  0  0  0  0  0  0  0  0  0  0
    3.5636   -2.3014   -1.3325 H   0  0  0  0  0  0  0  0  0  0  0  0
    1.5993   -3.8732   -2.8274 H   0  0  0  0  0  0  0  0  0  0  0  0
    2.3023   -2.7615    0.8357 H   0  0  0  0  0  0  0  0  0  0  0  0
    2.6235   -3.3926    3.2067 H   0  0  0  0  0  0  0  0  0  0  0  0
   -0.1575   -6.6492    2.7312 H   0  0  0  0  0  0  0  0  0  0  0  0
   -0.4583   -6.0409    0.3408 H   0  0  0  0  0  0  0  0  0  0  0  0
    2.3820   -5.1372    4.9503 H   0  0  0  0  0  0  0  0  0  0  0  0
    1.2012   -6.4409    4.7779 H   0  0  0  0  0  0  0  0  0  0  0  0
   -1.4596   -4.8593    6.3897 H   0  0  0  0  0  0  0  0  0  0  0  0
   -1.0876   -6.0757    5.1511 H   0  0  0  0  0  0  0  0  0  0  0  0
   -2.8442   -4.4443    4.3288 H   0  0  0  0  0  0  0  0  0  0  0  0
   -1.3827   -4.4048    3.2965 H   0  0  0  0  0  0  0  0  0  0  0  0
   -2.0317   -2.1590    2.5433 H   0  0  0  0  0  0  0  0  0  0  0  0
   -2.1357   -0.8070    3.6928 H   0  0  0  0  0  0  0  0  0  0  0  0
   -3.4361   -2.0522    3.6536 H   0  0  0  0  0  0  0  0  0  0  0  0
    0.2701   -2.5186    3.5387 H   0  0  0  0  0  0  0  0  0  0  0  0
   -0.0015   -1.2535    4.7590 H   0  0  0  0  0  0  0  0  0  0  0  0
    1.7193   -2.9571    5.5428 H   0  0  0  0  0  0  0  0  0  0  0  0
    0.3305   -2.8835    6.6472 H   0  0  0  0  0  0  0  0  0  0  0  0
    7.0504   -6.2190    0.5530 H   0  0  0  0  0  0  0  0  0  0  0  0
    6.9453   -4.6735    1.3922 H   0  0  0  0  0  0  0  0  0  0  0  0
    7.7122   -4.7783   -0.2111 H   0  0  0  0  0  0  0  0  0  0  0  0
  1  2  2  0  0  0  0
  1  6  1  0  0  0  0
  2  3  1  0  0  0  0
  3  7  1  6  0  0  0
  3  4  1  0  0  0  0
  4  5  2  0  0  0  0
  4 41  1  0  0  0  0
  6 42  1  0  0  0  0
  6  5  2  0  0  0  0
  7  8  1  0  0  0  0
  8 43  1  0  0  0  0
  9  8  1  0  0  0  0
  9 44  1  0  0  0  0
 10  9  2  0  0  0  0
 11 12  2  0  0  0  0
 11 10  2  0  0  0  0
 12  7  2  0  0  0  0
 13 45  1  0  0  0  0
 13 11  1  0  0  0  0
 14 15  1  0  0  0  0
 14 13  1  0  0  0  0
 15 38  1  0  0  0  0
 16 46  1  0  0  0  0
 16 15  2  0  0  0  0
 17 16  1  0  0  0  0
 18 17  2  0  0  0  0
 18 19  1  0  0  0  0
 19 14  2  0  0  0  0
 20 18  1  0  0  0  0
 20 21  1  0  0  0  0
 21 23  1  0  0  0  0
 22 21  2  0  0  0  0
 23 28  2  0  0  0  0
 23 24  1  0  0  0  0
 24 25  2  0  0  0  0
 25 26  1  0  0  0  0
 25 51  1  0  0  0  0
 26 29  1  0  0  0  0
 27 52  1  0  0  0  0
 27 26  2  0  0  0  0
 28 27  1  0  0  0  0
 29 55  1  0  0  0  0
 29 54  1  0  0  0  0
 29 30  1  0  0  0  0
 30 37  1  0  0  0  0
 31 30  1  0  0  0  0
 31 56  1  0  0  0  0
 32 58  1  0  0  0  0
 32 33  1  0  0  0  0
 32 31  1  0  0  0  0
 33 34  1  0  0  0  0
 35 62  1  0  0  0  0
 35 61  1  0  0  0  0
 35 33  1  0  0  0  0
 36 33  1  0  0  0  0
 36 64  1  0  0  0  0
 36 37  1  0  0  0  0
 37 66  1  0  0  0  0
 38 67  1  0  0  0  0
 38 68  1  0  0  0  0
 39  1  1  0  0  0  0
 40  2  1  0  0  0  0
 47 17  1  0  0  0  0
 48 19  1  0  0  0  0
 49 20  1  0  0  0  0
 50 24  1  0  0  0  0
 53 28  1  0  0  0  0
 57 31  1  0  0  0  0
 59 32  1  0  0  0  0
 60 35  1  0  0  0  0
 63 36  1  0  0  0  0
 65 37  1  0  0  0  0
 69 38  1  0  0  0  0
M  RAD  2   3   2   8   2
M  END
$$$$
