69
rmsd157.gzmat
C          0.00000        0.00000        0.00000
C          1.39150        0.00000        0.00000
C          2.06750        0.00000        1.22410
C          1.32340       -0.00960        2.41130
N         -0.02320       -0.04690        2.41370
C         -0.66850       -0.02400        1.22880
C          3.53720       -0.08280        1.24470
C          4.37990        0.88650        1.78660
C          5.76570        0.64750        1.69080
N          6.27200       -0.44850        1.11700
C          5.37350       -1.35820        0.59720
N          4.01650       -1.20350        0.66280
N          5.90740       -2.45980       -0.02580
C          5.10890       -3.55150       -0.46240
C          5.55740       -4.87160       -0.24540
C          4.73730       -5.93090       -0.63400
C          3.47450       -5.71020       -1.17980
C          3.04830       -4.39810       -1.38570
C          3.88610       -3.31790       -1.09570
N          1.72420       -4.12540       -1.85190
C          0.66710       -3.99440       -0.97290
O         -0.41550       -3.62350       -1.38270
C          0.88580       -4.35560        0.45750
C          1.74270       -3.60660        1.25930
C          1.91270       -3.94850        2.59720
C          1.19650       -5.01650        3.13960
C          0.35720       -5.77920        2.32620
C          0.19720       -5.44700        0.98310
C          1.33850       -5.34450        4.60170
N          0.42530       -4.63700        5.52000
C         -0.99060       -4.98690        5.38280
C         -1.76620       -4.17460        4.32120
N         -1.60200       -2.69630        4.59770
H         -1.98000       -2.48180        5.55370
C         -2.34690       -1.89330        3.57220
C         -0.13070       -2.34560        4.56760
C          0.62800       -3.18770        5.61320
C          6.87100       -5.14360        0.39950
H         -0.56000        0.00000       -0.93600
H          1.95220       -0.00950       -0.93940
H          1.81220        0.00830        3.39090
H         -1.76250       -0.01990        1.27710
H          3.99690        1.79110        2.24090
H          6.50270        1.36330        2.08860
H          6.92040       -2.57630        0.00330
H          5.08040       -6.95690       -0.48940
H          2.82650       -6.54730       -1.43480
H          3.56360       -2.30140       -1.33250
H          1.59930       -3.87320       -2.82740
H          2.30230       -2.76150        0.83570
H          2.62350       -3.39260        3.20670
H         -0.15750       -6.64920        2.73120
H         -0.45830       -6.04090        0.34080
H          2.38200       -5.13720        4.95030
H          1.20120       -6.44090        4.77790
H         -1.45960       -4.85930        6.38970
H         -1.08760       -6.07570        5.15110
H         -2.84420       -4.44430        4.32880
H         -1.38270       -4.40480        3.29650
H         -2.03170       -2.15900        2.54330
H         -2.13570       -0.80700        3.69280
H         -3.43610       -2.05220        3.65360
H          0.27010       -2.51860        3.53870
H         -0.00150       -1.25350        4.75900
H          1.71930       -2.95710        5.54280
H          0.33050       -2.88350        6.64720
H          7.05040       -6.21900        0.55300
H          6.94530       -4.67350        1.39220
H          7.71220       -4.77830       -0.21110
