rmsd211.gzmat
 OpenBabel08211713363D

 69 73  0  0  1  0  0  0  0  0999 V2000
    0.0000    0.0000    0.0000 C   0  0  0  0  0  0  0  0  0  0  0  0
    1.3940    0.0000    0.0000 C   0  0  0  0  0  0  0  0  0  0  0  0
    2.0709    0.0000    1.2202 C   0  0  2  0  0  0  0  0  0  0  0  0
    1.3209   -0.0185    2.4109 C   0  0  0  0  0  0  0  0  0  0  0  0
   -0.0244    0.0136    2.4132 N   0  0  0  0  0  0  0  0  0  0  0  0
   -0.6704    0.0155    1.2263 C   0  0  0  0  0  0  0  0  0  0  0  0
    3.5405    0.0191    1.2706 C   0  0  0  0  0  0  0  0  0  0  0  0
    4.3060    0.8126    0.4109 C   0  0  0  0  0  0  0  0  0  0  0  0
    5.7029    0.7648    0.5728 C   0  0  0  0  0  0  0  0  0  0  0  0
    6.2893    0.0041    1.4997 N   0  0  0  0  0  0  0  0  0  0  0  0
    5.4664   -0.7561    2.3112 C   0  0  0  0  0  0  0  0  0  0  0  0
    4.1046   -0.7650    2.2150 N   0  0  0  0  0  0  0  0  0  0  0  0
    6.1414   -1.5045    3.2477 N   0  0  0  0  0  0  0  0  0  0  0  0
    5.5907   -2.4944    4.0932 C   0  0  0  0  0  0  0  0  0  0  0  0
    6.4593   -3.4868    4.6070 C   0  0  0  0  0  0  0  0  0  0  0  0
    5.9312   -4.4785    5.4314 C   0  0  0  0  0  0  0  0  0  0  0  0
    4.5779   -4.5180    5.7534 C   0  0  0  0  0  0  0  0  0  0  0  0
    3.7371   -3.5179    5.2535 C   0  0  0  0  0  0  0  0  0  0  0  0
    4.2394   -2.4972    4.4448 C   0  0  0  0  0  0  0  0  0  0  0  0
    2.3458   -3.5943    5.5462 N   0  0  0  0  0  0  0  0  0  0  0  0
    1.5275   -2.4926    5.6004 C   0  0  0  0  0  0  0  0  0  0  0  0
    1.9117   -1.3427    5.4974 O   0  0  0  0  0  0  0  0  0  0  0  0
    0.0659   -2.7376    5.7799 C   0  0  0  0  0  0  0  0  0  0  0  0
   -0.4923   -2.7379    7.0554 C   0  0  0  0  0  0  0  0  0  0  0  0
   -1.8642   -2.5393    7.1916 C   0  0  0  0  0  0  0  0  0  0  0  0
   -2.6446   -2.3219    6.0529 C   0  0  0  0  0  0  0  0  0  0  0  0
   -2.1118   -2.5645    4.7845 C   0  0  0  0  0  0  0  0  0  0  0  0
   -0.7407   -2.7574    4.6429 C   0  0  0  0  0  0  0  0  0  0  0  0
   -4.0055   -1.6983    6.1848 C   0  0  0  0  0  0  0  0  0  0  0  0
   -3.9982   -0.2190    6.1422 N   0  0  0  0  0  0  0  0  0  0  0  0
   -3.7054    0.3856    4.8381 C   0  0  0  0  0  0  0  0  0  0  0  0
   -2.2173    0.6339    4.5219 C   0  0  0  0  0  0  0  0  0  0  0  0
   -1.5365    1.3875    5.6408 N   0  0  0  0  0  0  0  0  0  0  0  0
   -1.9513    2.3484    5.7019 H   0  0  0  0  0  0  0  0  0  0  0  0
   -0.0620    1.4877    5.3617 C   0  0  0  0  0  0  0  0  0  0  0  0
   -1.7531    0.6739    6.9548 C   0  0  0  0  0  0  0  0  0  0  0  0
   -3.2584    0.4461    7.2179 C   0  0  0  0  0  0  0  0  0  0  0  0
    7.9135   -3.5024    4.2827 C   0  0  0  0  0  0  0  0  0  0  0  0
   -0.5559   -0.0118   -0.9358 H   0  0  0  0  0  0  0  0  0  0  0  0
    1.9485   -0.0091   -0.9428 H   0  0  0  0  0  0  0  0  0  0  0  0
    1.8177   -0.0711    3.3948 H   0  0  0  0  0  0  0  0  0  0  0  0
   -1.7632    0.0253    1.2766 H   0  0  0  0  0  0  0  0  0  0  0  0
    3.8544    1.4469   -0.3398 H   0  0  0  0  0  0  0  0  0  0  0  0
    6.3799    1.3554   -0.0635 H   0  0  0  0  0  0  0  0  0  0  0  0
    7.1659   -1.4326    3.2142 H   0  0  0  0  0  0  0  0  0  0  0  0
    6.5920   -5.2513    5.8314 H   0  0  0  0  0  0  0  0  0  0  0  0
    4.1917   -5.3112    6.3868 H   0  0  0  0  0  0  0  0  0  0  0  0
    3.5682   -1.7088    4.0884 H   0  0  0  0  0  0  0  0  0  0  0  0
    1.9596   -4.5209    5.6951 H   0  0  0  0  0  0  0  0  0  0  0  0
    0.1395   -2.8532    7.9380 H   0  0  0  0  0  0  0  0  0  0  0  0
   -2.3180   -2.5183    8.1816 H   0  0  0  0  0  0  0  0  0  0  0  0
   -2.7568   -2.5643    3.9065 H   0  0  0  0  0  0  0  0  0  0  0  0
   -0.2969   -2.8739    3.6499 H   0  0  0  0  0  0  0  0  0  0  0  0
   -4.5014   -1.9951    7.1424 H   0  0  0  0  0  0  0  0  0  0  0  0
   -4.6997   -2.0570    5.3860 H   0  0  0  0  0  0  0  0  0  0  0  0
   -4.2724    1.3500    4.8016 H   0  0  0  0  0  0  0  0  0  0  0  0
   -4.1450   -0.2435    4.0267 H   0  0  0  0  0  0  0  0  0  0  0  0
   -2.1074    1.2082    3.5724 H   0  0  0  0  0  0  0  0  0  0  0  0
   -1.6671   -0.3242    4.3363 H   0  0  0  0  0  0  0  0  0  0  0  0
    0.4279    0.4825    5.3495 H   0  0  0  0  0  0  0  0  0  0  0  0
    0.4508    2.0974    6.1244 H   0  0  0  0  0  0  0  0  0  0  0  0
    0.1239    1.9265    4.3623 H   0  0  0  0  0  0  0  0  0  0  0  0
   -1.2044   -0.2991    6.9317 H   0  0  0  0  0  0  0  0  0  0  0  0
   -1.3008    1.2668    7.7802 H   0  0  0  0  0  0  0  0  0  0  0  0
   -3.3758   -0.1305    8.1670 H   0  0  0  0  0  0  0  0  0  0  0  0
   -3.7690    1.4240    7.4043 H   0  0  0  0  0  0  0  0  0  0  0  0
    8.4392   -4.3459    4.7565 H   0  0  0  0  0  0  0  0  0  0  0  0
    8.4253   -2.5931    4.6337 H   0  0  0  0  0  0  0  0  0  0  0  0
    8.0915   -3.6031    3.2000 H   0  0  0  0  0  0  0  0  0  0  0  0
  1  6  1  0  0  0  0
  2  1  2  0  0  0  0
  2  3  1  0  0  0  0
  3  7  1  1  0  0  0
  3  4  1  0  0  0  0
  4  5  2  0  0  0  0
  4 41  1  0  0  0  0
  6 42  1  0  0  0  0
  6  5  2  0  0  0  0
  7 12  2  0  0  0  0
  8  9  1  0  0  0  0
  8  7  1  0  0  0  0
  9 10  2  0  0  0  0
 10 11  2  0  0  0  0
 11 13  1  0  0  0  0
 12 11  2  0  0  0  0
 13 14  1  0  0  0  0
 14 19  2  0  0  0  0
 14 15  1  0  0  0  0
 15 16  2  0  0  0  0
 16 17  1  0  0  0  0
 16 46  1  0  0  0  0
 17 47  1  0  0  0  0
 18 20  1  0  0  0  0
 18 17  2  0  0  0  0
 19 18  1  0  0  0  0
 20 21  1  0  0  0  0
 20 49  1  0  0  0  0
 21 23  1  0  0  0  0
 22 21  2  0  0  0  0
 23 24  2  0  0  0  0
 24 25  1  0  0  0  0
 24 50  1  0  0  0  0
 25 51  1  0  0  0  0
 26 29  1  0  0  0  0
 26 25  2  0  0  0  0
 27 26  1  0  0  0  0
 28 27  2  0  0  0  0
 28 23  1  0  0  0  0
 29 54  1  0  0  0  0
 30 29  1  0  0  0  0
 30 37  1  0  0  0  0
 31 30  1  0  0  0  0
 32 31  1  0  0  0  0
 32 33  1  0  0  0  0
 33 34  1  0  0  0  0
 33 36  1  0  0  0  0
 35 33  1  0  0  0  0
 35 61  1  0  0  0  0
 36 37  1  0  0  0  0
 36 64  1  0  0  0  0
 37 66  1  0  0  0  0
 37 65  1  0  0  0  0
 38 15  1  0  0  0  0
 38 68  1  0  0  0  0
 38 67  1  0  0  0  0
 39  1  1  0  0  0  0
 40  2  1  0  0  0  0
 43  8  1  0  0  0  0
 44  9  1  0  0  0  0
 45 13  1  0  0  0  0
 48 19  1  0  0  0  0
 52 27  1  0  0  0  0
 53 28  1  0  0  0  0
 55 29  1  0  0  0  0
 56 31  1  0  0  0  0
 57 31  1  0  0  0  0
 58 32  1  0  0  0  0
 59 32  1  0  0  0  0
 60 35  1  0  0  0  0
 62 35  1  0  0  0  0
 63 36  1  0  0  0  0
 69 38  1  0  0  0  0
M  RAD  2   3   2   8   2
M  END
$$$$
