69
rmsd118.gzmat
C          0.00000        0.00000        0.00000
C          1.39160        0.00000        0.00000
C          2.06760        0.00000        1.22400
C          1.32340       -0.00730        2.41140
N         -0.02350       -0.04610        2.41390
C         -0.66850       -0.02610        1.22880
C          3.53730       -0.08660        1.24520
C          4.38230        0.88620        1.77690
C          5.76760        0.64240        1.68510
N          6.27070       -0.46210        1.12550
C          5.36990       -1.37630        0.61760
N          4.01340       -1.21590        0.67740
N          5.90330       -2.48820        0.01150
C          5.10840       -3.60590       -0.36210
C          5.57580       -4.91050       -0.09760
C          4.75890       -5.99410       -0.42170
C          3.48390       -5.81010       -0.95180
C          3.04040       -4.51240       -1.20760
C          3.87100       -3.41170       -0.97990
N          1.70580       -4.27530       -1.66350
C          0.66170       -4.12010       -0.77360
O         -0.43390       -3.78570       -1.18040
C          0.91010       -4.40690        0.66870
C          1.74070       -3.58350        1.42400
C          1.92050       -3.83980        2.77970
C          1.24390       -4.90080        3.38350
C          0.44580       -5.74840        2.61290
C          0.27240       -5.49860        1.25370
C          1.38100       -5.12920        4.86510
N          0.41040       -4.42500        5.72590
C         -0.98430       -4.84440        5.57090
C         -1.76780       -4.12080        4.45220
N         -1.67310       -2.62410        4.64940
H         -2.09430       -2.37260        5.57740
C         -2.41130       -1.91330        3.55290
C         -0.21780       -2.21240        4.64680
C          0.54410       -2.96490        5.75530
C          6.90840       -5.14350        0.52280
H         -0.55960        0.00260       -0.93610
H          1.95250       -0.00940       -0.93940
H          1.81200        0.01410        3.39120
H         -1.76240       -0.02510        1.27750
H          4.00140        1.79650        2.22110
H          6.50660        1.36000        2.07640
H          6.91770       -2.59730        0.03340
H          5.11530       -7.00880       -0.23690
H          2.84040       -6.66400       -1.15810
H          3.53460       -2.40970       -1.25520
H          1.56180       -4.06930       -2.64700
H          2.27190       -2.74730        0.94970
H          2.60730       -3.22230        3.35650
H         -0.02820       -6.61810        3.06540
H         -0.35500       -6.15630        0.64650
H          2.40400       -4.83850        5.21540
H          1.30540       -6.21910        5.10690
H         -1.48530       -4.69010        6.55850
H         -1.02710       -5.94630        5.39030
H         -2.83350       -4.43590        4.45180
H         -1.35230       -4.38840        3.44930
H         -2.03920       -2.21520        2.55290
H         -2.25870       -0.81410        3.62440
H         -3.49380       -2.12410        3.59730
H          0.22300       -2.42170        3.64100
H         -0.14050       -1.10690        4.78200
H          1.62560       -2.68770        5.70530
H          0.20110       -2.62590        6.76400
H          7.06080       -6.19560        0.80880
H          7.04830       -4.55440        1.44190
H          7.72820       -4.89130       -0.16920
