rmsd118.gzmat
 OpenBabel08211713363D

 69 73  0  0  1  0  0  0  0  0999 V2000
    0.0000    0.0000    0.0000 C   0  0  0  0  0  0  0  0  0  0  0  0
    1.3916    0.0000    0.0000 C   0  0  0  0  0  0  0  0  0  0  0  0
    2.0676    0.0000    1.2240 C   0  0  1  0  0  0  0  0  0  0  0  0
    1.3234   -0.0073    2.4114 C   0  0  0  0  0  0  0  0  0  0  0  0
   -0.0235   -0.0461    2.4139 N   0  0  0  0  0  0  0  0  0  0  0  0
   -0.6685   -0.0261    1.2288 C   0  0  0  0  0  0  0  0  0  0  0  0
    3.5373   -0.0866    1.2452 C   0  0  0  0  0  0  0  0  0  0  0  0
    4.3823    0.8862    1.7769 C   0  0  0  0  0  0  0  0  0  0  0  0
    5.7676    0.6424    1.6851 C   0  0  0  0  0  0  0  0  0  0  0  0
    6.2707   -0.4621    1.1255 N   0  0  0  0  0  0  0  0  0  0  0  0
    5.3699   -1.3763    0.6176 C   0  0  0  0  0  0  0  0  0  0  0  0
    4.0134   -1.2159    0.6774 N   0  0  0  0  0  0  0  0  0  0  0  0
    5.9033   -2.4882    0.0115 N   0  0  0  0  0  0  0  0  0  0  0  0
    5.1084   -3.6059   -0.3621 C   0  0  0  0  0  0  0  0  0  0  0  0
    5.5758   -4.9105   -0.0976 C   0  0  0  0  0  0  0  0  0  0  0  0
    4.7589   -5.9941   -0.4217 C   0  0  0  0  0  0  0  0  0  0  0  0
    3.4839   -5.8101   -0.9518 C   0  0  0  0  0  0  0  0  0  0  0  0
    3.0404   -4.5124   -1.2076 C   0  0  0  0  0  0  0  0  0  0  0  0
    3.8710   -3.4117   -0.9799 C   0  0  0  0  0  0  0  0  0  0  0  0
    1.7058   -4.2753   -1.6635 N   0  0  0  0  0  0  0  0  0  0  0  0
    0.6617   -4.1201   -0.7736 C   0  0  0  0  0  0  0  0  0  0  0  0
   -0.4339   -3.7857   -1.1804 O   0  0  0  0  0  0  0  0  0  0  0  0
    0.9101   -4.4069    0.6687 C   0  0  0  0  0  0  0  0  0  0  0  0
    1.7407   -3.5835    1.4240 C   0  0  0  0  0  0  0  0  0  0  0  0
    1.9205   -3.8398    2.7797 C   0  0  0  0  0  0  0  0  0  0  0  0
    1.2439   -4.9008    3.3835 C   0  0  0  0  0  0  0  0  0  0  0  0
    0.4458   -5.7484    2.6129 C   0  0  0  0  0  0  0  0  0  0  0  0
    0.2724   -5.4986    1.2537 C   0  0  0  0  0  0  0  0  0  0  0  0
    1.3810   -5.1292    4.8651 C   0  0  0  0  0  0  0  0  0  0  0  0
    0.4104   -4.4250    5.7259 N   0  0  0  0  0  0  0  0  0  0  0  0
   -0.9843   -4.8444    5.5709 C   0  0  0  0  0  0  0  0  0  0  0  0
   -1.7678   -4.1208    4.4522 C   0  0  0  0  0  0  0  0  0  0  0  0
   -1.6731   -2.6241    4.6494 N   0  0  0  0  0  0  0  0  0  0  0  0
   -2.0943   -2.3726    5.5774 H   0  0  0  0  0  0  0  0  0  0  0  0
   -2.4113   -1.9133    3.5529 C   0  0  0  0  0  0  0  0  0  0  0  0
   -0.2178   -2.2124    4.6468 C   0  0  0  0  0  0  0  0  0  0  0  0
    0.5441   -2.9649    5.7553 C   0  0  0  0  0  0  0  0  0  0  0  0
    6.9084   -5.1435    0.5228 C   0  0  0  0  0  0  0  0  0  0  0  0
   -0.5596    0.0026   -0.9361 H   0  0  0  0  0  0  0  0  0  0  0  0
    1.9525   -0.0094   -0.9394 H   0  0  0  0  0  0  0  0  0  0  0  0
    1.8120    0.0141    3.3912 H   0  0  0  0  0  0  0  0  0  0  0  0
   -1.7624   -0.0251    1.2775 H   0  0  0  0  0  0  0  0  0  0  0  0
    4.0014    1.7965    2.2211 H   0  0  0  0  0  0  0  0  0  0  0  0
    6.5066    1.3600    2.0764 H   0  0  0  0  0  0  0  0  0  0  0  0
    6.9177   -2.5973    0.0334 H   0  0  0  0  0  0  0  0  0  0  0  0
    5.1153   -7.0088   -0.2369 H   0  0  0  0  0  0  0  0  0  0  0  0
    2.8404   -6.6640   -1.1581 H   0  0  0  0  0  0  0  0  0  0  0  0
    3.5346   -2.4097   -1.2552 H   0  0  0  0  0  0  0  0  0  0  0  0
    1.5618   -4.0693   -2.6470 H   0  0  0  0  0  0  0  0  0  0  0  0
    2.2719   -2.7473    0.9497 H   0  0  0  0  0  0  0  0  0  0  0  0
    2.6073   -3.2223    3.3565 H   0  0  0  0  0  0  0  0  0  0  0  0
   -0.0282   -6.6181    3.0654 H   0  0  0  0  0  0  0  0  0  0  0  0
   -0.3550   -6.1563    0.6465 H   0  0  0  0  0  0  0  0  0  0  0  0
    2.4040   -4.8385    5.2154 H   0  0  0  0  0  0  0  0  0  0  0  0
    1.3054   -6.2191    5.1069 H   0  0  0  0  0  0  0  0  0  0  0  0
   -1.4853   -4.6901    6.5585 H   0  0  0  0  0  0  0  0  0  0  0  0
   -1.0271   -5.9463    5.3903 H   0  0  0  0  0  0  0  0  0  0  0  0
   -2.8335   -4.4359    4.4518 H   0  0  0  0  0  0  0  0  0  0  0  0
   -1.3523   -4.3884    3.4493 H   0  0  0  0  0  0  0  0  0  0  0  0
   -2.0392   -2.2152    2.5529 H   0  0  0  0  0  0  0  0  0  0  0  0
   -2.2587   -0.8141    3.6244 H   0  0  0  0  0  0  0  0  0  0  0  0
   -3.4938   -2.1241    3.5973 H   0  0  0  0  0  0  0  0  0  0  0  0
    0.2230   -2.4217    3.6410 H   0  0  0  0  0  0  0  0  0  0  0  0
   -0.1405   -1.1069    4.7820 H   0  0  0  0  0  0  0  0  0  0  0  0
    1.6256   -2.6877    5.7053 H   0  0  0  0  0  0  0  0  0  0  0  0
    0.2011   -2.6259    6.7640 H   0  0  0  0  0  0  0  0  0  0  0  0
    7.0608   -6.1956    0.8088 H   0  0  0  0  0  0  0  0  0  0  0  0
    7.0483   -4.5544    1.4419 H   0  0  0  0  0  0  0  0  0  0  0  0
    7.7282   -4.8913   -0.1692 H   0  0  0  0  0  0  0  0  0  0  0  0
  1  2  2  0  0  0  0
  1  6  1  0  0  0  0
  2  3  1  0  0  0  0
  3  7  1  6  0  0  0
  3  4  1  0  0  0  0
  4  5  2  0  0  0  0
  4 41  1  0  0  0  0
  6 42  1  0  0  0  0
  6  5  2  0  0  0  0
  7  8  1  0  0  0  0
  8 43  1  0  0  0  0
  9  8  1  0  0  0  0
  9 44  1  0  0  0  0
 10  9  2  0  0  0  0
 11 12  2  0  0  0  0
 11 10  2  0  0  0  0
 12  7  2  0  0  0  0
 13 45  1  0  0  0  0
 13 11  1  0  0  0  0
 14 15  2  0  0  0  0
 14 13  1  0  0  0  0
 15 38  1  0  0  0  0
 16 46  1  0  0  0  0
 16 15  1  0  0  0  0
 17 16  2  0  0  0  0
 18 19  2  0  0  0  0
 18 17  1  0  0  0  0
 19 14  1  0  0  0  0
 20 18  1  0  0  0  0
 20 21  1  0  0  0  0
 21 23  1  0  0  0  0
 22 21  2  0  0  0  0
 23 28  2  0  0  0  0
 23 24  1  0  0  0  0
 24 25  2  0  0  0  0
 25 51  1  0  0  0  0
 25 26  1  0  0  0  0
 26 29  1  0  0  0  0
 27 52  1  0  0  0  0
 27 26  2  0  0  0  0
 28 27  1  0  0  0  0
 29 55  1  0  0  0  0
 29 54  1  0  0  0  0
 29 30  1  0  0  0  0
 30 37  1  0  0  0  0
 31 30  1  0  0  0  0
 31 56  1  0  0  0  0
 32 33  1  0  0  0  0
 32 31  1  0  0  0  0
 33 34  1  0  0  0  0
 35 62  1  0  0  0  0
 35 61  1  0  0  0  0
 35 33  1  0  0  0  0
 36 33  1  0  0  0  0
 36 64  1  0  0  0  0
 36 37  1  0  0  0  0
 37 66  1  0  0  0  0
 38 67  1  0  0  0  0
 38 68  1  0  0  0  0
 39  1  1  0  0  0  0
 40  2  1  0  0  0  0
 47 17  1  0  0  0  0
 48 19  1  0  0  0  0
 49 20  1  0  0  0  0
 50 24  1  0  0  0  0
 53 28  1  0  0  0  0
 57 31  1  0  0  0  0
 58 32  1  0  0  0  0
 59 32  1  0  0  0  0
 60 35  1  0  0  0  0
 63 36  1  0  0  0  0
 65 37  1  0  0  0  0
 69 38  1  0  0  0  0
M  RAD  2   3   2   8   2
M  END
$$$$
