66

C          1.07540       -0.00570       -0.59040
C          2.52060        0.15580       -0.15310
O          2.66440        0.13730        1.27300
C          2.34010        1.21690        2.04240
C          2.01200        2.46100        1.48390
C          1.70910        3.54770        2.30120
C          1.73050        3.38620        3.68530
C          2.05290        2.16040        4.25560
C          2.36830        1.05650        3.45420
C          2.72870       -0.19820        4.17960
N          2.83260       -0.17220        5.47380
C          3.19100       -1.31450        6.20950
O          3.28660       -1.28550        7.42220
C          3.45000       -2.52240        5.41830
N          3.30410       -2.46260        4.03580
N          2.91470       -1.31230        3.41800
H          2.93420       -1.25440        2.40270
C          3.58890       -3.68620        3.50630
N          3.92020       -4.52020        4.48470
C          3.84080       -3.83540        5.66610
C          4.13580       -4.45830        6.98960
C          3.59220       -3.98120        2.04140
C          4.97360       -3.80700        1.38110
C          5.53010       -2.38620        1.46450
S          1.24670        4.75600        4.73240
O          1.29120        5.95610        3.88250
O          0.01430        4.39830        5.43760
N          2.47860        4.75910        5.87030
C          3.72730        5.42200        5.46680
C          3.71500        6.90560        5.86490
N          3.40160        7.11370        7.27540
C          2.13950        6.46820        7.62030
C          2.11080        4.97390        7.27810
C          4.49520        6.85640        8.20640
C          5.60110        7.90540        8.12500
H          1.02170       -0.04960       -1.68930
H          0.44800        0.83100       -0.25040
H          0.65210       -0.93790       -0.18660
H          2.98120        1.06990       -0.56030
H          3.13060       -0.69290       -0.49430
H          1.99380        2.59370        0.40400
H          1.46020        4.52110        1.87660
H          2.08990        2.02160        5.33650
H          3.46390       -5.31200        7.17450
H          4.00780       -3.71790        7.78940
H          5.16680       -4.84680        7.01440
H          2.84630       -3.34710        1.52790
H          3.25680       -5.02150        1.91910
H          4.89780       -4.12050        0.32590
H          5.67350       -4.50620        1.86710
H          4.85500       -1.65230        0.99210
H          6.50380       -2.30980        0.95670
H          5.68010       -2.07200        2.50980
H          3.86290        5.30850        4.38150
H          4.55440        4.88120        5.95640
H          4.68380        7.36810        5.62430
H          2.94820        7.41060        5.25570
H          1.93540        6.61670        8.69280
H          1.32790        6.96440        7.05880
H          2.83760        4.41200        7.88830
H          1.11890        4.53830        7.45020
H          4.94480        5.84440        8.09250
H          4.06470        6.87590        9.22090
H          6.12730        7.88070        7.15780
H          6.35410        7.73160        8.90970
H          5.17960        8.91400        8.25480
