66

C          1.10090       -0.17420       -0.85930
C          2.55640       -0.33200       -0.45420
O          2.74810       -0.24400        0.96380
C          2.44130       -1.28090        1.79590
C          2.03400       -2.53280        1.31120
C          1.73740       -3.57180        2.19030
C          1.84270       -3.35420        3.56270
C          2.24780       -2.12130        4.06040
C          2.56690       -1.06730        3.19550
C          3.02490        0.19690        3.84560
N          3.08480        0.25510        5.14200
C          3.50130        1.41760        5.81150
O          3.56320        1.46500        7.02590
C          3.84790        2.55460        4.95140
N          3.76540        2.40110        3.57090
N          3.36480        1.22270        3.01760
H          3.26560        1.14350        2.00860
C          4.14200        3.56650        2.97160
N          4.45220        4.45810        3.90510
C          4.28320        3.86530        5.12610
C          4.54690        4.56800        6.41580
C          4.12970        3.78870        1.49390
C          2.81220        4.39160        0.97000
C          1.58710        3.51000        1.20810
S          1.35890       -4.65710        4.69190
O          0.17680       -4.22090        5.43760
O          1.31600       -5.89330        3.89520
N          2.64390       -4.66120        5.77020
C          2.33540       -4.80680        7.20100
C          2.32350       -6.28670        7.60170
N          3.54250       -6.99470        7.22600
C          3.79660       -6.85400        5.79540
C          3.84580       -5.38870        5.33690
C          4.68750       -6.74600        8.09520
C          5.74810       -7.84020        8.00500
H          1.01790       -0.20220       -1.95700
H          0.70320        0.78980       -0.50890
H          0.46980       -0.97500       -0.44820
H          3.16340        0.49120       -0.85760
H          2.99320       -1.27230       -0.82720
H          1.94480       -2.70800        0.24090
H          1.42730       -4.55080        1.82260
H          2.34840       -1.93820        5.13050
H          5.59260        4.91270        6.46270
H          4.35010        3.89230        7.25790
H          3.90750        5.46080        6.50900
H          4.34400        2.83990        0.96810
H          4.96160        4.46990        1.26280
H          2.92630        4.59410       -0.10860
H          2.66530        5.36830        1.45940
H          1.70440        2.51640        0.74360
H          0.67910        3.96590        0.78450
H          1.40450        3.35240        2.28300
H          1.37030       -4.32540        7.40080
H          3.11140       -4.25130        7.75400
H          2.16480       -6.38540        8.68760
H          1.46800       -6.77150        7.09850
H          4.73490       -7.36330        5.52980
H          2.98350       -7.35190        5.24300
H          4.71530       -4.86260        5.76530
H          3.93360       -5.32330        4.24280
H          4.30480       -6.71030        9.12830
H          5.16930       -5.75760        7.92130
H          5.29540       -8.82580        8.19330
H          6.54300       -7.66700        8.74750
H          6.22910       -7.87260        7.01480
