
     RDKit          3D

 66 69  0  0  0  0  0  0  0  0999 V2000
    1.1009   -0.1742   -0.8593 C   0  0  0  0  0  0  0  0  0  0  0  0
    2.5564   -0.3320   -0.4542 C   0  0  0  0  0  0  0  0  0  0  0  0
    2.7481   -0.2440    0.9638 O   0  0  0  0  0  0  0  0  0  0  0  0
    2.4413   -1.2809    1.7959 C   0  0  0  0  0  0  0  0  0  0  0  0
    2.0340   -2.5328    1.3112 C   0  0  0  0  0  0  0  0  0  0  0  0
    1.7374   -3.5718    2.1903 C   0  0  0  0  0  0  0  0  0  0  0  0
    1.8427   -3.3542    3.5627 C   0  0  0  0  0  0  0  0  0  0  0  0
    2.2478   -2.1213    4.0604 C   0  0  0  0  0  0  0  0  0  0  0  0
    2.5669   -1.0673    3.1955 C   0  0  0  0  0  0  0  0  0  0  0  0
    3.0249    0.1969    3.8456 C   0  0  0  0  0  0  0  0  0  0  0  0
    3.0848    0.2551    5.1420 N   0  0  0  0  0  0  0  0  0  0  0  0
    3.5013    1.4176    5.8115 C   0  0  0  0  0  0  0  0  0  0  0  0
    3.5632    1.4650    7.0259 O   0  0  0  0  0  0  0  0  0  0  0  0
    3.8479    2.5546    4.9514 C   0  0  0  0  0  0  0  0  0  0  0  0
    3.7654    2.4011    3.5709 N   0  0  0  0  0  0  0  0  0  0  0  0
    3.3648    1.2227    3.0176 N   0  0  0  0  0  0  0  0  0  0  0  0
    3.2656    1.1435    2.0086 H   0  0  0  0  0  0  0  0  0  0  0  0
    4.1420    3.5665    2.9716 C   0  0  0  0  0  0  0  0  0  0  0  0
    4.4522    4.4581    3.9051 N   0  0  0  0  0  0  0  0  0  0  0  0
    4.2832    3.8653    5.1261 C   0  0  0  0  0  0  0  0  0  0  0  0
    4.5469    4.5680    6.4158 C   0  0  0  0  0  0  0  0  0  0  0  0
    4.1297    3.7887    1.4939 C   0  0  0  0  0  0  0  0  0  0  0  0
    2.8122    4.3916    0.9700 C   0  0  0  0  0  0  0  0  0  0  0  0
    1.5871    3.5100    1.2081 C   0  0  0  0  0  0  0  0  0  0  0  0
    1.3589   -4.6571    4.6919 S   0  0  0  0  0  0  0  0  0  0  0  0
    0.1768   -4.2209    5.4376 O   0  0  0  0  0  0  0  0  0  0  0  0
    1.3160   -5.8933    3.8952 O   0  0  0  0  0  0  0  0  0  0  0  0
    2.6439   -4.6612    5.7702 N   0  0  0  0  0  0  0  0  0  0  0  0
    2.3354   -4.8068    7.2010 C   0  0  0  0  0  0  0  0  0  0  0  0
    2.3235   -6.2867    7.6017 C   0  0  0  0  0  0  0  0  0  0  0  0
    3.5425   -6.9947    7.2260 N   0  0  0  0  0  0  0  0  0  0  0  0
    3.7966   -6.8540    5.7954 C   0  0  0  0  0  0  0  0  0  0  0  0
    3.8458   -5.3887    5.3369 C   0  0  0  0  0  0  0  0  0  0  0  0
    4.6875   -6.7460    8.0952 C   0  0  0  0  0  0  0  0  0  0  0  0
    5.7481   -7.8402    8.0050 C   0  0  0  0  0  0  0  0  0  0  0  0
    1.0179   -0.2022   -1.9570 H   0  0  0  0  0  0  0  0  0  0  0  0
    0.7032    0.7898   -0.5089 H   0  0  0  0  0  0  0  0  0  0  0  0
    0.4698   -0.9750   -0.4482 H   0  0  0  0  0  0  0  0  0  0  0  0
    3.1634    0.4912   -0.8576 H   0  0  0  0  0  0  0  0  0  0  0  0
    2.9932   -1.2723   -0.8272 H   0  0  0  0  0  0  0  0  0  0  0  0
    1.9448   -2.7080    0.2409 H   0  0  0  0  0  0  0  0  0  0  0  0
    1.4273   -4.5508    1.8226 H   0  0  0  0  0  0  0  0  0  0  0  0
    2.3484   -1.9382    5.1305 H   0  0  0  0  0  0  0  0  0  0  0  0
    5.5926    4.9127    6.4627 H   0  0  0  0  0  0  0  0  0  0  0  0
    4.3501    3.8923    7.2579 H   0  0  0  0  0  0  0  0  0  0  0  0
    3.9075    5.4608    6.5090 H   0  0  0  0  0  0  0  0  0  0  0  0
    4.3440    2.8399    0.9681 H   0  0  0  0  0  0  0  0  0  0  0  0
    4.9616    4.4699    1.2628 H   0  0  0  0  0  0  0  0  0  0  0  0
    2.9263    4.5941   -0.1086 H   0  0  0  0  0  0  0  0  0  0  0  0
    2.6653    5.3683    1.4594 H   0  0  0  0  0  0  0  0  0  0  0  0
    1.7044    2.5164    0.7436 H   0  0  0  0  0  0  0  0  0  0  0  0
    0.6791    3.9659    0.7845 H   0  0  0  0  0  0  0  0  0  0  0  0
    1.4045    3.3524    2.2830 H   0  0  0  0  0  0  0  0  0  0  0  0
    1.3703   -4.3254    7.4008 H   0  0  0  0  0  0  0  0  0  0  0  0
    3.1114   -4.2513    7.7540 H   0  0  0  0  0  0  0  0  0  0  0  0
    2.1648   -6.3854    8.6876 H   0  0  0  0  0  0  0  0  0  0  0  0
    1.4680   -6.7715    7.0985 H   0  0  0  0  0  0  0  0  0  0  0  0
    4.7349   -7.3633    5.5298 H   0  0  0  0  0  0  0  0  0  0  0  0
    2.9835   -7.3519    5.2430 H   0  0  0  0  0  0  0  0  0  0  0  0
    4.7153   -4.8626    5.7653 H   0  0  0  0  0  0  0  0  0  0  0  0
    3.9336   -5.3233    4.2428 H   0  0  0  0  0  0  0  0  0  0  0  0
    4.3048   -6.7103    9.1283 H   0  0  0  0  0  0  0  0  0  0  0  0
    5.1693   -5.7576    7.9213 H   0  0  0  0  0  0  0  0  0  0  0  0
    5.2954   -8.8258    8.1933 H   0  0  0  0  0  0  0  0  0  0  0  0
    6.5430   -7.6670    8.7475 H   0  0  0  0  0  0  0  0  0  0  0  0
    6.2291   -7.8726    7.0148 H   0  0  0  0  0  0  0  0  0  0  0  0
  1  2  1  0
  1 36  1  0
  1 37  1  0
  1 38  1  0
  2  3  1  0
  2 39  1  0
  2 40  1  0
  3  4  1  0
  4  5  2  0
  4  9  1  0
  5  6  1  0
  5 41  1  0
  6  7  2  0
  6 42  1  0
  7  8  1  0
 25  7  1  0
  8  9  2  0
  8 43  1  0
  9 10  1  0
 10 11  2  0
 10 16  1  0
 11 12  1  0
 12 13  2  0
 12 14  1  0
 14 15  1  0
 14 20  2  0
 15 16  1  0
 15 18  1  0
 16 17  1  0
 18 19  2  0
 18 22  1  0
 19 20  1  0
 20 21  1  0
 21 44  1  0
 21 45  1  0
 21 46  1  0
 22 23  1  0
 22 47  1  0
 22 48  1  0
 23 24  1  0
 23 49  1  0
 23 50  1  0
 24 51  1  0
 24 52  1  0
 24 53  1  0
 25 26  2  0
 25 27  2  0
 25 28  1  0
 28 29  1  0
 28 33  1  0
 29 30  1  0
 29 54  1  0
 29 55  1  0
 30 31  1  0
 30 56  1  0
 30 57  1  0
 31 32  1  0
 31 34  1  0
 32 33  1  0
 32 58  1  0
 32 59  1  0
 33 60  1  0
 33 61  1  0
 34 35  1  0
 34 62  1  0
 34 63  1  0
 35 64  1  0
 35 65  1  0
 35 66  1  0
M  END

