66
rmsd73.gzmat
C          0.00000        0.00000        0.00000
C          1.51530        0.00000        0.00000
O          2.01120        0.00000        1.34200
C          1.81180       -1.08780        2.12040
C          1.58630       -2.37960        1.64050
C          1.47940       -3.42430        2.55270
C          1.58110       -3.18220        3.92370
C          1.76500       -1.88700        4.40170
C          1.90120       -0.82800        3.50160
C          2.07950        0.54050        4.01170
N          1.30170        1.02830        4.91900
C          1.44350        2.36660        5.40970
O          0.69050        2.78030        6.25070
C          2.53380        3.12220        4.81100
N          3.35040        2.53410        3.82270
N          3.25590        1.18800        3.49390
H          3.45600        1.03170        2.49190
C          4.34720        3.43530        3.47120
N          4.14160        4.58400        4.15990
C          3.04620        4.41680        4.98570
C          2.55510        5.47770        5.87750
C          5.41910        3.18620        2.48190
C          5.00950        3.67410        1.08300
C          3.93030        2.79780        0.45060
S          1.50350       -4.53790        5.03790
O          0.87290       -4.12220        6.26680
O          1.04040       -5.68860        4.29220
N          3.20770       -4.78820        5.38840
C          3.61920       -4.57420        6.78780
C          3.36700       -5.81550        7.67970
N          3.96240       -7.06060        7.15270
C          3.55710       -7.25710        5.74720
C          3.80590       -6.02040        4.84520
C          5.43420       -7.09990        7.33790
C          5.91630       -8.55550        7.27620
H         -0.40320        0.21030       -0.99900
H         -0.39910        0.76760        0.68180
H         -0.41650       -0.96050        0.33000
H          1.94210        0.95730       -0.36710
H          1.95690       -0.83940       -0.56230
H          1.50430       -2.57470        0.57660
H          1.30780       -4.44270        2.17420
H          1.79280       -1.66780        5.48210
H          3.34150        5.81360        6.57470
H          1.69260        5.13970        6.47920
H          2.23740        6.36760        5.30830
H          5.71090        2.11600        2.45710
H          6.33810        3.73320        2.80790
H          5.90400        3.70050        0.43040
H          4.65430        4.72440        1.14850
H          4.24270        1.75000        0.38870
H          3.70870        3.13320       -0.57080
H          2.98970        2.85100        1.01200
H          3.09520       -3.68850        7.21530
H          4.70370       -4.32110        6.78170
H          3.74020       -5.63230        8.70760
H          2.26980       -5.99430        7.78580
H          4.07890       -8.14310        5.33240
H          2.47150       -7.51740        5.74750
H          4.89980       -5.83980        4.73800
H          3.42280       -6.22040        3.82030
H          5.67450       -6.68100        8.34060
H          5.98210       -6.48170        6.59670
H          5.30550       -9.19120        7.93300
H          6.95940       -8.63650        7.59810
H          5.84190       -8.97100        6.26660
