66
rmsd10.gzmat
C          0.00000        0.00000        0.00000
C          1.51590        0.00000        0.00000
O          2.02050        0.00000        1.34040
C          1.86890        1.17240        2.02910
C          2.71120        2.25130        1.76400
C          2.61410        3.38660        2.56370
C          1.67910        3.43870        3.59920
C          0.84130        2.35890        3.86040
C          0.92880        1.20880        3.06920
C         -0.00080        0.09250        3.30340
N         -1.25430        0.30460        3.54640
C         -2.18420       -0.77040        3.72150
O         -3.33080       -0.53100        3.99420
C         -1.62510       -2.09950        3.52220
N         -0.24780       -2.25800        3.25840
N          0.63290       -1.19050        3.34470
H          1.45870       -1.32010        2.73420
C          0.03580       -3.61250        3.14020
N         -1.12710       -4.29730        3.26400
C         -2.15000       -3.40110        3.50810
C         -3.54560       -3.82340        3.69640
C          1.36940       -4.19890        2.87980
C          2.12530       -4.47130        4.19290
C          2.69730       -3.20020        4.81270
S          1.55950        4.89710        4.57880
O          0.96450        4.54390        5.84470
O          2.82330        5.59580        4.49550
N          0.39750        5.84110        3.66370
C         -0.98980        5.81420        4.16340
C         -1.23620        6.83310        5.30440
N         -0.83230        8.21320        4.97120
C          0.55390        8.22380        4.46180
C          0.80790        7.21270        3.31500
C         -1.77420        8.88440        4.04170
C         -3.04480        9.28350        4.80340
H         -0.39980       -0.06010       -1.02120
H         -0.41460        0.91170        0.45410
H         -0.41360       -0.85150        0.55610
H          1.94390        0.85350       -0.55340
H          1.94730       -0.94660       -0.38340
H          3.43780        2.19200        0.95840
H          3.28890        4.23210        2.37260
H          0.10040        2.38230        4.67890
H         -3.62350       -4.65260        4.42040
H         -3.98530       -4.18830        2.75250
H         -4.17770       -2.99400        4.06080
H          1.97660       -3.55940        2.20870
H          1.23400       -5.16250        2.32980
H          2.94110       -5.19430        3.99720
H          1.44620       -4.97330        4.91300
H          3.34320       -2.65680        4.11570
H          3.29800       -3.42960        5.70130
H          1.90350       -2.51440        5.13760
H         -1.26130        4.79020        4.50560
H         -1.65760        6.03670        3.29990
H         -2.30420        6.82250        5.60170
H         -0.66440        6.53240        6.21650
H          0.82160        9.24880        4.13420
H          1.22230        8.00270        5.32680
H          0.23390        7.51190        2.40870
H          1.88260        7.23490        3.02240
H         -2.03250        8.26200        3.16010
H         -1.28440        9.80310        3.64910
H         -3.67320        8.41860        5.03550
H         -3.64440        9.99040        4.22190
H         -2.78660        9.76330        5.75820
