rmsd200.gzmat
 OpenBabel08211713423D

 66 69  0  0  1  0  0  0  0  0999 V2000
    0.0000    0.0000    0.0000 C   0  0  0  0  0  0  0  0  0  0  0  0
    1.5161    0.0000    0.0000 C   0  0  0  0  0  0  0  0  0  0  0  0
    2.0027    0.0000    1.3428 O   0  0  0  0  0  0  0  0  0  0  0  0
    1.9861   -1.1418    2.0669 C   0  0  0  0  0  0  0  0  0  0  0  0
    1.6663   -2.4073    1.5720 C   0  0  0  0  0  0  0  0  0  0  0  0
    1.7471   -3.5040    2.4256 C   0  0  0  0  0  0  0  0  0  0  0  0
    2.1384   -3.3382    3.7541 C   0  0  0  0  0  0  0  0  0  0  0  0
    2.4282   -2.0712    4.2535 C   0  0  0  0  0  0  0  0  0  0  0  0
    2.3575   -0.9581    3.4141 C   0  0  0  0  0  0  0  0  0  0  0  0
    2.7285    0.3589    3.9520 C   0  0  0  0  0  0  0  0  0  0  0  0
    3.7595    0.5026    4.7191 N   0  0  0  0  0  0  0  0  0  0  0  0
    4.1541    1.7786    5.2351 C   0  0  0  0  0  0  0  0  0  0  0  0
    5.1093    1.8611    5.9612 O   0  0  0  0  0  0  0  0  0  0  0  0
    3.3290    2.8961    4.7990 C   0  0  2  0  0  0  0  0  0  0  0  0
    2.2219    2.6709    3.9565 N   0  0  0  0  0  0  0  0  0  0  0  0
    1.7752    1.3923    3.6576 N   0  0  0  0  0  0  0  0  0  0  0  0
    1.3280    1.3516    2.7278 H   0  0  0  0  0  0  0  0  0  0  0  0
    1.5956    3.8836    3.7010 C   0  0  0  0  0  0  0  0  0  0  0  0
    2.2997    4.8614    4.3193 N   0  0  0  0  0  0  0  0  0  0  0  0
    3.3551    4.2852    5.0008 C   0  0  0  0  0  0  0  0  0  0  0  0
    4.3102    5.0708    5.7961 C   0  0  0  0  0  0  0  0  0  0  0  0
    0.3905    4.0468    2.8595 C   0  0  0  0  0  0  0  0  0  0  0  0
    0.7316    3.8576    1.3729 C   0  0  0  0  0  0  0  0  0  0  0  0
   -0.5312    3.9302    0.5187 C   0  0  0  0  0  0  0  0  0  0  0  0
    2.3382   -4.7421    4.7901 S   0  0  0  0  0  0  0  0  0  0  0  0
    2.0814   -4.3490    6.1539 O   0  0  0  0  0  0  0  0  0  0  0  0
    1.6669   -5.8689    4.1795 O   0  0  0  0  0  0  0  0  0  0  0  0
    4.0525   -5.0276    4.6247 N   0  0  0  0  0  0  0  0  0  0  0  0
    4.4873   -6.4082    4.3542 C   0  0  0  0  0  0  0  0  0  0  0  0
    5.9335   -6.3593    3.7904 C   0  0  0  0  0  0  0  0  0  0  0  0
    6.8959   -5.6715    4.6742 N   0  0  0  0  0  0  0  0  0  0  0  0
    6.3732   -4.3361    5.0213 C   0  0  0  0  0  0  0  0  0  0  0  0
    4.9321   -4.3522    5.5973 C   0  0  0  0  0  0  0  0  0  0  0  0
    7.2498   -6.4875    5.8610 C   0  0  0  0  0  0  0  0  0  0  0  0
    8.5312   -5.9367    6.4987 C   0  0  0  0  0  0  0  0  0  0  0  0
   -0.3995    0.0243   -1.0222 H   0  0  0  0  0  0  0  0  0  0  0  0
   -0.4056    0.8738    0.5296 H   0  0  0  0  0  0  0  0  0  0  0  0
   -0.4132   -0.8911    0.4913 H   0  0  0  0  0  0  0  0  0  0  0  0
    1.9467    0.9547   -0.3699 H   0  0  0  0  0  0  0  0  0  0  0  0
    1.9571   -0.8357   -0.5688 H   0  0  0  0  0  0  0  0  0  0  0  0
    1.3690   -2.5476    0.5382 H   0  0  0  0  0  0  0  0  0  0  0  0
    1.4960   -4.5006    2.0351 H   0  0  0  0  0  0  0  0  0  0  0  0
    2.7180   -1.9160    5.3077 H   0  0  0  0  0  0  0  0  0  0  0  0
    4.6189    5.9904    5.2715 H   0  0  0  0  0  0  0  0  0  0  0  0
    5.2183    4.4901    6.0358 H   0  0  0  0  0  0  0  0  0  0  0  0
    3.8629    5.3889    6.7543 H   0  0  0  0  0  0  0  0  0  0  0  0
   -0.0352    5.0670    3.0203 H   0  0  0  0  0  0  0  0  0  0  0  0
   -0.4106    3.3445    3.1754 H   0  0  0  0  0  0  0  0  0  0  0  0
    1.2501    2.8960    1.2063 H   0  0  0  0  0  0  0  0  0  0  0  0
    1.4528    4.6406    1.0578 H   0  0  0  0  0  0  0  0  0  0  0  0
   -1.2646    3.1692    0.8069 H   0  0  0  0  0  0  0  0  0  0  0  0
   -0.3007    3.7837   -0.5427 H   0  0  0  0  0  0  0  0  0  0  0  0
   -1.0210    4.9077    0.6105 H   0  0  0  0  0  0  0  0  0  0  0  0
    3.8131   -6.8775    3.6006 H   0  0  0  0  0  0  0  0  0  0  0  0
    4.4538   -7.0508    5.2606 H   0  0  0  0  0  0  0  0  0  0  0  0
    6.2926   -7.3849    3.5739 H   0  0  0  0  0  0  0  0  0  0  0  0
    5.9331   -5.8085    2.8213 H   0  0  0  0  0  0  0  0  0  0  0  0
    7.0604   -3.8406    5.7366 H   0  0  0  0  0  0  0  0  0  0  0  0
    6.3909   -3.7254    4.0883 H   0  0  0  0  0  0  0  0  0  0  0  0
    4.9188   -4.8429    6.5949 H   0  0  0  0  0  0  0  0  0  0  0  0
    4.5959   -3.3015    5.7539 H   0  0  0  0  0  0  0  0  0  0  0  0
    7.4332   -7.5313    5.5209 H   0  0  0  0  0  0  0  0  0  0  0  0
    6.4359   -6.5350    6.6145 H   0  0  0  0  0  0  0  0  0  0  0  0
    9.2905   -5.7376    5.7296 H   0  0  0  0  0  0  0  0  0  0  0  0
    8.9521   -6.6522    7.2117 H   0  0  0  0  0  0  0  0  0  0  0  0
    8.3531   -4.9971    7.0310 H   0  0  0  0  0  0  0  0  0  0  0  0
  1 38  1  0  0  0  0
  1 37  1  0  0  0  0
  2  1  1  0  0  0  0
  2  3  1  0  0  0  0
  3  4  1  0  0  0  0
  4  9  1  0  0  0  0
  5  4  2  0  0  0  0
  5  6  1  0  0  0  0
  6  7  2  0  0  0  0
  7  8  1  0  0  0  0
  7 25  1  0  0  0  0
  8 43  1  0  0  0  0
  9 10  1  0  0  0  0
  9  8  2  0  0  0  0
 10 11  2  0  0  0  0
 11 12  2  0  0  0  0
 12 13  2  0  0  0  0
 14 20  1  6  0  0  0
 14 12  1  0  0  0  0
 15 14  1  0  0  0  0
 16 10  1  0  0  0  0
 16 15  1  0  0  0  0
 17 16  1  0  0  0  0
 18 15  1  0  0  0  0
 18 19  2  0  0  0  0
 19 20  2  0  0  0  0
 20 21  1  0  0  0  0
 21 45  1  0  0  0  0
 21 46  1  0  0  0  0
 22 47  1  0  0  0  0
 22 48  1  0  0  0  0
 22 18  1  0  0  0  0
 23 22  1  0  0  0  0
 24 53  1  0  0  0  0
 24 51  1  0  0  0  0
 24 23  1  0  0  0  0
 25 26  2  0  0  0  0
 27 25  2  0  0  0  0
 28 25  1  0  0  0  0
 28 33  1  0  0  0  0
 29 28  1  0  0  0  0
 29 55  1  0  0  0  0
 30 29  1  0  0  0  0
 30 31  1  0  0  0  0
 31 32  1  0  0  0  0
 31 34  1  0  0  0  0
 32 33  1  0  0  0  0
 32 58  1  0  0  0  0
 33 61  1  0  0  0  0
 33 60  1  0  0  0  0
 34 35  1  0  0  0  0
 34 63  1  0  0  0  0
 35 66  1  0  0  0  0
 35 65  1  0  0  0  0
 36  1  1  0  0  0  0
 39  2  1  0  0  0  0
 40  2  1  0  0  0  0
 41  5  1  0  0  0  0
 42  6  1  0  0  0  0
 44 21  1  0  0  0  0
 49 23  1  0  0  0  0
 50 23  1  0  0  0  0
 52 24  1  0  0  0  0
 54 29  1  0  0  0  0
 56 30  1  0  0  0  0
 57 30  1  0  0  0  0
 59 32  1  0  0  0  0
 62 34  1  0  0  0  0
 64 35  1  0  0  0  0
M  RAD  1  14   2
M  END
$$$$
