
     RDKit          3D

 66 69  0  0  0  0  0  0  0  0999 V2000
    2.2506    0.3441   -0.6463 C   0  0  0  0  0  0  0  0  0  0  0  0
    2.8774   -0.2360    0.6095 C   0  0  0  0  0  0  0  0  0  0  0  0
    2.0427   -0.0704    1.7626 O   0  0  0  0  0  0  0  0  0  0  0  0
    1.9317    1.1271    2.4077 C   0  0  0  0  0  0  0  0  0  0  0  0
    2.7499    2.2241    2.0882 C   0  0  0  0  0  0  0  0  0  0  0  0
    2.6299    3.4228    2.7817 C   0  0  0  0  0  0  0  0  0  0  0  0
    1.6882    3.5262    3.8072 C   0  0  0  0  0  0  0  0  0  0  0  0
    0.8811    2.4487    4.1460 C   0  0  0  0  0  0  0  0  0  0  0  0
    0.9707    1.2360    3.4452 C   0  0  0  0  0  0  0  0  0  0  0  0
    0.0265    0.1609    3.8718 C   0  0  0  0  0  0  0  0  0  0  0  0
   -0.8226    0.4056    4.8237 N   0  0  0  0  0  0  0  0  0  0  0  0
   -1.7268   -0.5707    5.2762 C   0  0  0  0  0  0  0  0  0  0  0  0
   -2.5281   -0.3350    6.1606 O   0  0  0  0  0  0  0  0  0  0  0  0
   -1.6328   -1.8772    4.6146 C   0  0  0  0  0  0  0  0  0  0  0  0
   -0.7019   -2.0469    3.5949 N   0  0  0  0  0  0  0  0  0  0  0  0
    0.1169   -1.0278    3.2139 N   0  0  0  0  0  0  0  0  0  0  0  0
    0.8266   -1.1871    2.5035 H   0  0  0  0  0  0  0  0  0  0  0  0
   -0.7961   -3.3194    3.1142 C   0  0  0  0  0  0  0  0  0  0  0  0
   -1.7374   -3.9716    3.7860 N   0  0  0  0  0  0  0  0  0  0  0  0
   -2.2675   -3.1128    4.7092 C   0  0  0  0  0  0  0  0  0  0  0  0
   -3.3630   -3.4989    5.6459 C   0  0  0  0  0  0  0  0  0  0  0  0
    0.0801   -3.8734    2.0377 C   0  0  0  0  0  0  0  0  0  0  0  0
    1.3597   -4.5531    2.5619 C   0  0  0  0  0  0  0  0  0  0  0  0
    2.3090   -3.6134    3.3043 C   0  0  0  0  0  0  0  0  0  0  0  0
    1.5335    5.0736    4.6897 S   0  0  0  0  0  0  0  0  0  0  0  0
    0.9064    4.7699    5.9803 O   0  0  0  0  0  0  0  0  0  0  0  0
    2.8273    5.7609    4.6198 O   0  0  0  0  0  0  0  0  0  0  0  0
    0.4792    5.9320    3.6921 N   0  0  0  0  0  0  0  0  0  0  0  0
   -0.9543    5.6517    3.8778 C   0  0  0  0  0  0  0  0  0  0  0  0
   -1.5675    6.5650    4.9502 C   0  0  0  0  0  0  0  0  0  0  0  0
   -1.3066    7.9811    4.7055 N   0  0  0  0  0  0  0  0  0  0  0  0
    0.1237    8.2209    4.5601 C   0  0  0  0  0  0  0  0  0  0  0  0
    0.7750    7.3562    3.4728 C   0  0  0  0  0  0  0  0  0  0  0  0
   -2.1417    8.6079    3.6875 C   0  0  0  0  0  0  0  0  0  0  0  0
   -3.5899    8.7843    4.1364 C   0  0  0  0  0  0  0  0  0  0  0  0
    2.8948    0.1353   -1.5145 H   0  0  0  0  0  0  0  0  0  0  0  0
    2.1182    1.4333   -0.5728 H   0  0  0  0  0  0  0  0  0  0  0  0
    1.2651   -0.1100   -0.8301 H   0  0  0  0  0  0  0  0  0  0  0  0
    3.8760    0.1834    0.8106 H   0  0  0  0  0  0  0  0  0  0  0  0
    2.9964   -1.3254    0.5201 H   0  0  0  0  0  0  0  0  0  0  0  0
    3.4930    2.1449    1.2972 H   0  0  0  0  0  0  0  0  0  0  0  0
    3.2702    4.2734    2.5446 H   0  0  0  0  0  0  0  0  0  0  0  0
    0.1635    2.5070    4.9651 H   0  0  0  0  0  0  0  0  0  0  0  0
   -3.0498   -4.3419    6.2830 H   0  0  0  0  0  0  0  0  0  0  0  0
   -4.2529   -3.8295    5.0862 H   0  0  0  0  0  0  0  0  0  0  0  0
   -3.6311   -2.6454    6.2815 H   0  0  0  0  0  0  0  0  0  0  0  0
    0.3463   -3.0749    1.3204 H   0  0  0  0  0  0  0  0  0  0  0  0
   -0.5218   -4.6067    1.4815 H   0  0  0  0  0  0  0  0  0  0  0  0
    1.8824   -5.0156    1.7072 H   0  0  0  0  0  0  0  0  0  0  0  0
    1.0589   -5.3777    3.2287 H   0  0  0  0  0  0  0  0  0  0  0  0
    2.6338   -2.7724    2.6676 H   0  0  0  0  0  0  0  0  0  0  0  0
    3.2159   -4.1433    3.6335 H   0  0  0  0  0  0  0  0  0  0  0  0
    1.8357   -3.1856    4.2024 H   0  0  0  0  0  0  0  0  0  0  0  0
   -1.0927    4.5932    4.1394 H   0  0  0  0  0  0  0  0  0  0  0  0
   -1.4389    5.8065    2.8990 H   0  0  0  0  0  0  0  0  0  0  0  0
   -2.6511    6.3893    5.0171 H   0  0  0  0  0  0  0  0  0  0  0  0
   -1.1295    6.2876    5.9218 H   0  0  0  0  0  0  0  0  0  0  0  0
    0.2956    9.2890    4.3500 H   0  0  0  0  0  0  0  0  0  0  0  0
    0.6176    7.9907    5.5208 H   0  0  0  0  0  0  0  0  0  0  0  0
    0.3804    7.6153    2.4754 H   0  0  0  0  0  0  0  0  0  0  0  0
    1.8637    7.4901    3.4521 H   0  0  0  0  0  0  0  0  0  0  0  0
   -2.1270    8.0722    2.7110 H   0  0  0  0  0  0  0  0  0  0  0  0
   -1.7113    9.6026    3.4856 H   0  0  0  0  0  0  0  0  0  0  0  0
   -4.1005    7.8193    4.2802 H   0  0  0  0  0  0  0  0  0  0  0  0
   -4.1613    9.3462    3.3808 H   0  0  0  0  0  0  0  0  0  0  0  0
   -3.6285    9.3320    5.0904 H   0  0  0  0  0  0  0  0  0  0  0  0
  1  2  1  0
  1 36  1  0
  1 37  1  0
  1 38  1  0
  2  3  1  0
  2 39  1  0
  2 40  1  0
  3  4  1  0
  4  5  2  0
  4  9  1  0
  5  6  1  0
  5 41  1  0
  6  7  2  0
  6 42  1  0
  7  8  1  0
 25  7  1  0
  8  9  2  0
  8 43  1  0
  9 10  1  0
 10 11  2  0
 10 16  1  0
 11 12  1  0
 12 13  2  0
 12 14  1  0
 14 15  1  0
 14 20  2  0
 15 16  1  0
 15 18  1  0
 16 17  1  0
 18 19  2  0
 18 22  1  0
 19 20  1  0
 20 21  1  0
 21 44  1  0
 21 45  1  0
 21 46  1  0
 22 23  1  0
 22 47  1  0
 22 48  1  0
 23 24  1  0
 23 49  1  0
 23 50  1  0
 24 51  1  0
 24 52  1  0
 24 53  1  0
 25 26  2  0
 25 27  2  0
 25 28  1  0
 28 29  1  0
 28 33  1  0
 29 30  1  0
 29 54  1  0
 29 55  1  0
 30 31  1  0
 30 56  1  0
 30 57  1  0
 31 32  1  0
 31 34  1  0
 32 33  1  0
 32 58  1  0
 32 59  1  0
 33 60  1  0
 33 61  1  0
 34 35  1  0
 34 62  1  0
 34 63  1  0
 35 64  1  0
 35 65  1  0
 35 66  1  0
M  END

