
     RDKit          3D

 66 69  0  0  0  0  0  0  0  0999 V2000
    1.0754   -0.0057   -0.5904 C   0  0  0  0  0  0  0  0  0  0  0  0
    2.5206    0.1558   -0.1531 C   0  0  0  0  0  0  0  0  0  0  0  0
    2.6644    0.1373    1.2730 O   0  0  0  0  0  0  0  0  0  0  0  0
    2.3401    1.2169    2.0424 C   0  0  0  0  0  0  0  0  0  0  0  0
    2.0120    2.4610    1.4839 C   0  0  0  0  0  0  0  0  0  0  0  0
    1.7091    3.5477    2.3012 C   0  0  0  0  0  0  0  0  0  0  0  0
    1.7305    3.3862    3.6853 C   0  0  0  0  0  0  0  0  0  0  0  0
    2.0529    2.1604    4.2556 C   0  0  0  0  0  0  0  0  0  0  0  0
    2.3683    1.0565    3.4542 C   0  0  0  0  0  0  0  0  0  0  0  0
    2.7287   -0.1982    4.1796 C   0  0  0  0  0  0  0  0  0  0  0  0
    2.8326   -0.1722    5.4738 N   0  0  0  0  0  0  0  0  0  0  0  0
    3.1910   -1.3145    6.2095 C   0  0  0  0  0  0  0  0  0  0  0  0
    3.2866   -1.2855    7.4222 O   0  0  0  0  0  0  0  0  0  0  0  0
    3.4500   -2.5224    5.4183 C   0  0  0  0  0  0  0  0  0  0  0  0
    3.3041   -2.4626    4.0358 N   0  0  0  0  0  0  0  0  0  0  0  0
    2.9147   -1.3123    3.4180 N   0  0  0  0  0  0  0  0  0  0  0  0
    2.9342   -1.2544    2.4027 H   0  0  0  0  0  0  0  0  0  0  0  0
    3.5889   -3.6862    3.5063 C   0  0  0  0  0  0  0  0  0  0  0  0
    3.9202   -4.5202    4.4847 N   0  0  0  0  0  0  0  0  0  0  0  0
    3.8408   -3.8354    5.6661 C   0  0  0  0  0  0  0  0  0  0  0  0
    4.1358   -4.4583    6.9896 C   0  0  0  0  0  0  0  0  0  0  0  0
    3.5922   -3.9812    2.0414 C   0  0  0  0  0  0  0  0  0  0  0  0
    4.9736   -3.8070    1.3811 C   0  0  0  0  0  0  0  0  0  0  0  0
    5.5301   -2.3862    1.4645 C   0  0  0  0  0  0  0  0  0  0  0  0
    1.2467    4.7560    4.7324 S   0  0  0  0  0  0  0  0  0  0  0  0
    1.2912    5.9561    3.8825 O   0  0  0  0  0  0  0  0  0  0  0  0
    0.0143    4.3983    5.4376 O   0  0  0  0  0  0  0  0  0  0  0  0
    2.4786    4.7591    5.8703 N   0  0  0  0  0  0  0  0  0  0  0  0
    3.7273    5.4220    5.4668 C   0  0  0  0  0  0  0  0  0  0  0  0
    3.7150    6.9056    5.8649 C   0  0  0  0  0  0  0  0  0  0  0  0
    3.4016    7.1137    7.2754 N   0  0  0  0  0  0  0  0  0  0  0  0
    2.1395    6.4682    7.6203 C   0  0  0  0  0  0  0  0  0  0  0  0
    2.1108    4.9739    7.2781 C   0  0  0  0  0  0  0  0  0  0  0  0
    4.4952    6.8564    8.2064 C   0  0  0  0  0  0  0  0  0  0  0  0
    5.6011    7.9054    8.1250 C   0  0  0  0  0  0  0  0  0  0  0  0
    1.0217   -0.0496   -1.6893 H   0  0  0  0  0  0  0  0  0  0  0  0
    0.4480    0.8310   -0.2504 H   0  0  0  0  0  0  0  0  0  0  0  0
    0.6521   -0.9379   -0.1866 H   0  0  0  0  0  0  0  0  0  0  0  0
    2.9812    1.0699   -0.5603 H   0  0  0  0  0  0  0  0  0  0  0  0
    3.1306   -0.6929   -0.4943 H   0  0  0  0  0  0  0  0  0  0  0  0
    1.9938    2.5937    0.4040 H   0  0  0  0  0  0  0  0  0  0  0  0
    1.4602    4.5211    1.8766 H   0  0  0  0  0  0  0  0  0  0  0  0
    2.0899    2.0216    5.3365 H   0  0  0  0  0  0  0  0  0  0  0  0
    3.4639   -5.3120    7.1745 H   0  0  0  0  0  0  0  0  0  0  0  0
    4.0078   -3.7179    7.7894 H   0  0  0  0  0  0  0  0  0  0  0  0
    5.1668   -4.8468    7.0144 H   0  0  0  0  0  0  0  0  0  0  0  0
    2.8463   -3.3471    1.5279 H   0  0  0  0  0  0  0  0  0  0  0  0
    3.2568   -5.0215    1.9191 H   0  0  0  0  0  0  0  0  0  0  0  0
    4.8978   -4.1205    0.3259 H   0  0  0  0  0  0  0  0  0  0  0  0
    5.6735   -4.5062    1.8671 H   0  0  0  0  0  0  0  0  0  0  0  0
    4.8550   -1.6523    0.9921 H   0  0  0  0  0  0  0  0  0  0  0  0
    6.5038   -2.3098    0.9567 H   0  0  0  0  0  0  0  0  0  0  0  0
    5.6801   -2.0720    2.5098 H   0  0  0  0  0  0  0  0  0  0  0  0
    3.8629    5.3085    4.3815 H   0  0  0  0  0  0  0  0  0  0  0  0
    4.5544    4.8812    5.9564 H   0  0  0  0  0  0  0  0  0  0  0  0
    4.6838    7.3681    5.6243 H   0  0  0  0  0  0  0  0  0  0  0  0
    2.9482    7.4106    5.2557 H   0  0  0  0  0  0  0  0  0  0  0  0
    1.9354    6.6167    8.6928 H   0  0  0  0  0  0  0  0  0  0  0  0
    1.3279    6.9644    7.0588 H   0  0  0  0  0  0  0  0  0  0  0  0
    2.8376    4.4120    7.8883 H   0  0  0  0  0  0  0  0  0  0  0  0
    1.1189    4.5383    7.4502 H   0  0  0  0  0  0  0  0  0  0  0  0
    4.9448    5.8444    8.0925 H   0  0  0  0  0  0  0  0  0  0  0  0
    4.0647    6.8759    9.2209 H   0  0  0  0  0  0  0  0  0  0  0  0
    6.1273    7.8807    7.1578 H   0  0  0  0  0  0  0  0  0  0  0  0
    6.3541    7.7316    8.9097 H   0  0  0  0  0  0  0  0  0  0  0  0
    5.1796    8.9140    8.2548 H   0  0  0  0  0  0  0  0  0  0  0  0
  1  2  1  0
  1 36  1  0
  1 37  1  0
  1 38  1  0
  2  3  1  0
  2 39  1  0
  2 40  1  0
  3  4  1  0
  4  5  2  0
  4  9  1  0
  5  6  1  0
  5 41  1  0
  6  7  2  0
  6 42  1  0
  7  8  1  0
 25  7  1  0
  8  9  2  0
  8 43  1  0
  9 10  1  0
 10 11  2  0
 10 16  1  0
 11 12  1  0
 12 13  2  0
 12 14  1  0
 14 15  1  0
 14 20  2  0
 15 16  1  0
 15 18  1  0
 16 17  1  0
 18 19  2  0
 18 22  1  0
 19 20  1  0
 20 21  1  0
 21 44  1  0
 21 45  1  0
 21 46  1  0
 22 23  1  0
 22 47  1  0
 22 48  1  0
 23 24  1  0
 23 49  1  0
 23 50  1  0
 24 51  1  0
 24 52  1  0
 24 53  1  0
 25 26  2  0
 25 27  2  0
 25 28  1  0
 28 29  1  0
 28 33  1  0
 29 30  1  0
 29 54  1  0
 29 55  1  0
 30 31  1  0
 30 56  1  0
 30 57  1  0
 31 32  1  0
 31 34  1  0
 32 33  1  0
 32 58  1  0
 32 59  1  0
 33 60  1  0
 33 61  1  0
 34 35  1  0
 34 62  1  0
 34 63  1  0
 35 64  1  0
 35 65  1  0
 35 66  1  0
M  END

