
     RDKit          3D

 66 69  0  0  0  0  0  0  0  0999 V2000
   -0.8358   -0.2753    0.3616 C   0  0  0  0  0  0  0  0  0  0  0  0
    0.6682   -0.0819    0.2804 C   0  0  0  0  0  0  0  0  0  0  0  0
    1.2785   -0.0017    1.5751 O   0  0  0  0  0  0  0  0  0  0  0  0
    1.4990   -1.1111    2.3378 C   0  0  0  0  0  0  0  0  0  0  0  0
    1.2922   -2.4100    1.8419 C   0  0  0  0  0  0  0  0  0  0  0  0
    1.5490   -3.5203    2.6374 C   0  0  0  0  0  0  0  0  0  0  0  0
    2.0097   -3.3324    3.9418 C   0  0  0  0  0  0  0  0  0  0  0  0
    2.2070   -2.0574    4.4535 C   0  0  0  0  0  0  0  0  0  0  0  0
    1.9676   -0.9225    3.6631 C   0  0  0  0  0  0  0  0  0  0  0  0
    2.2537    0.3955    4.3033 C   0  0  0  0  0  0  0  0  0  0  0  0
    2.8300    0.4199    5.4663 N   0  0  0  0  0  0  0  0  0  0  0  0
    3.1491    1.6300    6.1074 C   0  0  0  0  0  0  0  0  0  0  0  0
    3.6899    1.6488    7.1967 O   0  0  0  0  0  0  0  0  0  0  0  0
    2.8002    2.8489    5.3696 C   0  0  0  0  0  0  0  0  0  0  0  0
    2.1740    2.7290    4.1329 N   0  0  0  0  0  0  0  0  0  0  0  0
    1.8677    1.5065    3.6138 N   0  0  0  0  0  0  0  0  0  0  0  0
    1.5504    1.4369    2.6500 H   0  0  0  0  0  0  0  0  0  0  0  0
    1.9417    3.9750    3.6308 C   0  0  0  0  0  0  0  0  0  0  0  0
    2.4014    4.8833    4.4830 N   0  0  0  0  0  0  0  0  0  0  0  0
    2.9292    4.2223    5.5578 C   0  0  0  0  0  0  0  0  0  0  0  0
    3.5336    4.9236    6.7282 C   0  0  0  0  0  0  0  0  0  0  0  0
    1.3355    4.2347    2.2900 C   0  0  0  0  0  0  0  0  0  0  0  0
    2.3778    4.4181    1.1701 C   0  0  0  0  0  0  0  0  0  0  0  0
    3.2685    3.1975    0.9420 C   0  0  0  0  0  0  0  0  0  0  0  0
    2.3300   -4.7665    4.9596 S   0  0  0  0  0  0  0  0  0  0  0  0
    2.3474   -4.3251    6.3568 O   0  0  0  0  0  0  0  0  0  0  0  0
    1.4429   -5.8460    4.5159 O   0  0  0  0  0  0  0  0  0  0  0  0
    3.8878   -5.1907    4.4442 N   0  0  0  0  0  0  0  0  0  0  0  0
    4.1836   -6.6310    4.4657 C   0  0  0  0  0  0  0  0  0  0  0  0
    5.5007   -6.8670    3.7179 C   0  0  0  0  0  0  0  0  0  0  0  0
    6.6120   -6.0788    4.2338 N   0  0  0  0  0  0  0  0  0  0  0  0
    6.2585   -4.6684    4.2332 C   0  0  0  0  0  0  0  0  0  0  0  0
    4.9637   -4.3567    4.9948 C   0  0  0  0  0  0  0  0  0  0  0  0
    7.2063   -6.5650    5.4762 C   0  0  0  0  0  0  0  0  0  0  0  0
    7.9945   -7.8579    5.2873 C   0  0  0  0  0  0  0  0  0  0  0  0
   -1.2674   -0.2666   -0.6513 H   0  0  0  0  0  0  0  0  0  0  0  0
   -1.2986    0.5381    0.9407 H   0  0  0  0  0  0  0  0  0  0  0  0
   -1.1019   -1.2298    0.8386 H   0  0  0  0  0  0  0  0  0  0  0  0
    0.9145    0.8802   -0.1912 H   0  0  0  0  0  0  0  0  0  0  0  0
    1.1600   -0.8686   -0.3133 H   0  0  0  0  0  0  0  0  0  0  0  0
    0.9254   -2.5610    0.8286 H   0  0  0  0  0  0  0  0  0  0  0  0
    1.3813   -4.5303    2.2610 H   0  0  0  0  0  0  0  0  0  0  0  0
    2.5482   -1.9019    5.4776 H   0  0  0  0  0  0  0  0  0  0  0  0
    4.3743    5.5597    6.4074 H   0  0  0  0  0  0  0  0  0  0  0  0
    3.8926    4.1898    7.4610 H   0  0  0  0  0  0  0  0  0  0  0  0
    2.7934    5.5837    7.2088 H   0  0  0  0  0  0  0  0  0  0  0  0
    0.7287    5.1478    2.3781 H   0  0  0  0  0  0  0  0  0  0  0  0
    0.6389    3.4176    2.0271 H   0  0  0  0  0  0  0  0  0  0  0  0
    3.0040    5.2879    1.4276 H   0  0  0  0  0  0  0  0  0  0  0  0
    1.8471    4.6772    0.2380 H   0  0  0  0  0  0  0  0  0  0  0  0
    3.8621    2.9578    1.8386 H   0  0  0  0  0  0  0  0  0  0  0  0
    3.9763    3.3697    0.1168 H   0  0  0  0  0  0  0  0  0  0  0  0
    2.6786    2.3006    0.6867 H   0  0  0  0  0  0  0  0  0  0  0  0
    3.3584   -7.1645    3.9775 H   0  0  0  0  0  0  0  0  0  0  0  0
    4.2558   -7.0047    5.5058 H   0  0  0  0  0  0  0  0  0  0  0  0
    5.7513   -7.9372    3.7512 H   0  0  0  0  0  0  0  0  0  0  0  0
    5.3489   -6.5996    2.6577 H   0  0  0  0  0  0  0  0  0  0  0  0
    7.0854   -4.0815    4.6621 H   0  0  0  0  0  0  0  0  0  0  0  0
    6.1261   -4.3431    3.1861 H   0  0  0  0  0  0  0  0  0  0  0  0
    5.0834   -4.5336    6.0795 H   0  0  0  0  0  0  0  0  0  0  0  0
    4.7038   -3.2957    4.8631 H   0  0  0  0  0  0  0  0  0  0  0  0
    6.4635   -6.7049    6.2917 H   0  0  0  0  0  0  0  0  0  0  0  0
    7.8933   -5.7796    5.8309 H   0  0  0  0  0  0  0  0  0  0  0  0
    7.3456   -8.7039    5.0112 H   0  0  0  0  0  0  0  0  0  0  0  0
    8.5078   -8.1339    6.2216 H   0  0  0  0  0  0  0  0  0  0  0  0
    8.7466   -7.7344    4.4929 H   0  0  0  0  0  0  0  0  0  0  0  0
  1  2  1  0
  1 36  1  0
  1 37  1  0
  1 38  1  0
  2  3  1  0
  2 39  1  0
  2 40  1  0
  3  4  1  0
  4  5  2  0
  4  9  1  0
  5  6  1  0
  5 41  1  0
  6  7  2  0
  6 42  1  0
  7  8  1  0
 25  7  1  0
  8  9  2  0
  8 43  1  0
  9 10  1  0
 10 11  2  0
 10 16  1  0
 11 12  1  0
 12 13  2  0
 12 14  1  0
 14 15  1  0
 14 20  2  0
 15 16  1  0
 15 18  1  0
 16 17  1  0
 18 19  2  0
 18 22  1  0
 19 20  1  0
 20 21  1  0
 21 44  1  0
 21 45  1  0
 21 46  1  0
 22 23  1  0
 22 47  1  0
 22 48  1  0
 23 24  1  0
 23 49  1  0
 23 50  1  0
 24 51  1  0
 24 52  1  0
 24 53  1  0
 25 26  2  0
 25 27  2  0
 25 28  1  0
 28 29  1  0
 28 33  1  0
 29 30  1  0
 29 54  1  0
 29 55  1  0
 30 31  1  0
 30 56  1  0
 30 57  1  0
 31 32  1  0
 31 34  1  0
 32 33  1  0
 32 58  1  0
 32 59  1  0
 33 60  1  0
 33 61  1  0
 34 35  1  0
 34 62  1  0
 34 63  1  0
 35 64  1  0
 35 65  1  0
 35 66  1  0
M  END

