rmsd31.gzmat
 OpenBabel08211713423D

 66 69  0  0  1  0  0  0  0  0999 V2000
    0.0000    0.0000    0.0000 C   0  0  0  0  0  0  0  0  0  0  0  0
    1.5162    0.0000    0.0000 C   0  0  0  0  0  0  0  0  0  0  0  0
    2.0048    0.0000    1.3452 O   0  0  0  0  0  0  0  0  0  0  0  0
    1.7706   -1.0761    2.1144 C   0  0  0  0  0  0  0  0  0  0  0  0
    1.6477   -2.3935    1.6543 C   0  0  0  0  0  0  0  0  0  0  0  0
    1.5200   -3.4206    2.5801 C   0  0  0  0  0  0  0  0  0  0  0  0
    1.4988   -3.1437    3.9499 C   0  0  0  0  0  0  0  0  0  0  0  0
    1.6009   -1.8331    4.4088 C   0  0  0  0  0  0  0  0  0  0  0  0
    1.7367   -0.7918    3.4967 C   0  0  0  0  0  0  0  0  0  0  0  0
    1.7583    0.6121    3.9350 C   0  0  0  0  0  0  0  0  0  0  0  0
    0.7587    1.4044    3.7440 N   0  0  0  0  0  0  0  0  0  0  0  0
    0.7854    2.7766    4.1517 C   0  0  0  0  0  0  0  0  0  0  0  0
   -0.1622    3.4845    3.9359 O   0  0  0  0  0  0  0  0  0  0  0  0
    2.0141    3.1928    4.8120 C   0  0  1  0  0  0  0  0  0  0  0  0
    3.0501    2.2623    5.0477 N   0  0  0  0  0  0  0  0  0  0  0  0
    3.0310    0.9988    4.4745 N   0  0  0  0  0  0  0  0  0  0  0  0
    3.5437    0.3090    5.0393 H   0  0  0  0  0  0  0  0  0  0  0  0
    4.1288    2.9343    5.6174 C   0  0  0  0  0  0  0  0  0  0  0  0
    3.7666    4.2221    5.8185 N   0  0  0  0  0  0  0  0  0  0  0  0
    2.4875    4.4085    5.3270 C   0  0  0  0  0  0  0  0  0  0  0  0
    1.7958    5.7047    5.3813 C   0  0  0  0  0  0  0  0  0  0  0  0
    5.4168    2.3132    5.9950 C   0  0  0  0  0  0  0  0  0  0  0  0
    6.2552    1.9868    4.7485 C   0  0  0  0  0  0  0  0  0  0  0  0
    7.5356    1.2543    5.1398 C   0  0  0  0  0  0  0  0  0  0  0  0
    1.3375   -4.4448    5.1149 S   0  0  0  0  0  0  0  0  0  0  0  0
    2.0128   -5.6212    4.6124 O   0  0  0  0  0  0  0  0  0  0  0  0
    1.6467   -3.8884    6.4142 O   0  0  0  0  0  0  0  0  0  0  0  0
   -0.3805   -4.7911    5.0394 N   0  0  0  0  0  0  0  0  0  0  0  0
   -0.7615   -6.2122    4.9939 C   0  0  0  0  0  0  0  0  0  0  0  0
   -0.8136   -6.8734    6.3952 C   0  0  0  0  0  0  0  0  0  0  0  0
   -1.5837   -6.1357    7.4095 N   0  0  0  0  0  0  0  0  0  0  0  0
   -1.2766   -4.6970    7.3918 C   0  0  0  0  0  0  0  0  0  0  0  0
   -1.2363   -4.0518    5.9836 C   0  0  0  0  0  0  0  0  0  0  0  0
   -3.0163   -6.4685    7.4667 C   0  0  0  0  0  0  0  0  0  0  0  0
   -3.8864   -6.1433    6.2453 C   0  0  0  0  0  0  0  0  0  0  0  0
   -0.4077    0.2641   -0.9823 H   0  0  0  0  0  0  0  0  0  0  0  0
   -0.3892    0.7368    0.7266 H   0  0  0  0  0  0  0  0  0  0  0  0
   -0.4170   -0.9715    0.2893 H   0  0  0  0  0  0  0  0  0  0  0  0
    1.9421    0.9624   -0.3562 H   0  0  0  0  0  0  0  0  0  0  0  0
    1.9587   -0.8330   -0.5683 H   0  0  0  0  0  0  0  0  0  0  0  0
    1.6607   -2.6103    0.5913 H   0  0  0  0  0  0  0  0  0  0  0  0
    1.4427   -4.4545    2.2196 H   0  0  0  0  0  0  0  0  0  0  0  0
    1.5662   -1.6071    5.4850 H   0  0  0  0  0  0  0  0  0  0  0  0
    1.5772    6.0014    6.4216 H   0  0  0  0  0  0  0  0  0  0  0  0
    0.8371    5.6796    4.8331 H   0  0  0  0  0  0  0  0  0  0  0  0
    2.4126    6.5105    4.9477 H   0  0  0  0  0  0  0  0  0  0  0  0
    5.2599    1.4049    6.6129 H   0  0  0  0  0  0  0  0  0  0  0  0
    5.9836    3.0175    6.6521 H   0  0  0  0  0  0  0  0  0  0  0  0
    6.4981    2.9246    4.2084 H   0  0  0  0  0  0  0  0  0  0  0  0
    5.6690    1.3795    4.0316 H   0  0  0  0  0  0  0  0  0  0  0  0
    8.1654    1.8645    5.7983 H   0  0  0  0  0  0  0  0  0  0  0  0
    8.1346    1.0078    4.2545 H   0  0  0  0  0  0  0  0  0  0  0  0
    7.3237    0.3141    5.6611 H   0  0  0  0  0  0  0  0  0  0  0  0
   -0.0619   -6.7802    4.3374 H   0  0  0  0  0  0  0  0  0  0  0  0
   -1.7605   -6.2705    4.5043 H   0  0  0  0  0  0  0  0  0  0  0  0
   -1.2059   -7.9068    6.3050 H   0  0  0  0  0  0  0  0  0  0  0  0
    0.2230   -6.9720    6.8013 H   0  0  0  0  0  0  0  0  0  0  0  0
   -1.9963   -4.1519    8.0350 H   0  0  0  0  0  0  0  0  0  0  0  0
   -0.2741   -4.5819    7.8802 H   0  0  0  0  0  0  0  0  0  0  0  0
   -2.2603   -4.0177    5.5442 H   0  0  0  0  0  0  0  0  0  0  0  0
   -0.9029   -2.9939    6.0658 H   0  0  0  0  0  0  0  0  0  0  0  0
   -3.4341   -5.9534    8.3636 H   0  0  0  0  0  0  0  0  0  0  0  0
   -3.0844   -7.5603    7.6860 H   0  0  0  0  0  0  0  0  0  0  0  0
   -3.8735   -5.0740    6.0119 H   0  0  0  0  0  0  0  0  0  0  0  0
   -4.9298   -6.4251    6.4279 H   0  0  0  0  0  0  0  0  0  0  0  0
   -3.5541   -6.6861    5.3550 H   0  0  0  0  0  0  0  0  0  0  0  0
  1 38  1  0  0  0  0
  1 37  1  0  0  0  0
  2  1  1  0  0  0  0
  2  3  1  0  0  0  0
  3  4  1  0  0  0  0
  4  9  1  0  0  0  0
  5  4  2  0  0  0  0
  5  6  1  0  0  0  0
  6  7  2  0  0  0  0
  7  8  1  0  0  0  0
  7 25  1  0  0  0  0
  8 43  1  0  0  0  0
  9 10  1  0  0  0  0
  9  8  2  0  0  0  0
 10 16  1  0  0  0  0
 11 10  2  0  0  0  0
 11 12  2  0  0  0  0
 13 12  2  0  0  0  0
 14 12  1  6  0  0  0
 14 15  1  0  0  0  0
 14 20  1  0  0  0  0
 15 18  1  0  0  0  0
 16 17  1  0  0  0  0
 16 15  1  0  0  0  0
 18 19  2  0  0  0  0
 18 22  1  0  0  0  0
 20 21  1  0  0  0  0
 20 19  2  0  0  0  0
 21 44  1  0  0  0  0
 22 47  1  0  0  0  0
 22 48  1  0  0  0  0
 23 24  1  0  0  0  0
 23 22  1  0  0  0  0
 24 53  1  0  0  0  0
 24 51  1  0  0  0  0
 25 27  2  0  0  0  0
 26 25  2  0  0  0  0
 28 25  1  0  0  0  0
 28 33  1  0  0  0  0
 29 28  1  0  0  0  0
 29 30  1  0  0  0  0
 30 57  1  0  0  0  0
 30 31  1  0  0  0  0
 31 34  1  0  0  0  0
 32 31  1  0  0  0  0
 32 59  1  0  0  0  0
 32 58  1  0  0  0  0
 33 61  1  0  0  0  0
 33 32  1  0  0  0  0
 34 63  1  0  0  0  0
 34 62  1  0  0  0  0
 35 65  1  0  0  0  0
 35 34  1  0  0  0  0
 36  1  1  0  0  0  0
 39  2  1  0  0  0  0
 40  2  1  0  0  0  0
 41  5  1  0  0  0  0
 42  6  1  0  0  0  0
 45 21  1  0  0  0  0
 46 21  1  0  0  0  0
 49 23  1  0  0  0  0
 50 23  1  0  0  0  0
 52 24  1  0  0  0  0
 54 29  1  0  0  0  0
 55 29  1  0  0  0  0
 56 30  1  0  0  0  0
 60 33  1  0  0  0  0
 64 35  1  0  0  0  0
 66 35  1  0  0  0  0
M  RAD  1  14   2
M  END
$$$$
