
     RDKit          3D

 66 69  0  0  0  0  0  0  0  0999 V2000
   -0.6996    0.4677    0.3124 C   0  0  0  0  0  0  0  0  0  0  0  0
    0.6648    0.0653   -0.2186 C   0  0  0  0  0  0  0  0  0  0  0  0
    1.6226   -0.0724    0.8387 O   0  0  0  0  0  0  0  0  0  0  0  0
    1.4991   -1.0578    1.7421 C   0  0  0  0  0  0  0  0  0  0  0  0
    1.2687   -2.3981    1.3791 C   0  0  0  0  0  0  0  0  0  0  0  0
    1.2750   -3.4023    2.3400 C   0  0  0  0  0  0  0  0  0  0  0  0
    1.5104   -3.0721    3.6783 C   0  0  0  0  0  0  0  0  0  0  0  0
    1.7270   -1.7523    4.0624 C   0  0  0  0  0  0  0  0  0  0  0  0
    1.6958   -0.7312    3.1045 C   0  0  0  0  0  0  0  0  0  0  0  0
    1.8135    0.6885    3.5261 C   0  0  0  0  0  0  0  0  0  0  0  0
    0.9869    1.5816    3.0981 N   0  0  0  0  0  0  0  0  0  0  0  0
    1.1196    2.9401    3.4556 C   0  0  0  0  0  0  0  0  0  0  0  0
    0.3734    3.7816    2.9917 O   0  0  0  0  0  0  0  0  0  0  0  0
    2.1939    3.2450    4.4010 C   0  0  0  0  0  0  0  0  0  0  0  0
    3.0057    2.2097    4.8611 N   0  0  0  0  0  0  0  0  0  0  0  0
    2.8166    0.9176    4.4431 N   0  0  0  0  0  0  0  0  0  0  0  0
    3.6306    0.3122    4.4757 H   0  0  0  0  0  0  0  0  0  0  0  0
    3.8886    2.7113    5.7707 C   0  0  0  0  0  0  0  0  0  0  0  0
    3.6945    4.0183    5.8958 N   0  0  0  0  0  0  0  0  0  0  0  0
    2.6595    4.3707    5.0747 C   0  0  0  0  0  0  0  0  0  0  0  0
    2.1440    5.7670    4.9708 C   0  0  0  0  0  0  0  0  0  0  0  0
    4.9324    1.8834    6.4417 C   0  0  0  0  0  0  0  0  0  0  0  0
    6.1344    1.5469    5.5396 C   0  0  0  0  0  0  0  0  0  0  0  0
    7.1980    0.7219    6.2592 C   0  0  0  0  0  0  0  0  0  0  0  0
    1.5648   -4.3621    4.9104 S   0  0  0  0  0  0  0  0  0  0  0  0
    2.3414   -5.4854    4.3790 O   0  0  0  0  0  0  0  0  0  0  0  0
    1.9565   -3.7187    6.1742 O   0  0  0  0  0  0  0  0  0  0  0  0
   -0.0416   -4.8668    4.9431 N   0  0  0  0  0  0  0  0  0  0  0  0
   -0.2883   -6.3033    5.1362 C   0  0  0  0  0  0  0  0  0  0  0  0
   -0.3608   -6.6507    6.6306 C   0  0  0  0  0  0  0  0  0  0  0  0
   -1.2753   -5.8079    7.3775 N   0  0  0  0  0  0  0  0  0  0  0  0
   -1.0451   -4.3905    7.1654 C   0  0  0  0  0  0  0  0  0  0  0  0
   -0.9739   -4.0000    5.6791 C   0  0  0  0  0  0  0  0  0  0  0  0
   -2.6324   -6.2700    7.5902 C   0  0  0  0  0  0  0  0  0  0  0  0
   -3.6012   -6.2728    6.3963 C   0  0  0  0  0  0  0  0  0  0  0  0
   -1.3842    0.6699   -0.5264 H   0  0  0  0  0  0  0  0  0  0  0  0
   -0.6103    1.3631    0.9436 H   0  0  0  0  0  0  0  0  0  0  0  0
   -1.1378   -0.3361    0.9250 H   0  0  0  0  0  0  0  0  0  0  0  0
    1.0871    0.8494   -0.8624 H   0  0  0  0  0  0  0  0  0  0  0  0
    0.6167   -0.8621   -0.8170 H   0  0  0  0  0  0  0  0  0  0  0  0
    1.1183   -2.6511    0.3291 H   0  0  0  0  0  0  0  0  0  0  0  0
    1.1161   -4.4445    2.0584 H   0  0  0  0  0  0  0  0  0  0  0  0
    1.8844   -1.5263    5.1180 H   0  0  0  0  0  0  0  0  0  0  0  0
    1.8122    6.1313    5.9564 H   0  0  0  0  0  0  0  0  0  0  0  0
    1.3034    5.8075    4.2665 H   0  0  0  0  0  0  0  0  0  0  0  0
    2.9390    6.4477    4.6255 H   0  0  0  0  0  0  0  0  0  0  0  0
    4.4823    0.9497    6.8267 H   0  0  0  0  0  0  0  0  0  0  0  0
    5.2760    2.4542    7.3165 H   0  0  0  0  0  0  0  0  0  0  0  0
    6.5655    2.4910    5.1679 H   0  0  0  0  0  0  0  0  0  0  0  0
    5.7908    1.0040    4.6387 H   0  0  0  0  0  0  0  0  0  0  0  0
    7.5871    1.2615    7.1379 H   0  0  0  0  0  0  0  0  0  0  0  0
    8.0493    0.4986    5.5981 H   0  0  0  0  0  0  0  0  0  0  0  0
    6.7884   -0.2377    6.6158 H   0  0  0  0  0  0  0  0  0  0  0  0
    0.5110   -6.8631    4.6340 H   0  0  0  0  0  0  0  0  0  0  0  0
   -1.2399   -6.5320    4.6296 H   0  0  0  0  0  0  0  0  0  0  0  0
   -0.6480   -7.7064    6.7600 H   0  0  0  0  0  0  0  0  0  0  0  0
    0.6588   -6.5354    7.0467 H   0  0  0  0  0  0  0  0  0  0  0  0
   -1.8374   -3.8126    7.6670 H   0  0  0  0  0  0  0  0  0  0  0  0
   -0.0814   -4.1070    7.6236 H   0  0  0  0  0  0  0  0  0  0  0  0
   -1.9573   -4.1032    5.1927 H   0  0  0  0  0  0  0  0  0  0  0  0
   -0.6613   -2.9516    5.5619 H   0  0  0  0  0  0  0  0  0  0  0  0
   -3.0695   -5.6527    8.3951 H   0  0  0  0  0  0  0  0  0  0  0  0
   -2.5728   -7.2949    7.9974 H   0  0  0  0  0  0  0  0  0  0  0  0
   -3.7418   -5.2617    5.9825 H   0  0  0  0  0  0  0  0  0  0  0  0
   -4.5915   -6.6424    6.7102 H   0  0  0  0  0  0  0  0  0  0  0  0
   -3.2467   -6.9258    5.5832 H   0  0  0  0  0  0  0  0  0  0  0  0
  1  2  1  0
  1 36  1  0
  1 37  1  0
  1 38  1  0
  2  3  1  0
  2 39  1  0
  2 40  1  0
  3  4  1  0
  4  5  2  0
  4  9  1  0
  5  6  1  0
  5 41  1  0
  6  7  2  0
  6 42  1  0
  7  8  1  0
 25  7  1  0
  8  9  2  0
  8 43  1  0
  9 10  1  0
 10 11  2  0
 10 16  1  0
 11 12  1  0
 12 13  2  0
 12 14  1  0
 14 15  1  0
 14 20  2  0
 15 16  1  0
 15 18  1  0
 16 17  1  0
 18 19  2  0
 18 22  1  0
 19 20  1  0
 20 21  1  0
 21 44  1  0
 21 45  1  0
 21 46  1  0
 22 23  1  0
 22 47  1  0
 22 48  1  0
 23 24  1  0
 23 49  1  0
 23 50  1  0
 24 51  1  0
 24 52  1  0
 24 53  1  0
 25 26  2  0
 25 27  2  0
 25 28  1  0
 28 29  1  0
 28 33  1  0
 29 30  1  0
 29 54  1  0
 29 55  1  0
 30 31  1  0
 30 56  1  0
 30 57  1  0
 31 32  1  0
 31 34  1  0
 32 33  1  0
 32 58  1  0
 32 59  1  0
 33 60  1  0
 33 61  1  0
 34 35  1  0
 34 62  1  0
 34 63  1  0
 35 64  1  0
 35 65  1  0
 35 66  1  0
M  END

