rmsd121.gzmat
 OpenBabel08211713423D

 66 69  0  0  1  0  0  0  0  0999 V2000
    0.0000    0.0000    0.0000 C   0  0  0  0  0  0  0  0  0  0  0  0
    1.5165    0.0000    0.0000 C   0  0  0  0  0  0  0  0  0  0  0  0
    2.0061    0.0000    1.3423 O   0  0  0  0  0  0  0  0  0  0  0  0
    1.9650   -1.1391    2.0695 C   0  0  0  0  0  0  0  0  0  0  0  0
    1.6243   -2.3962    1.5650 C   0  0  0  0  0  0  0  0  0  0  0  0
    1.6678   -3.4980    2.4130 C   0  0  0  0  0  0  0  0  0  0  0  0
    2.0442   -3.3467    3.7478 C   0  0  0  0  0  0  0  0  0  0  0  0
    2.3682   -2.0909    4.2530 C   0  0  0  0  0  0  0  0  0  0  0  0
    2.3339   -0.9700    3.4184 C   0  0  0  0  0  0  0  0  0  0  0  0
    2.7454    0.3274    3.9769 C   0  0  0  0  0  0  0  0  0  0  0  0
    3.7561    0.4049    4.7804 N   0  0  0  0  0  0  0  0  0  0  0  0
    4.1938    1.6456    5.3424 C   0  0  0  0  0  0  0  0  0  0  0  0
    5.1510    1.6688    6.0702 O   0  0  0  0  0  0  0  0  0  0  0  0
    3.4020    2.8031    4.9549 C   0  0  2  0  0  0  0  0  0  0  0  0
    2.3224    2.6587    4.0581 N   0  0  0  0  0  0  0  0  0  0  0  0
    1.8583    1.4117    3.6601 N   0  0  0  0  0  0  0  0  0  0  0  0
    1.4938    1.4336    2.6935 H   0  0  0  0  0  0  0  0  0  0  0  0
    1.7078    3.8942    3.8956 C   0  0  0  0  0  0  0  0  0  0  0  0
    2.4043    4.8110    4.6096 N   0  0  0  0  0  0  0  0  0  0  0  0
    3.4364    4.1704    5.2688 C   0  0  0  0  0  0  0  0  0  0  0  0
    4.3779    4.8792    6.1479 C   0  0  0  0  0  0  0  0  0  0  0  0
    0.5259    4.1593    3.0454 C   0  0  0  0  0  0  0  0  0  0  0  0
    0.9479    4.6565    1.6531 C   0  0  0  0  0  0  0  0  0  0  0  0
    1.6024    3.5576    0.8196 C   0  0  0  0  0  0  0  0  0  0  0  0
    2.1585   -4.7618    4.7791 S   0  0  0  0  0  0  0  0  0  0  0  0
    1.9311   -4.3590    6.1455 O   0  0  0  0  0  0  0  0  0  0  0  0
    1.4113   -5.8368    4.1632 O   0  0  0  0  0  0  0  0  0  0  0  0
    3.8507   -5.1682    4.6152 N   0  0  0  0  0  0  0  0  0  0  0  0
    4.1679   -6.5699    4.2903 C   0  0  0  0  0  0  0  0  0  0  0  0
    5.6409   -6.6495    3.8038 C   0  0  0  0  0  0  0  0  0  0  0  0
    6.6200   -6.0865    4.7529 N   0  0  0  0  0  0  0  0  0  0  0  0
    6.2097   -4.7162    5.1184 C   0  0  0  0  0  0  0  0  0  0  0  0
    4.7539   -4.6205    5.6458 C   0  0  0  0  0  0  0  0  0  0  0  0
    6.8410   -6.9448    5.9422 C   0  0  0  0  0  0  0  0  0  0  0  0
    7.7117   -8.1467    5.5533 C   0  0  0  0  0  0  0  0  0  0  0  0
   -0.3993    0.0985   -1.0178 H   0  0  0  0  0  0  0  0  0  0  0  0
   -0.4084    0.8296    0.5935 H   0  0  0  0  0  0  0  0  0  0  0  0
   -0.4135   -0.9243    0.4261 H   0  0  0  0  0  0  0  0  0  0  0  0
    1.9483    0.9539   -0.3715 H   0  0  0  0  0  0  0  0  0  0  0  0
    1.9570   -0.8370   -0.5682 H   0  0  0  0  0  0  0  0  0  0  0  0
    1.3397   -2.5259    0.5264 H   0  0  0  0  0  0  0  0  0  0  0  0
    1.3993   -4.4870    2.0149 H   0  0  0  0  0  0  0  0  0  0  0  0
    2.6581   -1.9509    5.3099 H   0  0  0  0  0  0  0  0  0  0  0  0
    4.7341    5.8179    5.6911 H   0  0  0  0  0  0  0  0  0  0  0  0
    5.2590    4.2579    6.3885 H   0  0  0  0  0  0  0  0  0  0  0  0
    3.8991    5.1555    7.1036 H   0  0  0  0  0  0  0  0  0  0  0  0
   -0.1014    4.9409    3.5409 H   0  0  0  0  0  0  0  0  0  0  0  0
   -0.1288    3.2679    2.9652 H   0  0  0  0  0  0  0  0  0  0  0  0
    1.6456    5.5135    1.7647 H   0  0  0  0  0  0  0  0  0  0  0  0
    0.0620    5.0570    1.1234 H   0  0  0  0  0  0  0  0  0  0  0  0
    2.5398    3.2134    1.2734 H   0  0  0  0  0  0  0  0  0  0  0  0
    1.8547    3.9251   -0.1834 H   0  0  0  0  0  0  0  0  0  0  0  0
    0.9390    2.6961    0.6952 H   0  0  0  0  0  0  0  0  0  0  0  0
    3.4943   -6.9280    3.4774 H   0  0  0  0  0  0  0  0  0  0  0  0
    4.0160   -7.2523    5.1547 H   0  0  0  0  0  0  0  0  0  0  0  0
    5.9065   -7.7012    3.5772 H   0  0  0  0  0  0  0  0  0  0  0  0
    5.7468   -6.0794    2.8521 H   0  0  0  0  0  0  0  0  0  0  0  0
    6.9157   -4.3011    5.8655 H   0  0  0  0  0  0  0  0  0  0  0  0
    6.3140   -4.0879    4.2026 H   0  0  0  0  0  0  0  0  0  0  0  0
    4.6604   -5.1524    6.6175 H   0  0  0  0  0  0  0  0  0  0  0  0
    4.5076   -3.5510    5.8397 H   0  0  0  0  0  0  0  0  0  0  0  0
    5.8958   -7.2913    6.4100 H   0  0  0  0  0  0  0  0  0  0  0  0
    7.3760   -6.3424    6.7104 H   0  0  0  0  0  0  0  0  0  0  0  0
    7.1503   -8.8958    4.9874 H   0  0  0  0  0  0  0  0  0  0  0  0
    8.1230   -8.6350    6.4424 H   0  0  0  0  0  0  0  0  0  0  0  0
    8.5538   -7.8256    4.9245 H   0  0  0  0  0  0  0  0  0  0  0  0
  1 38  1  0  0  0  0
  1 37  1  0  0  0  0
  2  1  1  0  0  0  0
  2  3  1  0  0  0  0
  3  4  1  0  0  0  0
  4  9  1  0  0  0  0
  5  4  2  0  0  0  0
  5  6  1  0  0  0  0
  6  7  2  0  0  0  0
  7  8  1  0  0  0  0
  7 25  1  0  0  0  0
  8 43  1  0  0  0  0
  9 10  1  0  0  0  0
  9  8  2  0  0  0  0
 10 11  2  0  0  0  0
 11 12  2  0  0  0  0
 12 13  2  0  0  0  0
 14 20  1  6  0  0  0
 14 12  1  0  0  0  0
 15 14  1  0  0  0  0
 16 10  1  0  0  0  0
 16 15  1  0  0  0  0
 17 16  1  0  0  0  0
 18 15  1  0  0  0  0
 18 19  2  0  0  0  0
 19 20  2  0  0  0  0
 20 21  1  0  0  0  0
 21 45  1  0  0  0  0
 21 46  1  0  0  0  0
 22 47  1  0  0  0  0
 22 18  1  0  0  0  0
 23 49  1  0  0  0  0
 23 22  1  0  0  0  0
 24 51  1  0  0  0  0
 24 23  1  0  0  0  0
 25 26  2  0  0  0  0
 27 25  2  0  0  0  0
 28 25  1  0  0  0  0
 28 33  1  0  0  0  0
 29 28  1  0  0  0  0
 29 55  1  0  0  0  0
 30 29  1  0  0  0  0
 30 31  1  0  0  0  0
 31 32  1  0  0  0  0
 31 34  1  0  0  0  0
 32 33  1  0  0  0  0
 32 58  1  0  0  0  0
 33 61  1  0  0  0  0
 33 60  1  0  0  0  0
 34 62  1  0  0  0  0
 34 63  1  0  0  0  0
 35 34  1  0  0  0  0
 35 65  1  0  0  0  0
 36  1  1  0  0  0  0
 39  2  1  0  0  0  0
 40  2  1  0  0  0  0
 41  5  1  0  0  0  0
 42  6  1  0  0  0  0
 44 21  1  0  0  0  0
 48 22  1  0  0  0  0
 50 23  1  0  0  0  0
 52 24  1  0  0  0  0
 53 24  1  0  0  0  0
 54 29  1  0  0  0  0
 56 30  1  0  0  0  0
 57 30  1  0  0  0  0
 59 32  1  0  0  0  0
 64 35  1  0  0  0  0
 66 35  1  0  0  0  0
M  RAD  1  14   2
M  END
$$$$
