66

C         -0.83580       -0.27530        0.36160
C          0.66820       -0.08190        0.28040
O          1.27850       -0.00170        1.57510
C          1.49900       -1.11110        2.33780
C          1.29220       -2.41000        1.84190
C          1.54900       -3.52030        2.63740
C          2.00970       -3.33240        3.94180
C          2.20700       -2.05740        4.45350
C          1.96760       -0.92250        3.66310
C          2.25370        0.39550        4.30330
N          2.83000        0.41990        5.46630
C          3.14910        1.63000        6.10740
O          3.68990        1.64880        7.19670
C          2.80020        2.84890        5.36960
N          2.17400        2.72900        4.13290
N          1.86770        1.50650        3.61380
H          1.55040        1.43690        2.65000
C          1.94170        3.97500        3.63080
N          2.40140        4.88330        4.48300
C          2.92920        4.22230        5.55780
C          3.53360        4.92360        6.72820
C          1.33550        4.23470        2.29000
C          2.37780        4.41810        1.17010
C          3.26850        3.19750        0.94200
S          2.33000       -4.76650        4.95960
O          2.34740       -4.32510        6.35680
O          1.44290       -5.84600        4.51590
N          3.88780       -5.19070        4.44420
C          4.18360       -6.63100        4.46570
C          5.50070       -6.86700        3.71790
N          6.61200       -6.07880        4.23380
C          6.25850       -4.66840        4.23320
C          4.96370       -4.35670        4.99480
C          7.20630       -6.56500        5.47620
C          7.99450       -7.85790        5.28730
H         -1.26740       -0.26660       -0.65130
H         -1.29860        0.53810        0.94070
H         -1.10190       -1.22980        0.83860
H          0.91450        0.88020       -0.19120
H          1.16000       -0.86860       -0.31330
H          0.92540       -2.56100        0.82860
H          1.38130       -4.53030        2.26100
H          2.54820       -1.90190        5.47760
H          4.37430        5.55970        6.40740
H          3.89260        4.18980        7.46100
H          2.79340        5.58370        7.20880
H          0.72870        5.14780        2.37810
H          0.63890        3.41760        2.02710
H          3.00400        5.28790        1.42760
H          1.84710        4.67720        0.23800
H          3.86210        2.95780        1.83860
H          3.97630        3.36970        0.11680
H          2.67860        2.30060        0.68670
H          3.35840       -7.16450        3.97750
H          4.25580       -7.00470        5.50580
H          5.75130       -7.93720        3.75120
H          5.34890       -6.59960        2.65770
H          7.08540       -4.08150        4.66210
H          6.12610       -4.34310        3.18610
H          5.08340       -4.53360        6.07950
H          4.70380       -3.29570        4.86310
H          6.46350       -6.70490        6.29170
H          7.89330       -5.77960        5.83090
H          7.34560       -8.70390        5.01120
H          8.50780       -8.13390        6.22160
H          8.74660       -7.73440        4.49290
