66

C         -1.15980        0.19010        0.39280
C          0.34800        0.23940        0.22000
O          1.04110        0.23120        1.47460
C          1.16480       -0.90190        2.22480
C          0.82870       -2.17060        1.72280
C          0.99090       -3.30690        2.50690
C          1.49570       -3.17650        3.80220
C          1.84280       -1.93240        4.31110
C          1.67270       -0.77120        3.54230
C          2.01330        0.51830        4.21100
N          2.25130        0.52690        5.48740
C          2.54560        1.71760        6.17580
O          2.78350        1.72010        7.36860
C          2.52430        2.94040        5.36450
N          2.26340        2.83510        4.00250
N          2.06100        1.62300        3.41410
H          1.75290        1.58000        2.44550
C          2.27550        4.08050        3.44840
N          2.52230        4.97750        4.39590
C          2.68330        4.30690        5.57820
C          2.98100        4.99360        6.86910
C          1.98520        4.33470        2.00550
C          0.51400        4.08910        1.61110
C         -0.47060        4.97940        2.36560
S          1.69050       -4.64040        4.81000
O          1.89590       -5.78120        3.91150
O          2.66870       -4.31430        5.85340
N          0.14400       -4.81310        5.45940
C         -0.39150       -6.18010        5.55380
C          0.02000       -6.83560        6.87870
N         -0.32620       -6.03690        8.04760
C          0.24220       -4.69570        7.93990
C         -0.15520       -3.98290        6.63840
C         -1.72980       -6.09560        8.43870
C         -1.95430       -5.70650        9.89760
H         -1.64930        0.25330       -0.59150
H         -1.50520        1.03690        1.00480
H         -1.48630       -0.74140        0.87790
H          0.65530        1.18530       -0.24780
H          0.72260       -0.57730       -0.41750
H          0.44270       -2.27750        0.71080
H          0.74280       -4.29560        2.11830
H          2.25470       -1.82180        5.31460
H          3.92770        5.55380        6.80070
H          3.05660        4.25560        7.67770
H          2.19090        5.72220        7.11280
H          2.64750        3.71470        1.37360
H          2.25420        5.38340        1.81330
H          0.25450        3.02830        1.78180
H          0.41540        4.25070        0.52390
H         -0.39750        4.82440        3.45320
H         -1.50870        4.77500        2.06070
H         -0.26420        6.04470        2.17500
H         -0.03480       -6.75780        4.69200
H         -1.48950       -6.09930        5.47920
H         -0.44040       -7.83290        6.96830
H          1.11500       -6.97900        6.86330
H         -0.06020       -4.08940        8.80620
H          1.34040       -4.77440        7.96170
H         -1.23810       -3.77460        6.61420
H          0.35780       -3.01490        6.54920
H         -2.06050       -7.13760        8.29660
H         -2.39600       -5.47980        7.79240
H         -1.32090       -6.31980       10.55660
H         -3.00890       -5.85670       10.17810
H         -1.71390       -4.64870       10.08690
