66
rmsd102.gzmat
C          0.00000        0.00000        0.00000
C          1.51540        0.00000        0.00000
O          2.00250        0.00000        1.34420
C          1.85780        1.10500        2.10980
C          1.64450        2.39280        1.61350
C          1.54650        3.45190        2.51010
C          1.66060        3.22840        3.88310
C          1.89090        1.94660        4.37400
C          1.98300        0.86570        3.49240
C          2.10650       -0.49130        4.04440
N          1.42600       -0.84140        5.08870
C          1.47740       -2.16770        5.62370
O          0.86920       -2.43330        6.62680
C          2.27820       -3.10610        4.85000
N          2.99940       -2.65650        3.72590
N          3.10400       -1.30860        3.41610
H          3.26800       -1.15960        2.40870
C          3.67590       -3.73160        3.16460
N          3.37440       -4.84080        3.88060
C          2.52940       -4.48590        4.91490
C          2.01160       -5.46240        5.88450
C          4.53160       -3.65360        1.96140
C          3.67040       -3.53560        0.69280
C          4.54790       -3.29000       -0.53110
S          1.45960        4.56960        5.00010
O          2.29180        4.33740        6.15500
O          1.52260        5.80200        4.24480
N         -0.20350        4.36440        5.49360
C         -1.08590        5.53970        5.39240
C         -2.55990        5.05170        5.44230
N         -2.88740        4.24590        6.63400
C         -1.91060        3.14610        6.76410
C         -0.43200        3.61590        6.74450
C         -2.99400        5.04920        7.87610
C         -4.27820        5.88740        7.84270
H         -0.40370       -0.11740       -1.01340
H         -0.41290        0.92900        0.41520
H         -0.40110       -0.82310        0.61090
H          1.95720        0.83980       -0.56170
H          1.94480       -0.95570       -0.36740
H          1.55710        2.57310        0.54730
H          1.38040        4.46630        2.11960
H          1.99480        1.75080        5.45540
H          1.42930       -6.25610        5.38570
H          1.35860       -4.98580        6.63730
H          2.83300       -5.96640        6.42300
H          5.16650       -4.57050        1.90120
H          5.24880       -2.80870        2.03530
H          2.92590       -2.72540        0.79840
H          3.07900       -4.46570        0.56130
H          5.11970       -2.35940       -0.44160
H          3.94670       -3.22230       -1.44490
H          5.26770       -4.10500       -0.67870
H         -0.90590        6.06820        4.42790
H         -0.90250        6.28080        6.20050
H         -3.24640        5.91890        5.37890
H         -2.76660        4.41280        4.55260
H         -2.11580        2.57010        7.68890
H         -2.08840        2.44850        5.91190
H         -0.20640        4.22200        7.64870
H          0.23210        2.72230        6.78430
H         -2.11310        5.70210        8.04940
H         -3.04520        4.34380        8.73630
H         -4.18180        6.75990        7.19000
H         -4.53910        6.24410        8.84440
H         -5.12030        5.28800        7.46930
