
     RDKit          3D

 66 69  0  0  0  0  0  0  0  0999 V2000
   -0.6962   -0.3326    0.2639 C   0  0  0  0  0  0  0  0  0  0  0  0
    0.8069   -0.1181    0.2764 C   0  0  0  0  0  0  0  0  0  0  0  0
    1.3284   -0.0049    1.6067 O   0  0  0  0  0  0  0  0  0  0  0  0
    1.5829   -1.0979    2.3819 C   0  0  0  0  0  0  0  0  0  0  0  0
    1.4069   -2.4097    1.9097 C   0  0  0  0  0  0  0  0  0  0  0  0
    1.7031   -3.4984    2.7221 C   0  0  0  0  0  0  0  0  0  0  0  0
    2.1725   -3.2760    4.0179 C   0  0  0  0  0  0  0  0  0  0  0  0
    2.3388   -1.9872    4.5068 C   0  0  0  0  0  0  0  0  0  0  0  0
    2.0567   -0.8749    3.7003 C   0  0  0  0  0  0  0  0  0  0  0  0
    2.3186    0.4638    4.3046 C   0  0  0  0  0  0  0  0  0  0  0  0
    3.0019    0.5421    5.4048 N   0  0  0  0  0  0  0  0  0  0  0  0
    3.3029    1.7820    6.0001 C   0  0  0  0  0  0  0  0  0  0  0  0
    3.9343    1.8510    7.0372 O   0  0  0  0  0  0  0  0  0  0  0  0
    2.8210    2.9654    5.2785 C   0  0  0  0  0  0  0  0  0  0  0  0
    2.0872    2.7832    4.1118 N   0  0  0  0  0  0  0  0  0  0  0  0
    1.7828    1.5362    3.6532 N   0  0  0  0  0  0  0  0  0  0  0  0
    1.4159    1.4311    2.7099 H   0  0  0  0  0  0  0  0  0  0  0  0
    1.7418    4.0009    3.6075 C   0  0  0  0  0  0  0  0  0  0  0  0
    2.2320    4.9542    4.3905 N   0  0  0  0  0  0  0  0  0  0  0  0
    2.8944    4.3484    5.4237 C   0  0  0  0  0  0  0  0  0  0  0  0
    3.5733    5.1100    6.5127 C   0  0  0  0  0  0  0  0  0  0  0  0
    0.9642    4.1608    2.3437 C   0  0  0  0  0  0  0  0  0  0  0  0
    1.7520    3.7907    1.0730 C   0  0  0  0  0  0  0  0  0  0  0  0
    0.9095    3.9009   -0.1955 C   0  0  0  0  0  0  0  0  0  0  0  0
    2.5493   -4.6823    5.0548 S   0  0  0  0  0  0  0  0  0  0  0  0
    2.5603   -4.2178    6.4447 O   0  0  0  0  0  0  0  0  0  0  0  0
    1.6972   -5.7989    4.6351 O   0  0  0  0  0  0  0  0  0  0  0  0
    4.1173   -5.0598    4.5348 N   0  0  0  0  0  0  0  0  0  0  0  0
    4.4649   -6.4879    4.5812 C   0  0  0  0  0  0  0  0  0  0  0  0
    5.7860   -6.6838    3.8292 C   0  0  0  0  0  0  0  0  0  0  0  0
    6.8714   -5.8518    4.3250 N   0  0  0  0  0  0  0  0  0  0  0  0
    6.4705   -4.4523    4.3027 C   0  0  0  0  0  0  0  0  0  0  0  0
    5.1661   -4.1771    5.0624 C   0  0  0  0  0  0  0  0  0  0  0  0
    7.4825   -6.3104    5.5698 C   0  0  0  0  0  0  0  0  0  0  0  0
    8.8801   -5.7377    5.7872 C   0  0  0  0  0  0  0  0  0  0  0  0
   -1.0610   -0.3541   -0.7748 H   0  0  0  0  0  0  0  0  0  0  0  0
   -1.2067    0.4883    0.7903 H   0  0  0  0  0  0  0  0  0  0  0  0
   -0.9809   -1.2788    0.7470 H   0  0  0  0  0  0  0  0  0  0  0  0
    1.0669    0.8390   -0.1973 H   0  0  0  0  0  0  0  0  0  0  0  0
    1.3475   -0.9095   -0.2663 H   0  0  0  0  0  0  0  0  0  0  0  0
    1.0330   -2.5883    0.9035 H   0  0  0  0  0  0  0  0  0  0  0  0
    1.5592   -4.5192    2.3653 H   0  0  0  0  0  0  0  0  0  0  0  0
    2.6910   -1.8063    5.5229 H   0  0  0  0  0  0  0  0  0  0  0  0
    4.3534    5.7689    6.0980 H   0  0  0  0  0  0  0  0  0  0  0  0
    4.0298    4.4147    7.2285 H   0  0  0  0  0  0  0  0  0  0  0  0
    2.8530    5.7546    7.0419 H   0  0  0  0  0  0  0  0  0  0  0  0
    0.6452    5.2118    2.2948 H   0  0  0  0  0  0  0  0  0  0  0  0
    0.0410    3.5522    2.3937 H   0  0  0  0  0  0  0  0  0  0  0  0
    2.1501    2.7641    1.1636 H   0  0  0  0  0  0  0  0  0  0  0  0
    2.6364    4.4448    1.0047 H   0  0  0  0  0  0  0  0  0  0  0  0
    0.0320    3.2330   -0.1527 H   0  0  0  0  0  0  0  0  0  0  0  0
    1.4918    3.6359   -1.0918 H   0  0  0  0  0  0  0  0  0  0  0  0
    0.5304    4.9262   -0.3342 H   0  0  0  0  0  0  0  0  0  0  0  0
    3.6567   -7.0595    4.1077 H   0  0  0  0  0  0  0  0  0  0  0  0
    4.5600   -6.8402    5.6271 H   0  0  0  0  0  0  0  0  0  0  0  0
    6.0828   -7.7431    3.8804 H   0  0  0  0  0  0  0  0  0  0  0  0
    5.6148   -6.4357    2.7667 H   0  0  0  0  0  0  0  0  0  0  0  0
    7.2714   -3.8237    4.7175 H   0  0  0  0  0  0  0  0  0  0  0  0
    6.3285   -4.1486    3.2509 H   0  0  0  0  0  0  0  0  0  0  0  0
    5.2939   -4.3268    6.1500 H   0  0  0  0  0  0  0  0  0  0  0  0
    4.8684   -3.1288    4.9112 H   0  0  0  0  0  0  0  0  0  0  0  0
    7.5552   -7.4084    5.5049 H   0  0  0  0  0  0  0  0  0  0  0  0
    6.8585   -6.1022    6.4662 H   0  0  0  0  0  0  0  0  0  0  0  0
    9.5190   -5.9473    4.9155 H   0  0  0  0  0  0  0  0  0  0  0  0
    9.3425   -6.1839    6.6815 H   0  0  0  0  0  0  0  0  0  0  0  0
    8.8628   -4.6474    5.9409 H   0  0  0  0  0  0  0  0  0  0  0  0
  1  2  1  0
  1 36  1  0
  1 37  1  0
  1 38  1  0
  2  3  1  0
  2 39  1  0
  2 40  1  0
  3  4  1  0
  4  5  2  0
  4  9  1  0
  5  6  1  0
  5 41  1  0
  6  7  2  0
  6 42  1  0
  7  8  1  0
 25  7  1  0
  8  9  2  0
  8 43  1  0
  9 10  1  0
 10 11  2  0
 10 16  1  0
 11 12  1  0
 12 13  2  0
 12 14  1  0
 14 15  1  0
 14 20  2  0
 15 16  1  0
 15 18  1  0
 16 17  1  0
 18 19  2  0
 18 22  1  0
 19 20  1  0
 20 21  1  0
 21 44  1  0
 21 45  1  0
 21 46  1  0
 22 23  1  0
 22 47  1  0
 22 48  1  0
 23 24  1  0
 23 49  1  0
 23 50  1  0
 24 51  1  0
 24 52  1  0
 24 53  1  0
 25 26  2  0
 25 27  2  0
 25 28  1  0
 28 29  1  0
 28 33  1  0
 29 30  1  0
 29 54  1  0
 29 55  1  0
 30 31  1  0
 30 56  1  0
 30 57  1  0
 31 32  1  0
 31 34  1  0
 32 33  1  0
 32 58  1  0
 32 59  1  0
 33 60  1  0
 33 61  1  0
 34 35  1  0
 34 62  1  0
 34 63  1  0
 35 64  1  0
 35 65  1  0
 35 66  1  0
M  END

