66

C         -0.69960        0.46770        0.31240
C          0.66480        0.06530       -0.21860
O          1.62260       -0.07240        0.83870
C          1.49910       -1.05780        1.74210
C          1.26870       -2.39810        1.37910
C          1.27500       -3.40230        2.34000
C          1.51040       -3.07210        3.67830
C          1.72700       -1.75230        4.06240
C          1.69580       -0.73120        3.10450
C          1.81350        0.68850        3.52610
N          0.98690        1.58160        3.09810
C          1.11960        2.94010        3.45560
O          0.37340        3.78160        2.99170
C          2.19390        3.24500        4.40100
N          3.00570        2.20970        4.86110
N          2.81660        0.91760        4.44310
H          3.63060        0.31220        4.47570
C          3.88860        2.71130        5.77070
N          3.69450        4.01830        5.89580
C          2.65950        4.37070        5.07470
C          2.14400        5.76700        4.97080
C          4.93240        1.88340        6.44170
C          6.13440        1.54690        5.53960
C          7.19800        0.72190        6.25920
S          1.56480       -4.36210        4.91040
O          2.34140       -5.48540        4.37900
O          1.95650       -3.71870        6.17420
N         -0.04160       -4.86680        4.94310
C         -0.28830       -6.30330        5.13620
C         -0.36080       -6.65070        6.63060
N         -1.27530       -5.80790        7.37750
C         -1.04510       -4.39050        7.16540
C         -0.97390       -4.00000        5.67910
C         -2.63240       -6.27000        7.59020
C         -3.60120       -6.27280        6.39630
H         -1.38420        0.66990       -0.52640
H         -0.61030        1.36310        0.94360
H         -1.13780       -0.33610        0.92500
H          1.08710        0.84940       -0.86240
H          0.61670       -0.86210       -0.81700
H          1.11830       -2.65110        0.32910
H          1.11610       -4.44450        2.05840
H          1.88440       -1.52630        5.11800
H          1.81220        6.13130        5.95640
H          1.30340        5.80750        4.26650
H          2.93900        6.44770        4.62550
H          4.48230        0.94970        6.82670
H          5.27600        2.45420        7.31650
H          6.56550        2.49100        5.16790
H          5.79080        1.00400        4.63870
H          7.58710        1.26150        7.13790
H          8.04930        0.49860        5.59810
H          6.78840       -0.23770        6.61580
H          0.51100       -6.86310        4.63400
H         -1.23990       -6.53200        4.62960
H         -0.64800       -7.70640        6.76000
H          0.65880       -6.53540        7.04670
H         -1.83740       -3.81260        7.66700
H         -0.08140       -4.10700        7.62360
H         -1.95730       -4.10320        5.19270
H         -0.66130       -2.95160        5.56190
H         -3.06950       -5.65270        8.39510
H         -2.57280       -7.29490        7.99740
H         -3.74180       -5.26170        5.98250
H         -4.59150       -6.64240        6.71020
H         -3.24670       -6.92580        5.58320
