rmsd132.gzmat
 OpenBabel08211713423D

 66 69  0  0  1  0  0  0  0  0999 V2000
    0.0000    0.0000    0.0000 C   0  0  0  0  0  0  0  0  0  0  0  0
    1.5194    0.0000    0.0000 C   0  0  0  0  0  0  0  0  0  0  0  0
    1.8376    0.0000    1.4007 O   0  0  0  0  0  0  0  0  0  0  0  0
    3.1301    0.0053    1.7855 C   0  0  0  0  0  0  0  0  0  0  0  0
    4.2245    0.1103    0.9254 C   0  0  0  0  0  0  0  0  0  0  0  0
    5.5041    0.1531    1.4723 C   0  0  0  0  0  0  0  0  0  0  0  0
    5.6879    0.0879    2.8541 C   0  0  0  0  0  0  0  0  0  0  0  0
    4.5963   -0.0635    3.7068 C   0  0  0  0  0  0  0  0  0  0  0  0
    3.3034   -0.0928    3.1817 C   0  0  0  0  0  0  0  0  0  0  0  0
    2.1622   -0.2757    4.0918 C   0  0  0  0  0  0  0  0  0  0  0  0
    2.1847   -1.1659    5.0266 N   0  0  0  0  0  0  0  0  0  0  0  0
    1.0776   -1.3769    5.9101 C   0  0  0  0  0  0  0  0  0  0  0  0
    1.1432   -2.2197    6.7648 O   0  0  0  0  0  0  0  0  0  0  0  0
   -0.0674   -0.5105    5.6693 C   0  0  2  0  0  0  0  0  0  0  0  0
   -0.0346    0.4406    4.6280 N   0  0  0  0  0  0  0  0  0  0  0  0
    1.1250    0.7056    3.9117 N   0  0  0  0  0  0  0  0  0  0  0  0
    0.9118    0.9653    2.9357 H   0  0  0  0  0  0  0  0  0  0  0  0
   -1.2129    1.1769    4.6566 C   0  0  0  0  0  0  0  0  0  0  0  0
   -2.0060    0.6664    5.6292 N   0  0  0  0  0  0  0  0  0  0  0  0
   -1.3279   -0.3562    6.2660 C   0  0  0  0  0  0  0  0  0  0  0  0
   -1.9099   -1.1224    7.3780 C   0  0  0  0  0  0  0  0  0  0  0  0
   -1.5554    2.2869    3.7398 C   0  0  0  0  0  0  0  0  0  0  0  0
   -0.6433    3.5081    3.9452 C   0  0  0  0  0  0  0  0  0  0  0  0
   -0.8233    4.1092    5.3374 C   0  0  0  0  0  0  0  0  0  0  0  0
    7.3073    0.2207    3.5191 S   0  0  0  0  0  0  0  0  0  0  0  0
    7.2172    0.1335    4.9569 O   0  0  0  0  0  0  0  0  0  0  0  0
    8.2078   -0.6147    2.7580 O   0  0  0  0  0  0  0  0  0  0  0  0
    7.7017    1.8791    3.0849 N   0  0  0  0  0  0  0  0  0  0  0  0
    7.3533    2.9058    4.0839 C   0  0  0  0  0  0  0  0  0  0  0  0
    8.4426    3.0790    5.1731 C   0  0  0  0  0  0  0  0  0  0  0  0
    9.7921    3.3264    4.6299 N   0  0  0  0  0  0  0  0  0  0  0  0
   10.1262    2.2862    3.6355 C   0  0  0  0  0  0  0  0  0  0  0  0
    9.0494    2.1057    2.5353 C   0  0  0  0  0  0  0  0  0  0  0  0
    9.9574    4.6944    4.0794 C   0  0  0  0  0  0  0  0  0  0  0  0
   10.0381    5.7052    5.2305 C   0  0  0  0  0  0  0  0  0  0  0  0
   -0.4007   -0.8461    0.5798 H   0  0  0  0  0  0  0  0  0  0  0  0
   -0.3925   -0.0883   -1.0219 H   0  0  0  0  0  0  0  0  0  0  0  0
   -0.4102    0.9192    0.4359 H   0  0  0  0  0  0  0  0  0  0  0  0
    1.9481    0.9039   -0.4655 H   0  0  0  0  0  0  0  0  0  0  0  0
    1.9462   -0.9109   -0.4563 H   0  0  0  0  0  0  0  0  0  0  0  0
    4.0946    0.1604   -0.1493 H   0  0  0  0  0  0  0  0  0  0  0  0
    6.3636    0.2396    0.7951 H   0  0  0  0  0  0  0  0  0  0  0  0
    4.7281   -0.1698    4.8003 H   0  0  0  0  0  0  0  0  0  0  0  0
   -2.3048   -0.4583    8.1655 H   0  0  0  0  0  0  0  0  0  0  0  0
   -1.1684   -1.7971    7.8426 H   0  0  0  0  0  0  0  0  0  0  0  0
   -2.7559   -1.7436    7.0367 H   0  0  0  0  0  0  0  0  0  0  0  0
   -2.6186    2.5840    3.9173 H   0  0  0  0  0  0  0  0  0  0  0  0
   -1.5171    1.9491    2.6839 H   0  0  0  0  0  0  0  0  0  0  0  0
   -0.8712    4.2675    3.1725 H   0  0  0  0  0  0  0  0  0  0  0  0
    0.4177    3.2291    3.7949 H   0  0  0  0  0  0  0  0  0  0  0  0
   -1.8602    4.4165    5.5158 H   0  0  0  0  0  0  0  0  0  0  0  0
   -0.1838    4.9871    5.4799 H   0  0  0  0  0  0  0  0  0  0  0  0
   -0.5668    3.3839    6.1220 H   0  0  0  0  0  0  0  0  0  0  0  0
    6.3768    2.6694    4.5604 H   0  0  0  0  0  0  0  0  0  0  0  0
    7.2047    3.8649    3.5369 H   0  0  0  0  0  0  0  0  0  0  0  0
    8.1657    3.8997    5.8643 H   0  0  0  0  0  0  0  0  0  0  0  0
    8.5034    2.1559    5.8023 H   0  0  0  0  0  0  0  0  0  0  0  0
   11.1088    2.5142    3.1758 H   0  0  0  0  0  0  0  0  0  0  0  0
   10.2706    1.3333    4.1973 H   0  0  0  0  0  0  0  0  0  0  0  0
    9.0013    3.0181    1.8986 H   0  0  0  0  0  0  0  0  0  0  0  0
    9.3366    1.2695    1.8560 H   0  0  0  0  0  0  0  0  0  0  0  0
    9.1504    4.9791    3.3731 H   0  0  0  0  0  0  0  0  0  0  0  0
   10.9098    4.7235    3.5038 H   0  0  0  0  0  0  0  0  0  0  0  0
    9.0599    5.8878    5.6851 H   0  0  0  0  0  0  0  0  0  0  0  0
   10.4335    6.6646    4.8828 H   0  0  0  0  0  0  0  0  0  0  0  0
   10.7031    5.3331    6.0233 H   0  0  0  0  0  0  0  0  0  0  0  0
  1 38  1  0  0  0  0
  1 36  1  0  0  0  0
  2  1  1  0  0  0  0
  2  3  1  0  0  0  0
  3  4  1  0  0  0  0
  4  9  2  0  0  0  0
  5  6  2  0  0  0  0
  5  4  1  0  0  0  0
  6  7  1  0  0  0  0
  7 25  1  0  0  0  0
  7  8  2  0  0  0  0
  8 43  1  0  0  0  0
  9  8  1  0  0  0  0
  9 10  1  0  0  0  0
 10 11  2  0  0  0  0
 11 12  2  0  0  0  0
 12 13  2  0  0  0  0
 14 12  1  1  0  0  0
 14 20  1  0  0  0  0
 15 18  1  0  0  0  0
 15 14  1  0  0  0  0
 16 10  1  0  0  0  0
 16 15  1  0  0  0  0
 17 16  1  0  0  0  0
 18 19  2  0  0  0  0
 19 20  2  0  0  0  0
 20 21  1  0  0  0  0
 21 45  1  0  0  0  0
 21 44  1  0  0  0  0
 22 47  1  0  0  0  0
 22 23  1  0  0  0  0
 22 18  1  0  0  0  0
 23 24  1  0  0  0  0
 24 52  1  0  0  0  0
 24 51  1  0  0  0  0
 24 53  1  0  0  0  0
 25 26  2  0  0  0  0
 27 25  2  0  0  0  0
 28 25  1  0  0  0  0
 28 29  1  0  0  0  0
 29 54  1  0  0  0  0
 29 30  1  0  0  0  0
 30 57  1  0  0  0  0
 30 56  1  0  0  0  0
 31 30  1  0  0  0  0
 32 59  1  0  0  0  0
 32 31  1  0  0  0  0
 33 28  1  0  0  0  0
 33 32  1  0  0  0  0
 34 31  1  0  0  0  0
 34 35  1  0  0  0  0
 35 64  1  0  0  0  0
 35 66  1  0  0  0  0
 37  1  1  0  0  0  0
 39  2  1  0  0  0  0
 40  2  1  0  0  0  0
 41  5  1  0  0  0  0
 42  6  1  0  0  0  0
 46 21  1  0  0  0  0
 48 22  1  0  0  0  0
 49 23  1  0  0  0  0
 50 23  1  0  0  0  0
 55 29  1  0  0  0  0
 58 32  1  0  0  0  0
 60 33  1  0  0  0  0
 61 33  1  0  0  0  0
 62 34  1  0  0  0  0
 63 34  1  0  0  0  0
 65 35  1  0  0  0  0
M  RAD  1  14   2
M  END
$$$$
