66

C         -0.20780        0.77320       -0.09790
C          1.30470        0.78220       -0.04280
O          1.70060        0.69330        1.32900
C          3.01730        0.59910        1.66700
C          4.03400        0.66420        0.69880
C          5.37010        0.55820        1.06890
C          5.69260        0.37890        2.41490
C          4.70030        0.29950        3.38290
C          3.34650        0.42440        3.03550
C          2.37140        0.36340        4.16420
N          2.81870        0.22100        5.37500
C          1.95600        0.15820        6.48210
O          2.38120        0.02140        7.61360
C          0.52610        0.27740        6.17730
N          0.13400        0.44110        4.85230
N          1.05110        0.47830        3.84470
H          0.74220        0.56720        2.87990
C         -1.22490        0.54520        4.80150
N         -1.71660        0.45790        6.03190
C         -0.66690        0.29100        6.89380
C         -0.83990        0.15090        8.36920
C         -1.98140        0.81050        3.54210
C         -1.85170        2.26420        3.04270
C         -2.39410        3.29340        4.03170
S          7.41310        0.24400        2.88360
O          7.45030       -0.41980        4.19100
O          8.14910       -0.30020        1.73760
N          7.85940        1.86480        3.01440
C          7.52960        2.52180        4.29010
C          8.66030        2.34980        5.31580
N          9.96200        2.76430        4.79880
C         10.26470        2.06790        3.55470
C          9.17910        2.24060        2.48430
C         10.19890        4.20290        4.77150
C         10.38140        4.79920        6.16480
H         -0.61050       -0.15760        0.33020
H         -0.54290        0.84130       -1.14360
H         -0.62870        1.62600        0.45410
H          1.71370        1.70930       -0.47980
H          1.72720       -0.07300       -0.59730
H          3.78570        0.79530       -0.35250
H          6.16300        0.59810        0.32070
H          4.93950        0.12960        4.43320
H         -1.36200        1.02850        8.78360
H          0.13940        0.04830        8.85370
H         -1.45500       -0.73270        8.60530
H         -3.03550        0.57880        3.75310
H         -1.65520        0.11390        2.74850
H         -2.38440        2.34900        2.08000
H         -0.79060        2.48270        2.82430
H         -3.46480        3.12410        4.22890
H         -2.27740        4.31730        3.64430
H         -1.87330        3.23210        4.99950
H          6.58380        2.11890        4.67880
H          7.35620        3.58750        4.06450
H          8.42430        2.91140        6.23150
H          8.71110        1.28400        5.58830
H         11.23710        2.41480        3.16930
H         10.36260        0.98920        3.77110
H          9.10720        3.29390        2.16330
H          9.38880        1.62940        1.59770
H          9.40660        4.77220        4.23400
H         11.12370        4.36620        4.19400
H          9.46180        4.73590        6.76720
H         10.65310        5.86430        6.09510
H         11.17690        4.26460        6.70610
