66
rmsd83.gzmat
C          0.00000        0.00000        0.00000
C          1.51640        0.00000        0.00000
O          2.00780        0.00000        1.34070
C          1.88900       -1.11270        2.10220
C          1.64720       -2.39200        1.59800
C          1.59960       -3.46630        2.48030
C          1.80050       -3.26650        3.84680
C          2.06750       -1.99360        4.34260
C          2.08660       -0.89190        3.48000
C          2.35020        0.43900        4.04990
N          3.14440        0.57930        5.06130
C          3.43920        1.85620        5.63510
O          4.13670        1.93000        6.61160
C          2.84120        2.98800        4.94080
N          1.98280        2.77080        3.84370
N          1.54840        1.49860        3.49870
H          1.33190        1.43280        2.49210
C          1.52700        3.99920        3.38010
N          2.11530        4.97240        4.11610
C          2.91410        4.38250        5.07750
C          3.69900        5.16270        6.04550
C          0.58950        4.19320        2.25190
C         -0.85240        3.84070        2.65760
C         -1.42360        4.88600        3.61330
S          1.68470       -4.63870        4.93840
O          1.61470       -5.83790        4.13020
O          2.65020       -4.49200        5.99870
N          0.09010       -4.38790        5.63200
C         -0.87800       -5.48280        5.44790
C         -0.73080       -6.59850        6.51360
N         -0.77710       -6.10160        7.90360
C          0.19390       -5.00320        8.07400
C          0.06150       -3.87900        7.01570
C         -2.15230       -5.72670        8.31650
C         -2.23230       -5.68310        9.84800
H         -0.39900        0.12730       -1.01490
H         -0.40860        0.81260        0.61570
H         -0.41250       -0.93710        0.39760
H          1.94920        0.95370       -0.36920
H          1.95550       -0.83770       -0.56760
H          1.50850       -2.55770        0.53490
H          1.40980       -4.47420        2.08200
H          2.28000       -1.82370        5.41370
H          4.56310        5.64850        5.56020
H          4.09130        4.52750        6.85930
H          3.09920        5.96820        6.50070
H          0.90120        3.60300        1.36710
H          0.63350        5.26110        1.92380
H         -0.88400        2.84040        3.13240
H         -1.48440        3.77150        1.75200
H         -0.79530        4.99230        4.50940
H         -2.43110        4.61760        3.94720
H         -1.47810        5.87600        3.14640
H         -0.78130       -5.91990        4.42810
H         -1.89780       -5.03880        5.50080
H         -1.51090       -7.37250        6.36960
H          0.24350       -7.12730        6.38550
H          0.09690       -4.58010        9.09430
H          1.21540       -5.45290        8.02710
H         -0.90280       -3.33820        7.15050
H          0.86530       -3.12400        7.17010
H         -2.85450       -6.50260        7.93870
H         -2.48590       -4.75950        7.88670
H         -1.73830       -6.56280       10.28420
H         -3.27290       -5.67810       10.18630
H         -1.73920       -4.79750       10.25980
