rmsd8.gzmat
 OpenBabel08211713423D

 17 17  0  0  1  0  0  0  0  0999 V2000
    0.0000    0.0000    0.0000 O   0  0  0  0  0  0  0  0  0  0  0  0
    1.2111    0.0000    0.0000 C   0  0  0  0  0  0  0  0  0  0  0  0
    1.9459    0.0000    1.1727 N   0  0  0  0  0  0  0  0  0  0  0  0
    3.4049   -0.0751    1.1686 C   0  0  1  0  0  0  0  0  0  0  0  0
    3.7193   -1.1636    1.1414 H   0  0  0  0  0  0  0  0  0  0  0  0
    3.9991    0.6654   -0.0340 C   0  0  0  0  0  0  0  0  0  0  0  0
    3.3036    0.2791   -1.3151 C   0  0  0  0  0  0  0  0  0  0  0  0
    3.8365    0.2458   -2.3963 O   0  0  0  0  0  0  0  0  0  0  0  0
    1.9375   -0.0139   -1.2143 N   0  0  0  0  0  0  0  0  0  0  0  0
    3.9188    0.5242    2.4732 C   0  0  0  0  0  0  0  0  0  0  0  0
    3.2894    0.7738    3.4630 O   0  0  0  0  0  0  0  0  0  0  0  0
    5.2535    0.7185    2.3897 O   0  0  0  0  0  0  0  0  0  0  0  0
    1.4651    0.0781    2.0665 H   0  0  0  0  0  0  0  0  0  0  0  0
    3.9288    1.7707    0.0890 H   0  0  0  0  0  0  0  0  0  0  0  0
    5.0936    0.4642   -0.1166 H   0  0  0  0  0  0  0  0  0  0  0  0
    1.4055   -0.1899   -2.0699 H   0  0  0  0  0  0  0  0  0  0  0  0
    5.6577    1.0870    3.2189 H   0  0  0  0  0  0  0  0  0  0  0  0
  1  2  2  0  0  0  0
  2  3  1  0  0  0  0
  3 13  1  0  0  0  0
  4  5  1  6  0  0  0
  4  3  1  0  0  0  0
  4 10  1  0  0  0  0
  6 14  1  0  0  0  0
  6  4  1  0  0  0  0
  7  9  1  0  0  0  0
  7  6  1  0  0  0  0
  8  7  2  0  0  0  0
  9  2  1  0  0  0  0
 10 11  2  0  0  0  0
 12 10  1  0  0  0  0
 12 17  1  0  0  0  0
 15  6  1  0  0  0  0
 16  9  1  0  0  0  0
M  END
$$$$
