rmsd3.gzmat
 OpenBabel08211713423D

 17 17  0  0  1  0  0  0  0  0999 V2000
    0.0000    0.0000    0.0000 O   0  0  0  0  0  0  0  0  0  0  0  0
    1.2109    0.0000    0.0000 C   0  0  0  0  0  0  0  0  0  0  0  0
    1.9465    0.0000    1.1722 N   0  0  0  0  0  0  0  0  0  0  0  0
    3.4057   -0.0624    1.1631 C   0  0  1  0  0  0  0  0  0  0  0  0
    3.7285   -1.1479    1.1200 H   0  0  0  0  0  0  0  0  0  0  0  0
    3.9910    0.6985   -0.0313 C   0  0  0  0  0  0  0  0  0  0  0  0
    3.2937    0.3280   -1.3164 C   0  0  0  0  0  0  0  0  0  0  0  0
    3.8202    0.3377   -2.4013 O   0  0  0  0  0  0  0  0  0  0  0  0
    1.9386   -0.0124   -1.2140 N   0  0  0  0  0  0  0  0  0  0  0  0
    3.9207    0.5236    2.4730 C   0  0  0  0  0  0  0  0  0  0  0  0
    3.2857    0.8018    3.4515 O   0  0  0  0  0  0  0  0  0  0  0  0
    5.2629    0.6666    2.4092 O   0  0  0  0  0  0  0  0  0  0  0  0
    1.4682    0.0919    2.0658 H   0  0  0  0  0  0  0  0  0  0  0  0
    3.9194    1.8014    0.1074 H   0  0  0  0  0  0  0  0  0  0  0  0
    5.0849    0.4978   -0.1212 H   0  0  0  0  0  0  0  0  0  0  0  0
    1.4089   -0.1988   -2.0690 H   0  0  0  0  0  0  0  0  0  0  0  0
    5.6684    1.0234    3.2429 H   0  0  0  0  0  0  0  0  0  0  0  0
  1  2  2  0  0  0  0
  2  3  1  0  0  0  0
  3 13  1  0  0  0  0
  4  5  1  6  0  0  0
  4  3  1  0  0  0  0
  4 10  1  0  0  0  0
  6 14  1  0  0  0  0
  6  4  1  0  0  0  0
  7  9  1  0  0  0  0
  7  6  1  0  0  0  0
  8  7  2  0  0  0  0
  9  2  1  0  0  0  0
 10 11  2  0  0  0  0
 12 10  1  0  0  0  0
 12 17  1  0  0  0  0
 15  6  1  0  0  0  0
 16  9  1  0  0  0  0
M  END
$$$$
