17
rmsd6.gzmat
O          0.00000        0.00000        0.00000
C          1.21130        0.00000        0.00000
N          1.94350        0.00000        1.17410
C          3.40180       -0.08080        1.18190
H          3.71220       -1.17080        1.18330
C          4.01700        0.62680       -0.02950
C          3.30800        0.26780       -1.31030
O          3.83810        0.24220       -2.39360
N          1.93920       -0.01190       -1.21270
C          3.90250        0.54400        2.48070
O          3.27160        0.75740        3.47810
O          5.22330        0.81260        2.38320
H          1.45760        0.06640        2.06640
H          4.00240        1.73520        0.08930
H          5.10090        0.37470       -0.11530
H          1.40670       -0.17780       -2.07050
H          5.61560        1.19550        3.21170
