
     RDKit          3D

 17 17  0  0  0  0  0  0  0  0999 V2000
   -0.0032   -0.1265   -0.0199 O   0  0  0  0  0  0  0  0  0  0  0  0
    1.2036   -0.0240    0.0090 C   0  0  0  0  0  0  0  0  0  0  0  0
    1.9413    0.1109    1.1578 N   0  0  0  0  0  0  0  0  0  0  0  0
    3.3739   -0.1197    1.1827 C   0  0  1  0  0  0  0  0  0  0  0  0
    3.5992   -1.2071    1.1196 H   0  0  0  0  0  0  0  0  0  0  0  0
    4.0260    0.5835   -0.0028 C   0  0  0  0  0  0  0  0  0  0  0  0
    3.3235    0.2523   -1.3068 C   0  0  0  0  0  0  0  0  0  0  0  0
    3.8675    0.2573   -2.3868 O   0  0  0  0  0  0  0  0  0  0  0  0
    1.9707   -0.0243   -1.1683 N   0  0  0  0  0  0  0  0  0  0  0  0
    3.9840    0.3307    2.5030 C   0  0  0  0  0  0  0  0  0  0  0  0
    5.1001    0.7582    2.6283 O   0  0  0  0  0  0  0  0  0  0  0  0
    3.1358    0.1468    3.5315 O   0  0  0  0  0  0  0  0  0  0  0  0
    1.4180   -0.0215    2.0164 H   0  0  0  0  0  0  0  0  0  0  0  0
    3.9698    1.6760    0.1396 H   0  0  0  0  0  0  0  0  0  0  0  0
    5.0856    0.3189   -0.0961 H   0  0  0  0  0  0  0  0  0  0  0  0
    1.4419   -0.1654   -2.0254 H   0  0  0  0  0  0  0  0  0  0  0  0
    3.5923    0.4301    4.3429 H   0  0  0  0  0  0  0  0  0  0  0  0
  1  2  2  0
  2  3  1  0
  2  9  1  0
  3  4  1  0
  3 13  1  0
  4  5  1  6
  4  6  1  0
  4 10  1  0
  6  7  1  0
  6 14  1  0
  6 15  1  0
  7  8  2  0
  7  9  1  0
  9 16  1  0
 10 11  2  0
 10 12  1  0
 12 17  1  0
M  END

