rmsd9.gzmat
 OpenBabel08211713423D

 17 17  0  0  1  0  0  0  0  0999 V2000
    0.0000    0.0000    0.0000 O   0  0  0  0  0  0  0  0  0  0  0  0
    1.2111    0.0000    0.0000 C   0  0  0  0  0  0  0  0  0  0  0  0
    1.9439    0.0000    1.1736 N   0  0  0  0  0  0  0  0  0  0  0  0
    3.4036   -0.0570    1.1786 C   0  0  1  0  0  0  0  0  0  0  0  0
    3.7327   -1.1413    1.1752 H   0  0  0  0  0  0  0  0  0  0  0  0
    3.9992    0.6688   -0.0317 C   0  0  0  0  0  0  0  0  0  0  0  0
    3.3036    0.2806   -1.3117 C   0  0  0  0  0  0  0  0  0  0  0  0
    3.8381    0.2481   -2.3924 O   0  0  0  0  0  0  0  0  0  0  0  0
    1.9385   -0.0164   -1.2132 N   0  0  0  0  0  0  0  0  0  0  0  0
    3.8916    0.5712    2.4803 C   0  0  0  0  0  0  0  0  0  0  0  0
    3.2646    0.7300    3.4907 O   0  0  0  0  0  0  0  0  0  0  0  0
    5.1920    0.9195    2.3688 O   0  0  0  0  0  0  0  0  0  0  0  0
    1.4606    0.0672    2.0678 H   0  0  0  0  0  0  0  0  0  0  0  0
    3.9401    1.7757    0.0853 H   0  0  0  0  0  0  0  0  0  0  0  0
    5.0921    0.4588   -0.1142 H   0  0  0  0  0  0  0  0  0  0  0  0
    1.4088   -0.1991   -2.0686 H   0  0  0  0  0  0  0  0  0  0  0  0
    5.5724    1.3126    3.1979 H   0  0  0  0  0  0  0  0  0  0  0  0
  1  2  2  0  0  0  0
  2  3  1  0  0  0  0
  3  4  1  0  0  0  0
  3 13  1  0  0  0  0
  4  5  1  6  0  0  0
  4 10  1  0  0  0  0
  6 14  1  0  0  0  0
  6  4  1  0  0  0  0
  7  9  1  0  0  0  0
  7  6  1  0  0  0  0
  8  7  2  0  0  0  0
  9  2  1  0  0  0  0
 10 11  2  0  0  0  0
 12 10  1  0  0  0  0
 12 17  1  0  0  0  0
 15  6  1  0  0  0  0
 16  9  1  0  0  0  0
M  END
$$$$
