17
rmsd7.gzmat
O          0.00000        0.00000        0.00000
C          1.21140        0.00000        0.00000
N          1.94380        0.00000        1.17670
C          3.39390       -0.17560        1.17410
H          3.64540       -1.27870        1.13200
C          4.03160        0.55660       -0.01310
C          3.31470        0.26130       -1.30410
O          3.84180        0.25860       -2.38880
N          1.93810        0.01380       -1.21280
C          3.98520        0.38620        2.46560
O          4.99860        1.01420        2.58860
O          3.21770        0.03670        3.52330
H          1.45330       -0.07980        2.06370
H          4.03480        1.66240        0.14790
H          5.11160        0.29610       -0.10630
H          1.39980       -0.10620       -2.07470
H          3.54950        0.38320        4.39260
