17
rmsd2.gzmat
O          0.00000        0.00000        0.00000
C          1.21120        0.00000        0.00000
N          1.94380        0.00000        1.17370
C          3.40270       -0.06970        1.17780
H          3.72310       -1.15660        1.17140
C          4.00680        0.65370       -0.03010
C          3.30250        0.29160       -1.31260
O          3.83110        0.28300       -2.39660
N          1.93890       -0.01210       -1.21340
C          3.89970        0.55010        2.48050
O          3.27340        0.72960        3.48740
O          5.20970        0.86090        2.37210
H          1.45840        0.05430        2.06720
H          3.97270        1.76090        0.09450
H          5.09520        0.42150       -0.11620
H          1.40660       -0.18330       -2.07020
H          5.59950        1.24750        3.20000
