rmsd39.gzmat
 OpenBabel08211713373D

 35 37  0  0  0  0  0  0  0  0999 V2000
    0.0000    0.0000    0.0000 S   0  0  0  0  0  0  0  0  0  0  0  0
    1.7405    0.0000    0.0000 C   0  0  0  0  0  0  0  0  0  0  0  0
    2.2252    0.0000    1.2780 C   0  0  0  0  0  0  0  0  0  0  0  0
    1.2711    0.0013    2.2915 N   0  0  0  0  0  0  0  0  0  0  0  0
    0.0396   -0.0009    1.7933 C   0  0  0  0  0  0  0  0  0  0  0  0
   -1.0694   -0.0074    2.6217 N   0  0  0  0  0  0  0  0  0  0  0  0
   -2.3745    0.0398    2.1181 C   0  0  0  0  0  0  0  0  0  0  0  0
   -2.5438    0.1024    0.9119 O   0  0  0  0  0  0  0  0  0  0  0  0
   -3.4589    0.0556    3.1069 C   0  0  0  0  0  0  0  0  0  0  0  0
   -4.6801    0.7304    2.8114 C   0  0  0  0  0  0  0  0  0  0  0  0
   -5.6620    0.8611    3.8298 C   0  0  0  0  0  0  0  0  0  0  0  0
   -5.4055    0.3113    5.0705 C   0  0  0  0  0  0  0  0  0  0  0  0
   -4.2405   -0.4160    5.3583 C   0  0  0  0  0  0  0  0  0  0  0  0
   -3.2990   -0.5645    4.3457 C   0  0  0  0  0  0  0  0  0  0  0  0
   -3.9029   -1.0707    6.9562 S   0  0  0  0  0  0  0  0  0  0  0  0
   -2.4060   -0.2193    7.3197 C   0  0  0  0  0  0  0  0  0  0  0  0
   -2.1210    0.4080    8.5251 N   0  0  0  0  0  0  0  0  0  0  0  0
   -0.8392    0.9401    8.4291 C   0  0  0  0  0  0  0  0  0  0  0  0
   -0.3896    0.6386    7.1380 C   0  0  0  0  0  0  0  0  0  0  0  0
   -1.3635   -0.0752    6.4699 N   0  0  0  0  0  0  0  0  0  0  0  0
   -2.9668    0.4773    9.6999 C   0  0  0  0  0  0  0  0  0  0  0  0
   -6.3083    0.4723    6.0213 F   0  0  0  0  0  0  0  0  0  0  0  0
   -4.9105    1.2611    1.5801 N   0  0  0  0  0  0  0  0  0  0  0  0
    2.3067   -0.0002   -0.9110 H   0  0  0  0  0  0  0  0  0  0  0  0
    3.2658   -0.0030    1.5862 H   0  0  0  0  0  0  0  0  0  0  0  0
   -0.8999   -0.0005    3.6390 H   0  0  0  0  0  0  0  0  0  0  0  0
   -6.5877    1.3912    3.6295 H   0  0  0  0  0  0  0  0  0  0  0  0
   -2.3950   -1.1697    4.5335 H   0  0  0  0  0  0  0  0  0  0  0  0
   -0.3605    1.4632    9.2274 H   0  0  0  0  0  0  0  0  0  0  0  0
    0.5447    0.8813    6.6661 H   0  0  0  0  0  0  0  0  0  0  0  0
   -2.6155    1.2624   10.3940 H   0  0  0  0  0  0  0  0  0  0  0  0
   -2.9689   -0.4875   10.2446 H   0  0  0  0  0  0  0  0  0  0  0  0
   -4.0135    0.7191    9.4239 H   0  0  0  0  0  0  0  0  0  0  0  0
   -5.7620    1.7282    1.3611 H   0  0  0  0  0  0  0  0  0  0  0  0
   -4.2456    1.1063    0.8326 H   0  0  0  0  0  0  0  0  0  0  0  0
  1  5  1  0  0  0  0
  2  1  1  0  0  0  0
  2  3  1  0  0  0  0
  3 25  1  0  0  0  0
  3  4  2  0  0  0  0
  5  4  2  0  0  0  0
  5  6  1  0  0  0  0
  6 26  1  0  0  0  0
  7  6  1  0  0  0  0
  7  9  1  0  0  0  0
  8  7  2  0  0  0  0
  9 14  1  0  0  0  0
 10  9  2  0  0  0  0
 10 11  1  0  0  0  0
 11 12  2  0  0  0  0
 12 13  1  0  0  0  0
 12 22  1  0  0  0  0
 13 15  1  0  0  0  0
 14 28  1  0  0  0  0
 14 13  2  0  0  0  0
 15 16  1  0  0  0  0
 16 17  1  0  0  0  0
 17 21  1  0  0  0  0
 18 17  1  0  0  0  0
 18 29  1  0  0  0  0
 19 18  1  0  0  0  0
 20 19  2  0  0  0  0
 20 16  2  0  0  0  0
 21 32  1  0  0  0  0
 21 31  1  0  0  0  0
 23 10  1  0  0  0  0
 24  2  1  0  0  0  0
 27 11  1  0  0  0  0
 30 19  1  0  0  0  0
 33 21  1  0  0  0  0
 34 23  1  0  0  0  0
 35 23  1  0  0  0  0
M  RAD  2   2   2  18   2
M  END
$$$$
