rmsd87.gzmat
 OpenBabel08211713373D

 35 37  0  0  0  0  0  0  0  0999 V2000
    0.0000    0.0000    0.0000 S   0  0  0  0  0  0  0  0  0  0  0  0
    1.7411    0.0000    0.0000 C   0  0  0  0  0  0  0  0  0  0  0  0
    2.2251    0.0000    1.2782 C   0  0  0  0  0  0  0  0  0  0  0  0
    1.2707    0.0044    2.2911 N   0  0  0  0  0  0  0  0  0  0  0  0
    0.0387    0.0080    1.7926 C   0  0  0  0  0  0  0  0  0  0  0  0
   -1.0663    0.0323    2.6249 N   0  0  0  0  0  0  0  0  0  0  0  0
   -2.3780   -0.0479    2.1416 C   0  0  0  0  0  0  0  0  0  0  0  0
   -2.5692   -0.1662    0.9438 O   0  0  0  0  0  0  0  0  0  0  0  0
   -3.4413   -0.0236    3.1538 C   0  0  0  0  0  0  0  0  0  0  0  0
   -4.6633   -0.7211    2.9249 C   0  0  0  0  0  0  0  0  0  0  0  0
   -5.6093   -0.8210    3.9802 C   0  0  0  0  0  0  0  0  0  0  0  0
   -5.3200   -0.2159    5.1879 C   0  0  0  0  0  0  0  0  0  0  0  0
   -4.1596    0.5431    5.4049 C   0  0  0  0  0  0  0  0  0  0  0  0
   -3.2547    0.6589    4.3559 C   0  0  0  0  0  0  0  0  0  0  0  0
   -3.7920    1.2890    6.9552 S   0  0  0  0  0  0  0  0  0  0  0  0
   -2.2369    0.5430    7.3084 C   0  0  0  0  0  0  0  0  0  0  0  0
   -1.8678    0.0391    8.5488 N   0  0  0  0  0  0  0  0  0  0  0  0
   -0.5588   -0.4206    8.4433 C   0  0  0  0  0  0  0  0  0  0  0  0
   -0.1777   -0.2040    7.1138 C   0  0  0  0  0  0  0  0  0  0  0  0
   -1.2194    0.3897    6.4304 N   0  0  0  0  0  0  0  0  0  0  0  0
   -2.6690    0.0086    9.7561 C   0  0  0  0  0  0  0  0  0  0  0  0
   -6.1864   -0.3520    6.1754 F   0  0  0  0  0  0  0  0  0  0  0  0
   -4.9279   -1.3005    1.7228 N   0  0  0  0  0  0  0  0  0  0  0  0
    2.3090   -0.0011   -0.9096 H   0  0  0  0  0  0  0  0  0  0  0  0
    3.2652   -0.0032    1.5869 H   0  0  0  0  0  0  0  0  0  0  0  0
   -0.8870    0.0663    3.6411 H   0  0  0  0  0  0  0  0  0  0  0  0
   -6.5329   -1.3714    3.8327 H   0  0  0  0  0  0  0  0  0  0  0  0
   -2.3572    1.2893    4.4832 H   0  0  0  0  0  0  0  0  0  0  0  0
   -0.0186   -0.8429    9.2620 H   0  0  0  0  0  0  0  0  0  0  0  0
    0.7522   -0.4288    6.6238 H   0  0  0  0  0  0  0  0  0  0  0  0
   -2.2211   -0.6618   10.5121 H   0  0  0  0  0  0  0  0  0  0  0  0
   -3.6926   -0.3621    9.5452 H   0  0  0  0  0  0  0  0  0  0  0  0
   -2.7552    1.0190   10.2021 H   0  0  0  0  0  0  0  0  0  0  0  0
   -5.7813   -1.7830    1.5486 H   0  0  0  0  0  0  0  0  0  0  0  0
   -4.2856   -1.1732    0.9508 H   0  0  0  0  0  0  0  0  0  0  0  0
  1  5  1  0  0  0  0
  2  1  1  0  0  0  0
  2  3  1  0  0  0  0
  3 25  1  0  0  0  0
  3  4  2  0  0  0  0
  5  4  2  0  0  0  0
  5  6  1  0  0  0  0
  6 26  1  0  0  0  0
  7  6  1  0  0  0  0
  7  9  1  0  0  0  0
  8  7  2  0  0  0  0
  9 14  1  0  0  0  0
 10  9  2  0  0  0  0
 10 11  1  0  0  0  0
 11 12  2  0  0  0  0
 12 13  1  0  0  0  0
 12 22  1  0  0  0  0
 13 15  1  0  0  0  0
 14 28  1  0  0  0  0
 14 13  2  0  0  0  0
 15 16  1  0  0  0  0
 16 17  1  0  0  0  0
 17 21  1  0  0  0  0
 18 17  1  0  0  0  0
 18 29  1  0  0  0  0
 19 18  1  0  0  0  0
 20 19  2  0  0  0  0
 20 16  2  0  0  0  0
 21 33  1  0  0  0  0
 21 31  1  0  0  0  0
 23 10  1  0  0  0  0
 24  2  1  0  0  0  0
 27 11  1  0  0  0  0
 30 19  1  0  0  0  0
 32 21  1  0  0  0  0
 34 23  1  0  0  0  0
 35 23  1  0  0  0  0
M  RAD  2   2   2  18   2
M  END
$$$$
