rmsd82.gzmat
 OpenBabel08211713373D

 35 37  0  0  0  0  0  0  0  0999 V2000
    0.0000    0.0000    0.0000 S   0  0  0  0  0  0  0  0  0  0  0  0
    1.7407    0.0000    0.0000 C   0  0  0  0  0  0  0  0  0  0  0  0
    2.2247    0.0000    1.2780 C   0  0  0  0  0  0  0  0  0  0  0  0
    1.2704   -0.0018    2.2914 N   0  0  0  0  0  0  0  0  0  0  0  0
    0.0388   -0.0005    1.7931 C   0  0  0  0  0  0  0  0  0  0  0  0
   -1.0694    0.0010    2.6216 N   0  0  0  0  0  0  0  0  0  0  0  0
   -2.3769   -0.0478    2.1230 C   0  0  0  0  0  0  0  0  0  0  0  0
   -2.5563   -0.1024    0.9187 O   0  0  0  0  0  0  0  0  0  0  0  0
   -3.4501   -0.0812    3.1242 C   0  0  0  0  0  0  0  0  0  0  0  0
   -4.6559   -0.7924    2.8547 C   0  0  0  0  0  0  0  0  0  0  0  0
   -5.6101   -0.9541    3.8947 C   0  0  0  0  0  0  0  0  0  0  0  0
   -5.3394   -0.4035    5.1324 C   0  0  0  0  0  0  0  0  0  0  0  0
   -4.1921    0.3605    5.3941 C   0  0  0  0  0  0  0  0  0  0  0  0
   -3.2839    0.5472    4.3571 C   0  0  0  0  0  0  0  0  0  0  0  0
   -3.8129    0.9980    6.9894 S   0  0  0  0  0  0  0  0  0  0  0  0
   -2.2896    0.1630    7.2806 C   0  0  0  0  0  0  0  0  0  0  0  0
   -1.9422   -0.4610    8.4712 N   0  0  0  0  0  0  0  0  0  0  0  0
   -0.6646   -0.9889    8.3118 C   0  0  0  0  0  0  0  0  0  0  0  0
   -0.2806   -0.6866    6.9998 C   0  0  0  0  0  0  0  0  0  0  0  0
   -1.2887    0.0240    6.3807 N   0  0  0  0  0  0  0  0  0  0  0  0
   -2.7341   -0.5407    9.6827 C   0  0  0  0  0  0  0  0  0  0  0  0
   -6.2098   -0.6030    6.1056 F   0  0  0  0  0  0  0  0  0  0  0  0
   -4.8971   -1.3316    1.6289 N   0  0  0  0  0  0  0  0  0  0  0  0
    2.3083   -0.0008   -0.9098 H   0  0  0  0  0  0  0  0  0  0  0  0
    3.2653    0.0004    1.5853 H   0  0  0  0  0  0  0  0  0  0  0  0
   -0.8985   -0.0121    3.6400 H   0  0  0  0  0  0  0  0  0  0  0  0
   -6.5238   -1.5106    3.7131 H   0  0  0  0  0  0  0  0  0  0  0  0
   -2.3983    1.1859    4.5209 H   0  0  0  0  0  0  0  0  0  0  0  0
   -0.1457   -1.5094    9.0865 H   0  0  0  0  0  0  0  0  0  0  0  0
    0.6291   -0.9273    6.4801 H   0  0  0  0  0  0  0  0  0  0  0  0
   -2.3056   -1.2748   10.3889 H   0  0  0  0  0  0  0  0  0  0  0  0
   -3.7729   -0.8592    9.4592 H   0  0  0  0  0  0  0  0  0  0  0  0
   -2.7779    0.4411   10.1941 H   0  0  0  0  0  0  0  0  0  0  0  0
   -5.7386   -1.8259    1.4302 H   0  0  0  0  0  0  0  0  0  0  0  0
   -4.2542   -1.1592    0.8675 H   0  0  0  0  0  0  0  0  0  0  0  0
  1  5  1  0  0  0  0
  2  1  1  0  0  0  0
  2  3  1  0  0  0  0
  3 25  1  0  0  0  0
  3  4  2  0  0  0  0
  5  4  2  0  0  0  0
  5  6  1  0  0  0  0
  6 26  1  0  0  0  0
  7  6  1  0  0  0  0
  7  9  1  0  0  0  0
  8  7  2  0  0  0  0
  9 14  1  0  0  0  0
 10  9  2  0  0  0  0
 10 11  1  0  0  0  0
 11 12  2  0  0  0  0
 12 13  1  0  0  0  0
 12 22  1  0  0  0  0
 13 15  1  0  0  0  0
 14 28  1  0  0  0  0
 14 13  2  0  0  0  0
 15 16  1  0  0  0  0
 16 17  1  0  0  0  0
 17 21  1  0  0  0  0
 18 17  1  0  0  0  0
 18 29  1  0  0  0  0
 19 18  1  0  0  0  0
 20 19  2  0  0  0  0
 20 16  2  0  0  0  0
 21 33  1  0  0  0  0
 21 31  1  0  0  0  0
 23 10  1  0  0  0  0
 24  2  1  0  0  0  0
 27 11  1  0  0  0  0
 30 19  1  0  0  0  0
 32 21  1  0  0  0  0
 34 23  1  0  0  0  0
 35 23  1  0  0  0  0
M  RAD  2   2   2  18   2
M  END
$$$$
