rmsd77.gzmat
 OpenBabel08211713373D

 35 37  0  0  0  0  0  0  0  0999 V2000
    0.0000    0.0000    0.0000 S   0  0  0  0  0  0  0  0  0  0  0  0
    1.7406    0.0000    0.0000 C   0  0  0  0  0  0  0  0  0  0  0  0
    2.2244    0.0000    1.2782 C   0  0  0  0  0  0  0  0  0  0  0  0
    1.2697   -0.0018    2.2910 N   0  0  0  0  0  0  0  0  0  0  0  0
    0.0382   -0.0046    1.7927 C   0  0  0  0  0  0  0  0  0  0  0  0
   -1.0690   -0.0266    2.6230 N   0  0  0  0  0  0  0  0  0  0  0  0
   -2.3733    0.1391    2.1405 C   0  0  0  0  0  0  0  0  0  0  0  0
   -2.5535    0.3042    0.9464 O   0  0  0  0  0  0  0  0  0  0  0  0
   -3.4414    0.1431    3.1478 C   0  0  0  0  0  0  0  0  0  0  0  0
   -4.6178    0.9210    2.9382 C   0  0  0  0  0  0  0  0  0  0  0  0
   -5.5653    1.0375    3.9902 C   0  0  0  0  0  0  0  0  0  0  0  0
   -5.3208    0.3757    5.1778 C   0  0  0  0  0  0  0  0  0  0  0  0
   -4.2064   -0.4540    5.3751 C   0  0  0  0  0  0  0  0  0  0  0  0
   -3.3027   -0.5887    4.3269 C   0  0  0  0  0  0  0  0  0  0  0  0
   -3.8836   -1.2614    6.9045 S   0  0  0  0  0  0  0  0  0  0  0  0
   -2.3000   -0.5908    7.2819 C   0  0  0  0  0  0  0  0  0  0  0  0
   -1.9171   -0.1257    8.5331 N   0  0  0  0  0  0  0  0  0  0  0  0
   -0.5921    0.2888    8.4397 C   0  0  0  0  0  0  0  0  0  0  0  0
   -0.2142    0.0844    7.1074 C   0  0  0  0  0  0  0  0  0  0  0  0
   -1.2743   -0.4577    6.4097 N   0  0  0  0  0  0  0  0  0  0  0  0
   -2.7185   -0.0944    9.7400 C   0  0  0  0  0  0  0  0  0  0  0  0
   -6.1867    0.5263    6.1639 F   0  0  0  0  0  0  0  0  0  0  0  0
   -4.8365    1.5621    1.7581 N   0  0  0  0  0  0  0  0  0  0  0  0
    2.3083    0.0044   -0.9102 H   0  0  0  0  0  0  0  0  0  0  0  0
    3.2645    0.0027    1.5865 H   0  0  0  0  0  0  0  0  0  0  0  0
   -0.8936   -0.0960    3.6380 H   0  0  0  0  0  0  0  0  0  0  0  0
   -6.4550    1.6447    3.8569 H   0  0  0  0  0  0  0  0  0  0  0  0
   -2.4442   -1.2742    4.4369 H   0  0  0  0  0  0  0  0  0  0  0  0
   -0.0404    0.6769    9.2672 H   0  0  0  0  0  0  0  0  0  0  0  0
    0.7243    0.2866    6.6235 H   0  0  0  0  0  0  0  0  0  0  0  0
   -2.2599    0.5603   10.5030 H   0  0  0  0  0  0  0  0  0  0  0  0
   -2.8217   -1.1080   10.1751 H   0  0  0  0  0  0  0  0  0  0  0  0
   -3.7358    0.2957    9.5336 H   0  0  0  0  0  0  0  0  0  0  0  0
   -5.6601    2.0982    1.5971 H   0  0  0  0  0  0  0  0  0  0  0  0
   -4.1994    1.4227    0.9839 H   0  0  0  0  0  0  0  0  0  0  0  0
  1  5  1  0  0  0  0
  2  1  1  0  0  0  0
  2  3  1  0  0  0  0
  3 25  1  0  0  0  0
  3  4  2  0  0  0  0
  5  4  2  0  0  0  0
  5  6  1  0  0  0  0
  6 26  1  0  0  0  0
  7  6  1  0  0  0  0
  7  9  1  0  0  0  0
  8  7  2  0  0  0  0
  9 14  1  0  0  0  0
 10  9  2  0  0  0  0
 10 11  1  0  0  0  0
 11 12  2  0  0  0  0
 12 13  1  0  0  0  0
 12 22  1  0  0  0  0
 13 15  1  0  0  0  0
 14 28  1  0  0  0  0
 14 13  2  0  0  0  0
 15 16  1  0  0  0  0
 16 17  1  0  0  0  0
 17 21  1  0  0  0  0
 18 17  1  0  0  0  0
 18 29  1  0  0  0  0
 19 18  1  0  0  0  0
 20 19  2  0  0  0  0
 20 16  2  0  0  0  0
 21 32  1  0  0  0  0
 21 31  1  0  0  0  0
 23 10  1  0  0  0  0
 24  2  1  0  0  0  0
 27 11  1  0  0  0  0
 30 19  1  0  0  0  0
 33 21  1  0  0  0  0
 34 23  1  0  0  0  0
 35 23  1  0  0  0  0
M  RAD  2   2   2  18   2
M  END
$$$$
