rmsd230.gzmat
 OpenBabel08211713373D

 35 37  0  0  0  0  0  0  0  0999 V2000
    0.0000    0.0000    0.0000 S   0  0  0  0  0  0  0  0  0  0  0  0
    1.7408    0.0000    0.0000 C   0  0  0  0  0  0  0  0  0  0  0  0
    2.2250    0.0000    1.2780 C   0  0  0  0  0  0  0  0  0  0  0  0
    1.2710   -0.0042    2.2915 N   0  0  0  0  0  0  0  0  0  0  0  0
    0.0393   -0.0041    1.7934 C   0  0  0  0  0  0  0  0  0  0  0  0
   -1.0686   -0.0102    2.6216 N   0  0  0  0  0  0  0  0  0  0  0  0
   -2.3765   -0.0260    2.1219 C   0  0  0  0  0  0  0  0  0  0  0  0
   -2.5574   -0.0482    0.9164 O   0  0  0  0  0  0  0  0  0  0  0  0
   -3.4475   -0.0714    3.1239 C   0  0  0  0  0  0  0  0  0  0  0  0
   -4.6702   -0.7448    2.8353 C   0  0  0  0  0  0  0  0  0  0  0  0
   -5.6088   -0.9478    3.8824 C   0  0  0  0  0  0  0  0  0  0  0  0
   -5.3068   -0.4706    5.1434 C   0  0  0  0  0  0  0  0  0  0  0  0
   -4.1460    0.2668    5.4252 C   0  0  0  0  0  0  0  0  0  0  0  0
   -3.2578    0.5010    4.3808 C   0  0  0  0  0  0  0  0  0  0  0  0
   -3.7336    0.8213    7.0424 S   0  0  0  0  0  0  0  0  0  0  0  0
   -2.1524    0.0681    7.2442 C   0  0  0  0  0  0  0  0  0  0  0  0
   -1.6835   -0.4645    8.4373 N   0  0  0  0  0  0  0  0  0  0  0  0
   -0.3926   -0.9342    8.2104 C   0  0  0  0  0  0  0  0  0  0  0  0
   -0.1221   -0.6884    6.8599 C   0  0  0  0  0  0  0  0  0  0  0  0
   -1.2120   -0.0689    6.2807 N   0  0  0  0  0  0  0  0  0  0  0  0
   -2.3736   -0.5041    9.7109 C   0  0  0  0  0  0  0  0  0  0  0  0
   -6.1619   -0.7116    6.1207 F   0  0  0  0  0  0  0  0  0  0  0  0
   -4.9403   -1.2013    1.5827 N   0  0  0  0  0  0  0  0  0  0  0  0
    2.3073    0.0000   -0.9102 H   0  0  0  0  0  0  0  0  0  0  0  0
    3.2651    0.0033    1.5863 H   0  0  0  0  0  0  0  0  0  0  0  0
   -0.8973   -0.0473    3.6406 H   0  0  0  0  0  0  0  0  0  0  0  0
   -6.5349   -1.4794    3.6879 H   0  0  0  0  0  0  0  0  0  0  0  0
   -2.3688    1.1326    4.5541 H   0  0  0  0  0  0  0  0  0  0  0  0
    0.2080   -1.3821    8.9710 H   0  0  0  0  0  0  0  0  0  0  0  0
    0.7608   -0.9078    6.2870 H   0  0  0  0  0  0  0  0  0  0  0  0
   -1.8291   -1.1325   10.4389 H   0  0  0  0  0  0  0  0  0  0  0  0
   -3.3923   -0.9275    9.5981 H   0  0  0  0  0  0  0  0  0  0  0  0
   -2.4675    0.5119   10.1429 H   0  0  0  0  0  0  0  0  0  0  0  0
   -5.7902   -1.6720    1.3662 H   0  0  0  0  0  0  0  0  0  0  0  0
   -4.2957   -1.0062    0.8266 H   0  0  0  0  0  0  0  0  0  0  0  0
  1  5  1  0  0  0  0
  2  1  1  0  0  0  0
  2  3  1  0  0  0  0
  3 25  1  0  0  0  0
  3  4  2  0  0  0  0
  5  4  2  0  0  0  0
  5  6  1  0  0  0  0
  6 26  1  0  0  0  0
  7  6  1  0  0  0  0
  7  9  1  0  0  0  0
  8  7  2  0  0  0  0
  9 14  1  0  0  0  0
 10  9  2  0  0  0  0
 10 11  1  0  0  0  0
 11 12  2  0  0  0  0
 12 13  1  0  0  0  0
 12 22  1  0  0  0  0
 13 15  1  0  0  0  0
 14 28  1  0  0  0  0
 14 13  2  0  0  0  0
 15 16  1  0  0  0  0
 16 17  1  0  0  0  0
 17 21  1  0  0  0  0
 18 17  1  0  0  0  0
 18 29  1  0  0  0  0
 19 18  1  0  0  0  0
 20 19  2  0  0  0  0
 20 16  2  0  0  0  0
 21 33  1  0  0  0  0
 21 31  1  0  0  0  0
 23 10  1  0  0  0  0
 24  2  1  0  0  0  0
 27 11  1  0  0  0  0
 30 19  1  0  0  0  0
 32 21  1  0  0  0  0
 34 23  1  0  0  0  0
 35 23  1  0  0  0  0
M  RAD  2   2   2  18   2
M  END
$$$$
