rmsd167.gzmat
 OpenBabel08211713373D

 35 37  0  0  0  0  0  0  0  0999 V2000
    0.0000    0.0000    0.0000 S   0  0  0  0  0  0  0  0  0  0  0  0
    1.7410    0.0000    0.0000 C   0  0  0  0  0  0  0  0  0  0  0  0
    2.2252    0.0000    1.2780 C   0  0  0  0  0  0  0  0  0  0  0  0
    1.2710   -0.0002    2.2913 N   0  0  0  0  0  0  0  0  0  0  0  0
    0.0392    0.0031    1.7928 C   0  0  0  0  0  0  0  0  0  0  0  0
   -1.0676    0.0126    2.6223 N   0  0  0  0  0  0  0  0  0  0  0  0
   -2.3780   -0.0276    2.1295 C   0  0  0  0  0  0  0  0  0  0  0  0
   -2.5661   -0.0857    0.9268 O   0  0  0  0  0  0  0  0  0  0  0  0
   -3.4426   -0.0512    3.1399 C   0  0  0  0  0  0  0  0  0  0  0  0
   -4.6640   -0.7395    2.8813 C   0  0  0  0  0  0  0  0  0  0  0  0
   -5.5950   -0.9149    3.9405 C   0  0  0  0  0  0  0  0  0  0  0  0
   -5.2835   -0.4044    5.1859 C   0  0  0  0  0  0  0  0  0  0  0  0
   -4.1208    0.3395    5.4382 C   0  0  0  0  0  0  0  0  0  0  0  0
   -3.2454    0.5550    4.3796 C   0  0  0  0  0  0  0  0  0  0  0  0
   -3.6720    0.9063    7.0420 S   0  0  0  0  0  0  0  0  0  0  0  0
   -2.1246    0.0811    7.2180 C   0  0  0  0  0  0  0  0  0  0  0  0
   -1.7212   -0.6111    8.3521 N   0  0  0  0  0  0  0  0  0  0  0  0
   -0.4392   -1.0970    8.1149 C   0  0  0  0  0  0  0  0  0  0  0  0
   -0.1081   -0.6997    6.8137 C   0  0  0  0  0  0  0  0  0  0  0  0
   -1.1542    0.0222    6.2765 N   0  0  0  0  0  0  0  0  0  0  0  0
   -2.4747   -0.7983    9.5760 C   0  0  0  0  0  0  0  0  0  0  0  0
   -6.1277   -0.6219    6.1778 F   0  0  0  0  0  0  0  0  0  0  0  0
   -4.9402   -1.2375    1.6460 N   0  0  0  0  0  0  0  0  0  0  0  0
    2.3080    0.0006   -0.9102 H   0  0  0  0  0  0  0  0  0  0  0  0
    3.2657    0.0001    1.5866 H   0  0  0  0  0  0  0  0  0  0  0  0
   -0.8923    0.0019    3.6417 H   0  0  0  0  0  0  0  0  0  0  0  0
   -6.5223   -1.4517    3.7672 H   0  0  0  0  0  0  0  0  0  0  0  0
   -2.3589    1.1962    4.5302 H   0  0  0  0  0  0  0  0  0  0  0  0
    0.1185   -1.6547    8.8348 H   0  0  0  0  0  0  0  0  0  0  0  0
    0.7884   -0.8811    6.2488 H   0  0  0  0  0  0  0  0  0  0  0  0
   -1.9777   -1.5280   10.2406 H   0  0  0  0  0  0  0  0  0  0  0  0
   -3.4931   -1.1808    9.3581 H   0  0  0  0  0  0  0  0  0  0  0  0
   -2.5769    0.1550   10.1318 H   0  0  0  0  0  0  0  0  0  0  0  0
   -5.7890   -1.7206    1.4518 H   0  0  0  0  0  0  0  0  0  0  0  0
   -4.3030   -1.0622    0.8794 H   0  0  0  0  0  0  0  0  0  0  0  0
  1  5  1  0  0  0  0
  2  1  1  0  0  0  0
  2  3  1  0  0  0  0
  3 25  1  0  0  0  0
  3  4  2  0  0  0  0
  5  4  2  0  0  0  0
  5  6  1  0  0  0  0
  6 26  1  0  0  0  0
  7  6  1  0  0  0  0
  7  9  1  0  0  0  0
  8  7  2  0  0  0  0
  9 14  1  0  0  0  0
 10  9  2  0  0  0  0
 10 11  1  0  0  0  0
 11 12  2  0  0  0  0
 12 13  1  0  0  0  0
 12 22  1  0  0  0  0
 13 15  1  0  0  0  0
 14 28  1  0  0  0  0
 14 13  2  0  0  0  0
 15 16  1  0  0  0  0
 16 17  1  0  0  0  0
 17 21  1  0  0  0  0
 18 17  1  0  0  0  0
 18 29  1  0  0  0  0
 19 18  1  0  0  0  0
 20 19  2  0  0  0  0
 20 16  2  0  0  0  0
 21 33  1  0  0  0  0
 21 31  1  0  0  0  0
 23 10  1  0  0  0  0
 24  2  1  0  0  0  0
 27 11  1  0  0  0  0
 30 19  1  0  0  0  0
 32 21  1  0  0  0  0
 34 23  1  0  0  0  0
 35 23  1  0  0  0  0
M  RAD  2   2   2  18   2
M  END
$$$$
