35
rmsd170.gzmat
S          0.00000        0.00000        0.00000
C          1.74100        0.00000        0.00000
C          2.22520        0.00000        1.27810
N          1.27100       -0.00150        2.29150
C          0.03920        0.00030        1.79330
N         -1.06800        0.00320        2.62250
C         -2.37720       -0.04990        2.12840
O         -2.56270       -0.10650        0.92510
C         -3.44390       -0.08960        3.13590
C         -4.65750       -0.78750        2.86670
C         -5.59040       -0.98100        3.92070
C         -5.29220       -0.47230        5.17000
C         -4.13900        0.28240        5.43300
C         -3.25800        0.50920        4.38120
S         -3.71700        0.85350        7.04210
C         -2.15300        0.06430        7.23660
N         -1.72830       -0.57250        8.39460
C         -0.43570       -1.03720        8.16940
C         -0.11830       -0.67960        6.85410
N         -1.18310       -0.00250        6.29530
C         -2.47800       -0.74860        9.62200
F         -6.14200       -0.70120        6.15510
N         -4.92550       -1.27740        1.62630
H          2.30830       -0.00050       -0.91000
H          3.26570        0.00150        1.58630
H         -0.89420       -0.00880        3.64180
H         -6.50910       -1.52960        3.74060
H         -2.37660        1.15500        4.54130
H          0.13820       -1.55310        8.90750
H          0.78190       -0.85860        6.29400
H         -1.96530       -1.45260       10.30210
H         -3.48840       -1.15630        9.41580
H         -2.59950        0.21460       10.15590
H         -5.76890       -1.76700        1.42560
H         -4.28780       -1.08990        0.86290
