rmsd170.gzmat
 OpenBabel08211713373D

 35 37  0  0  0  0  0  0  0  0999 V2000
    0.0000    0.0000    0.0000 S   0  0  0  0  0  0  0  0  0  0  0  0
    1.7410    0.0000    0.0000 C   0  0  0  0  0  0  0  0  0  0  0  0
    2.2252    0.0000    1.2781 C   0  0  0  0  0  0  0  0  0  0  0  0
    1.2710   -0.0015    2.2915 N   0  0  0  0  0  0  0  0  0  0  0  0
    0.0392    0.0003    1.7933 C   0  0  0  0  0  0  0  0  0  0  0  0
   -1.0680    0.0032    2.6225 N   0  0  0  0  0  0  0  0  0  0  0  0
   -2.3772   -0.0499    2.1284 C   0  0  0  0  0  0  0  0  0  0  0  0
   -2.5627   -0.1065    0.9251 O   0  0  0  0  0  0  0  0  0  0  0  0
   -3.4439   -0.0896    3.1359 C   0  0  0  0  0  0  0  0  0  0  0  0
   -4.6575   -0.7875    2.8667 C   0  0  0  0  0  0  0  0  0  0  0  0
   -5.5904   -0.9810    3.9207 C   0  0  0  0  0  0  0  0  0  0  0  0
   -5.2922   -0.4723    5.1700 C   0  0  0  0  0  0  0  0  0  0  0  0
   -4.1390    0.2824    5.4330 C   0  0  0  0  0  0  0  0  0  0  0  0
   -3.2580    0.5092    4.3812 C   0  0  0  0  0  0  0  0  0  0  0  0
   -3.7170    0.8535    7.0421 S   0  0  0  0  0  0  0  0  0  0  0  0
   -2.1530    0.0643    7.2366 C   0  0  0  0  0  0  0  0  0  0  0  0
   -1.7283   -0.5725    8.3946 N   0  0  0  0  0  0  0  0  0  0  0  0
   -0.4357   -1.0372    8.1694 C   0  0  0  0  0  0  0  0  0  0  0  0
   -0.1183   -0.6796    6.8541 C   0  0  0  0  0  0  0  0  0  0  0  0
   -1.1831   -0.0025    6.2953 N   0  0  0  0  0  0  0  0  0  0  0  0
   -2.4780   -0.7486    9.6220 C   0  0  0  0  0  0  0  0  0  0  0  0
   -6.1420   -0.7012    6.1551 F   0  0  0  0  0  0  0  0  0  0  0  0
   -4.9255   -1.2774    1.6263 N   0  0  0  0  0  0  0  0  0  0  0  0
    2.3083   -0.0005   -0.9100 H   0  0  0  0  0  0  0  0  0  0  0  0
    3.2657    0.0015    1.5863 H   0  0  0  0  0  0  0  0  0  0  0  0
   -0.8942   -0.0088    3.6418 H   0  0  0  0  0  0  0  0  0  0  0  0
   -6.5091   -1.5296    3.7406 H   0  0  0  0  0  0  0  0  0  0  0  0
   -2.3766    1.1550    4.5413 H   0  0  0  0  0  0  0  0  0  0  0  0
    0.1382   -1.5531    8.9075 H   0  0  0  0  0  0  0  0  0  0  0  0
    0.7819   -0.8586    6.2940 H   0  0  0  0  0  0  0  0  0  0  0  0
   -1.9653   -1.4526   10.3021 H   0  0  0  0  0  0  0  0  0  0  0  0
   -3.4884   -1.1563    9.4158 H   0  0  0  0  0  0  0  0  0  0  0  0
   -2.5995    0.2146   10.1559 H   0  0  0  0  0  0  0  0  0  0  0  0
   -5.7689   -1.7670    1.4256 H   0  0  0  0  0  0  0  0  0  0  0  0
   -4.2878   -1.0899    0.8629 H   0  0  0  0  0  0  0  0  0  0  0  0
  1  5  1  0  0  0  0
  2  1  1  0  0  0  0
  2  3  1  0  0  0  0
  3 25  1  0  0  0  0
  3  4  2  0  0  0  0
  5  4  2  0  0  0  0
  5  6  1  0  0  0  0
  6 26  1  0  0  0  0
  7  6  1  0  0  0  0
  7  9  1  0  0  0  0
  8  7  2  0  0  0  0
  9 14  1  0  0  0  0
 10  9  2  0  0  0  0
 10 11  1  0  0  0  0
 11 12  2  0  0  0  0
 12 13  1  0  0  0  0
 12 22  1  0  0  0  0
 13 15  1  0  0  0  0
 14 28  1  0  0  0  0
 14 13  2  0  0  0  0
 15 16  1  0  0  0  0
 16 17  1  0  0  0  0
 17 21  1  0  0  0  0
 18 17  1  0  0  0  0
 18 29  1  0  0  0  0
 19 18  1  0  0  0  0
 20 19  2  0  0  0  0
 20 16  2  0  0  0  0
 21 33  1  0  0  0  0
 21 31  1  0  0  0  0
 23 10  1  0  0  0  0
 24  2  1  0  0  0  0
 27 11  1  0  0  0  0
 30 19  1  0  0  0  0
 32 21  1  0  0  0  0
 34 23  1  0  0  0  0
 35 23  1  0  0  0  0
M  RAD  2   2   2  18   2
M  END
$$$$
