35
rmsd179.gzmat
S          0.00000        0.00000        0.00000
C          1.74130        0.00000        0.00000
C          2.22530        0.00000        1.27820
N          1.27110       -0.00110        2.29120
C          0.03880       -0.00430        1.79310
N         -1.06510       -0.01730        2.62620
C         -2.37970        0.00440        2.14290
O         -2.57840        0.06520        0.94230
C         -3.43620       -0.00010        3.16240
C         -4.68080        0.64950        2.91500
C         -5.60860        0.79360        3.98170
C         -5.27160        0.29240        5.22430
C         -4.08280       -0.41170        5.46700
C         -3.20970       -0.59850        4.40090
S         -3.59570       -0.95830        7.06690
C         -2.08920       -0.05600        7.22370
N         -1.72210        0.68300        8.34050
C         -0.47030        1.23490        8.08770
C         -0.11480        0.81730        6.79920
N         -1.12080        0.02620        6.28180
C         -2.49980        0.88920        9.54590
F         -6.11560        0.48070        6.22290
N         -4.98320        1.14060        1.68300
H          2.30930       -0.00130       -0.90960
H          3.26570        0.00010        1.58680
H         -0.88390       -0.00110        3.64500
H         -6.55380        1.30050        3.81640
H         -2.30110       -1.21000        4.54560
H          0.05310        1.84650        8.78920
H          0.77430        1.02810        6.23240
H         -1.99470        1.59590       10.22900
H         -2.64880       -0.06250       10.09260
H         -3.49900        1.30650        9.30470
H         -5.84920        1.59510        1.49630
H         -4.34610        0.98890        0.91110
