35
rmsd82.gzmat
S          0.00000        0.00000        0.00000
C          1.74070        0.00000        0.00000
C          2.22470        0.00000        1.27800
N          1.27040       -0.00180        2.29140
C          0.03880       -0.00050        1.79310
N         -1.06940        0.00100        2.62160
C         -2.37690       -0.04780        2.12300
O         -2.55630       -0.10240        0.91870
C         -3.45010       -0.08120        3.12420
C         -4.65590       -0.79240        2.85470
C         -5.61010       -0.95410        3.89470
C         -5.33940       -0.40350        5.13240
C         -4.19210        0.36050        5.39410
C         -3.28390        0.54720        4.35710
S         -3.81290        0.99800        6.98940
C         -2.28960        0.16300        7.28060
N         -1.94220       -0.46100        8.47120
C         -0.66460       -0.98890        8.31180
C         -0.28060       -0.68660        6.99980
N         -1.28870        0.02400        6.38070
C         -2.73410       -0.54070        9.68270
F         -6.20980       -0.60300        6.10560
N         -4.89710       -1.33160        1.62890
H          2.30830       -0.00080       -0.90980
H          3.26530        0.00040        1.58530
H         -0.89850       -0.01210        3.64000
H         -6.52380       -1.51060        3.71310
H         -2.39830        1.18590        4.52090
H         -0.14570       -1.50940        9.08650
H          0.62910       -0.92730        6.48010
H         -2.30560       -1.27480       10.38890
H         -3.77290       -0.85920        9.45920
H         -2.77790        0.44110       10.19410
H         -5.73860       -1.82590        1.43020
H         -4.25420       -1.15920        0.86750
