rmsd75.gzmat
 OpenBabel08211713373D

 35 37  0  0  0  0  0  0  0  0999 V2000
    0.0000    0.0000    0.0000 S   0  0  0  0  0  0  0  0  0  0  0  0
    1.7409    0.0000    0.0000 C   0  0  0  0  0  0  0  0  0  0  0  0
    2.2251    0.0000    1.2781 C   0  0  0  0  0  0  0  0  0  0  0  0
    1.2708    0.0039    2.2912 N   0  0  0  0  0  0  0  0  0  0  0  0
    0.0391    0.0087    1.7926 C   0  0  0  0  0  0  0  0  0  0  0  0
   -1.0674    0.0308    2.6227 N   0  0  0  0  0  0  0  0  0  0  0  0
   -2.3766   -0.0667    2.1345 C   0  0  0  0  0  0  0  0  0  0  0  0
   -2.5631   -0.1808    0.9355 O   0  0  0  0  0  0  0  0  0  0  0  0
   -3.4421   -0.0724    3.1445 C   0  0  0  0  0  0  0  0  0  0  0  0
   -4.6462   -0.7991    2.9115 C   0  0  0  0  0  0  0  0  0  0  0  0
   -5.5843   -0.9384    3.9697 C   0  0  0  0  0  0  0  0  0  0  0  0
   -5.3000   -0.3513    5.1875 C   0  0  0  0  0  0  0  0  0  0  0  0
   -4.1560    0.4295    5.4109 C   0  0  0  0  0  0  0  0  0  0  0  0
   -3.2677    0.5975    4.3544 C   0  0  0  0  0  0  0  0  0  0  0  0
   -3.7554    1.1147    6.9813 S   0  0  0  0  0  0  0  0  0  0  0  0
   -2.1992    0.3352    7.2515 C   0  0  0  0  0  0  0  0  0  0  0  0
   -1.8280   -0.3050    8.4267 N   0  0  0  0  0  0  0  0  0  0  0  0
   -0.5268   -0.7676    8.2609 C   0  0  0  0  0  0  0  0  0  0  0  0
   -0.1506   -0.4105    6.9600 C   0  0  0  0  0  0  0  0  0  0  0  0
   -1.1894    0.2650    6.3535 N   0  0  0  0  0  0  0  0  0  0  0  0
   -2.6251   -0.4629    9.6267 C   0  0  0  0  0  0  0  0  0  0  0  0
   -6.1539   -0.5295    6.1793 F   0  0  0  0  0  0  0  0  0  0  0  0
   -4.9001   -1.3691    1.7026 N   0  0  0  0  0  0  0  0  0  0  0  0
    2.3088   -0.0029   -0.9098 H   0  0  0  0  0  0  0  0  0  0  0  0
    3.2656   -0.0024    1.5861 H   0  0  0  0  0  0  0  0  0  0  0  0
   -0.8910    0.0630    3.6406 H   0  0  0  0  0  0  0  0  0  0  0  0
   -6.4968   -1.5058    3.8168 H   0  0  0  0  0  0  0  0  0  0  0  0
   -2.3899    1.2553    4.4838 H   0  0  0  0  0  0  0  0  0  0  0  0
    0.0131   -1.2850    9.0233 H   0  0  0  0  0  0  0  0  0  0  0  0
    0.7728   -0.5919    6.4403 H   0  0  0  0  0  0  0  0  0  0  0  0
   -2.1692   -1.2001   10.3121 H   0  0  0  0  0  0  0  0  0  0  0  0
   -3.6456   -0.8213    9.3807 H   0  0  0  0  0  0  0  0  0  0  0  0
   -2.7201    0.4977   10.1704 H   0  0  0  0  0  0  0  0  0  0  0  0
   -5.7389   -1.8760    1.5265 H   0  0  0  0  0  0  0  0  0  0  0  0
   -4.2642   -1.2150    0.9306 H   0  0  0  0  0  0  0  0  0  0  0  0
  1  5  1  0  0  0  0
  2  1  1  0  0  0  0
  2  3  1  0  0  0  0
  3 25  1  0  0  0  0
  3  4  2  0  0  0  0
  5  4  2  0  0  0  0
  5  6  1  0  0  0  0
  6 26  1  0  0  0  0
  7  6  1  0  0  0  0
  7  9  1  0  0  0  0
  8  7  2  0  0  0  0
  9 14  1  0  0  0  0
 10  9  2  0  0  0  0
 10 11  1  0  0  0  0
 11 12  2  0  0  0  0
 12 13  1  0  0  0  0
 12 22  1  0  0  0  0
 13 15  1  0  0  0  0
 14 28  1  0  0  0  0
 14 13  2  0  0  0  0
 15 16  1  0  0  0  0
 16 17  1  0  0  0  0
 17 21  1  0  0  0  0
 18 17  1  0  0  0  0
 18 29  1  0  0  0  0
 19 18  1  0  0  0  0
 20 19  2  0  0  0  0
 20 16  2  0  0  0  0
 21 33  1  0  0  0  0
 21 31  1  0  0  0  0
 23 10  1  0  0  0  0
 24  2  1  0  0  0  0
 27 11  1  0  0  0  0
 30 19  1  0  0  0  0
 32 21  1  0  0  0  0
 34 23  1  0  0  0  0
 35 23  1  0  0  0  0
M  RAD  2   2   2  18   2
M  END
$$$$
