rmsd56.gzmat
 OpenBabel08211713373D

 42 43  0  0  0  0  0  0  0  0999 V2000
    0.0000    0.0000    0.0000 C   0  0  0  0  0  0  0  0  0  0  0  0
    1.5359    0.0000    0.0000 C   0  0  0  0  0  0  0  0  0  0  0  0
    2.1048    0.0000    1.4238 C   0  0  0  0  0  0  0  0  0  0  0  0
    1.9781    1.3651    2.1105 C   0  0  0  0  0  0  0  0  0  0  0  0
    0.5291    1.8595    2.1784 C   0  0  0  0  0  0  0  0  0  0  0  0
    0.0301    2.3769    0.8228 C   0  0  0  0  0  0  0  0  0  0  0  0
   -0.5380    1.3840   -0.1318 N   0  0  0  0  0  0  0  0  0  0  0  0
   -1.9457    1.3355   -0.1143 N   0  0  0  0  0  0  0  0  0  0  0  0
   -2.6753    0.9199    1.0074 C   0  0  0  0  0  0  0  0  0  0  0  0
   -2.1900    0.4217    2.0056 O   0  0  0  0  0  0  0  0  0  0  0  0
   -4.0781    0.9626    0.8876 N   0  0  0  0  0  0  0  0  0  0  0  0
   -5.0103    1.3651   -0.5351 S   0  0  0  0  0  0  0  0  0  0  0  0
   -6.3540    1.5311   -0.0464 O   0  0  0  0  0  0  0  0  0  0  0  0
   -4.2736    2.4288   -1.1827 O   0  0  0  0  0  0  0  0  0  0  0  0
   -4.9081   -0.0744   -1.5152 C   0  0  0  0  0  0  0  0  0  0  0  0
   -5.8787   -1.0700   -1.3966 C   0  0  0  0  0  0  0  0  0  0  0  0
   -5.7730   -2.2397   -2.1426 C   0  0  0  0  0  0  0  0  0  0  0  0
   -4.6962   -2.4209   -3.0166 C   0  0  0  0  0  0  0  0  0  0  0  0
   -3.7371   -1.4119   -3.1490 C   0  0  0  0  0  0  0  0  0  0  0  0
   -3.8438   -0.2426   -2.4022 C   0  0  0  0  0  0  0  0  0  0  0  0
   -4.5760   -3.6738   -3.8113 C   0  0  0  0  0  0  0  0  0  0  0  0
   -0.3799   -0.5626   -0.8838 H   0  0  0  0  0  0  0  0  0  0  0  0
   -0.3862   -0.5269    0.9021 H   0  0  0  0  0  0  0  0  0  0  0  0
    1.9241    0.8620   -0.5748 H   0  0  0  0  0  0  0  0  0  0  0  0
    1.8924   -0.8989   -0.5395 H   0  0  0  0  0  0  0  0  0  0  0  0
    1.5946   -0.7731    2.0316 H   0  0  0  0  0  0  0  0  0  0  0  0
    3.1710   -0.2972    1.3954 H   0  0  0  0  0  0  0  0  0  0  0  0
    2.3880    1.2927    3.1377 H   0  0  0  0  0  0  0  0  0  0  0  0
    2.6096    2.1094    1.5897 H   0  0  0  0  0  0  0  0  0  0  0  0
   -0.1356    1.0518    2.5524 H   0  0  0  0  0  0  0  0  0  0  0  0
    0.4484    2.6677    2.9303 H   0  0  0  0  0  0  0  0  0  0  0  0
   -0.7116    3.1902    0.9829 H   0  0  0  0  0  0  0  0  0  0  0  0
    0.8738    2.8438    0.2600 H   0  0  0  0  0  0  0  0  0  0  0  0
   -2.3303    2.0657   -0.7369 H   0  0  0  0  0  0  0  0  0  0  0  0
   -4.5800    0.7186    1.7472 H   0  0  0  0  0  0  0  0  0  0  0  0
   -6.7340   -0.9456   -0.7215 H   0  0  0  0  0  0  0  0  0  0  0  0
   -6.5272   -3.0168   -2.0424 H   0  0  0  0  0  0  0  0  0  0  0  0
   -2.9025   -1.5424   -3.8344 H   0  0  0  0  0  0  0  0  0  0  0  0
   -3.0773    0.5344   -2.5229 H   0  0  0  0  0  0  0  0  0  0  0  0
   -4.9999   -3.5416   -4.8199 H   0  0  0  0  0  0  0  0  0  0  0  0
   -5.1049   -4.5211   -3.3519 H   0  0  0  0  0  0  0  0  0  0  0  0
   -3.5301   -3.9879   -3.9424 H   0  0  0  0  0  0  0  0  0  0  0  0
  1 23  1  0  0  0  0
  2  1  1  0  0  0  0
  2  3  1  0  0  0  0
  3 26  1  0  0  0  0
  3  4  1  0  0  0  0
  4  5  1  0  0  0  0
  4 28  1  0  0  0  0
  5 30  1  0  0  0  0
  5 31  1  0  0  0  0
  6 32  1  0  0  0  0
  6  5  1  0  0  0  0
  7  8  1  0  0  0  0
  7  1  1  0  0  0  0
  7  6  1  0  0  0  0
  8  9  1  0  0  0  0
  9 10  2  0  0  0  0
 11  9  1  0  0  0  0
 11 35  1  0  0  0  0
 12 13  2  0  0  0  0
 12 11  1  0  0  0  0
 14 12  2  0  0  0  0
 15 16  1  0  0  0  0
 15 12  1  0  0  0  0
 16 36  1  0  0  0  0
 17 37  1  0  0  0  0
 17 16  2  0  0  0  0
 18 17  1  0  0  0  0
 19 18  2  0  0  0  0
 19 20  1  0  0  0  0
 20 15  2  0  0  0  0
 21 41  1  0  0  0  0
 21 18  1  0  0  0  0
 22  1  1  0  0  0  0
 24  2  1  0  0  0  0
 25  2  1  0  0  0  0
 27  3  1  0  0  0  0
 29  4  1  0  0  0  0
 33  6  1  0  0  0  0
 34  8  1  0  0  0  0
 38 19  1  0  0  0  0
 39 20  1  0  0  0  0
 40 21  1  0  0  0  0
 42 21  1  0  0  0  0
M  END
$$$$
