rmsd53.gzmat
 OpenBabel08211713373D

 42 43  0  0  0  0  0  0  0  0999 V2000
    0.0000    0.0000    0.0000 C   0  0  0  0  0  0  0  0  0  0  0  0
    1.5364    0.0000    0.0000 C   0  0  0  0  0  0  0  0  0  0  0  0
    2.1089    0.0000    1.4226 C   0  0  0  0  0  0  0  0  0  0  0  0
    1.9827    1.3647    2.1105 C   0  0  0  0  0  0  0  0  0  0  0  0
    0.5339    1.8597    2.1732 C   0  0  0  0  0  0  0  0  0  0  0  0
    0.0420    2.3782    0.8157 C   0  0  0  0  0  0  0  0  0  0  0  0
   -0.5317    1.3850   -0.1363 N   0  0  0  0  0  0  0  0  0  0  0  0
   -1.9410    1.3581   -0.1208 N   0  0  0  0  0  0  0  0  0  0  0  0
   -2.6671    0.9516    1.0075 C   0  0  0  0  0  0  0  0  0  0  0  0
   -2.1879    0.3686    1.9625 O   0  0  0  0  0  0  0  0  0  0  0  0
   -4.0705    1.0930    0.9556 N   0  0  0  0  0  0  0  0  0  0  0  0
   -5.0302    1.9429   -0.2300 S   0  0  0  0  0  0  0  0  0  0  0  0
   -6.1951    2.3956    0.4844 O   0  0  0  0  0  0  0  0  0  0  0  0
   -4.1077    2.8582   -0.8676 O   0  0  0  0  0  0  0  0  0  0  0  0
   -5.5038    0.7099   -1.3700 C   0  0  0  0  0  0  0  0  0  0  0  0
   -4.5492    0.0760   -2.1660 C   0  0  0  0  0  0  0  0  0  0  0  0
   -4.9397   -0.8965   -3.0818 C   0  0  0  0  0  0  0  0  0  0  0  0
   -6.2881   -1.2432   -3.2071 C   0  0  0  0  0  0  0  0  0  0  0  0
   -7.2429   -0.6034   -2.4097 C   0  0  0  0  0  0  0  0  0  0  0  0
   -6.8513    0.3696   -1.4957 C   0  0  0  0  0  0  0  0  0  0  0  0
   -6.7113   -2.2758   -4.1919 C   0  0  0  0  0  0  0  0  0  0  0  0
   -0.3824   -0.5648   -0.8811 H   0  0  0  0  0  0  0  0  0  0  0  0
   -0.3864   -0.5243    0.9034 H   0  0  0  0  0  0  0  0  0  0  0  0
    1.9234    0.8640   -0.5732 H   0  0  0  0  0  0  0  0  0  0  0  0
    1.8938   -0.8968   -0.5414 H   0  0  0  0  0  0  0  0  0  0  0  0
    1.6023   -0.7735    2.0322 H   0  0  0  0  0  0  0  0  0  0  0  0
    3.1754   -0.2958    1.3915 H   0  0  0  0  0  0  0  0  0  0  0  0
    2.3898    1.2918    3.1388 H   0  0  0  0  0  0  0  0  0  0  0  0
    2.6160    2.1087    1.5914 H   0  0  0  0  0  0  0  0  0  0  0  0
   -0.1338    1.0526    2.5424 H   0  0  0  0  0  0  0  0  0  0  0  0
    0.4501    2.6664    2.9261 H   0  0  0  0  0  0  0  0  0  0  0  0
   -0.6951    3.1963    0.9730 H   0  0  0  0  0  0  0  0  0  0  0  0
    0.8887    2.8400    0.2538 H   0  0  0  0  0  0  0  0  0  0  0  0
   -2.3041    2.1291   -0.7108 H   0  0  0  0  0  0  0  0  0  0  0  0
   -4.5421    0.7735    1.8103 H   0  0  0  0  0  0  0  0  0  0  0  0
   -3.4839    0.3276   -2.0868 H   0  0  0  0  0  0  0  0  0  0  0  0
   -4.1929   -1.3866   -3.7021 H   0  0  0  0  0  0  0  0  0  0  0  0
   -8.2934   -0.8683   -2.5032 H   0  0  0  0  0  0  0  0  0  0  0  0
   -7.6170    0.8603   -0.8806 H   0  0  0  0  0  0  0  0  0  0  0  0
   -7.0186   -1.8088   -5.1420 H   0  0  0  0  0  0  0  0  0  0  0  0
   -7.5666   -2.8680   -3.8354 H   0  0  0  0  0  0  0  0  0  0  0  0
   -5.9101   -2.9891   -4.4318 H   0  0  0  0  0  0  0  0  0  0  0  0
  1 23  1  0  0  0  0
  2  1  1  0  0  0  0
  2  3  1  0  0  0  0
  3 26  1  0  0  0  0
  3  4  1  0  0  0  0
  4  5  1  0  0  0  0
  4 28  1  0  0  0  0
  5 30  1  0  0  0  0
  5 31  1  0  0  0  0
  6 32  1  0  0  0  0
  6  5  1  0  0  0  0
  7  8  1  0  0  0  0
  7  1  1  0  0  0  0
  7  6  1  0  0  0  0
  8  9  1  0  0  0  0
  9 10  2  0  0  0  0
 11  9  1  0  0  0  0
 11 35  1  0  0  0  0
 12 13  2  0  0  0  0
 12 11  1  0  0  0  0
 14 12  2  0  0  0  0
 15 12  1  0  0  0  0
 16 36  1  0  0  0  0
 16 15  2  0  0  0  0
 17 16  1  0  0  0  0
 18 17  2  0  0  0  0
 18 19  1  0  0  0  0
 19 20  2  0  0  0  0
 20 15  1  0  0  0  0
 20 39  1  0  0  0  0
 21 41  1  0  0  0  0
 21 18  1  0  0  0  0
 22  1  1  0  0  0  0
 24  2  1  0  0  0  0
 25  2  1  0  0  0  0
 27  3  1  0  0  0  0
 29  4  1  0  0  0  0
 33  6  1  0  0  0  0
 34  8  1  0  0  0  0
 37 17  1  0  0  0  0
 38 19  1  0  0  0  0
 40 21  1  0  0  0  0
 42 21  1  0  0  0  0
M  END
$$$$
