42
rmsd53.gzmat
C          0.00000        0.00000        0.00000
C          1.53640        0.00000        0.00000
C          2.10890        0.00000        1.42260
C          1.98270        1.36470        2.11050
C          0.53390        1.85970        2.17320
C          0.04200        2.37820        0.81570
N         -0.53170        1.38500       -0.13630
N         -1.94100        1.35810       -0.12080
C         -2.66710        0.95160        1.00750
O         -2.18790        0.36860        1.96250
N         -4.07050        1.09300        0.95560
S         -5.03020        1.94290       -0.23000
O         -6.19510        2.39560        0.48440
O         -4.10770        2.85820       -0.86760
C         -5.50380        0.70990       -1.37000
C         -4.54920        0.07600       -2.16600
C         -4.93970       -0.89650       -3.08180
C         -6.28810       -1.24320       -3.20710
C         -7.24290       -0.60340       -2.40970
C         -6.85130        0.36960       -1.49570
C         -6.71130       -2.27580       -4.19190
H         -0.38240       -0.56480       -0.88110
H         -0.38640       -0.52430        0.90340
H          1.92340        0.86400       -0.57320
H          1.89380       -0.89680       -0.54140
H          1.60230       -0.77350        2.03220
H          3.17540       -0.29580        1.39150
H          2.38980        1.29180        3.13880
H          2.61600        2.10870        1.59140
H         -0.13380        1.05260        2.54240
H          0.45010        2.66640        2.92610
H         -0.69510        3.19630        0.97300
H          0.88870        2.84000        0.25380
H         -2.30410        2.12910       -0.71080
H         -4.54210        0.77350        1.81030
H         -3.48390        0.32760       -2.08680
H         -4.19290       -1.38660       -3.70210
H         -8.29340       -0.86830       -2.50320
H         -7.61700        0.86030       -0.88060
H         -7.01860       -1.80880       -5.14200
H         -7.56660       -2.86800       -3.83540
H         -5.91010       -2.98910       -4.43180
