
     RDKit          3D

 42 43  0  0  0  0  0  0  0  0999 V2000
   -0.0225   -0.0052    0.0016 C   0  0  0  0  0  0  0  0  0  0  0  0
    1.4744    0.1696    0.2618 C   0  0  0  0  0  0  0  0  0  0  0  0
    1.8450    0.4651    1.7214 C   0  0  0  0  0  0  0  0  0  0  0  0
    1.5024    1.8708    2.2196 C   0  0  0  0  0  0  0  0  0  0  0  0
    0.0369    2.2808    2.0499 C   0  0  0  0  0  0  0  0  0  0  0  0
   -0.3876    2.4515    0.5827 C   0  0  0  0  0  0  0  0  0  0  0  0
   -0.7568    1.2499   -0.1700 N   0  0  0  0  0  0  0  0  0  0  0  0
   -2.1182    1.0575   -0.3340 N   0  0  0  0  0  0  0  0  0  0  0  0
   -2.9328    0.6216    0.6701 C   0  0  0  0  0  0  0  0  0  0  0  0
   -2.5906    0.3494    1.8032 O   0  0  0  0  0  0  0  0  0  0  0  0
   -4.2952    0.5000    0.2916 N   0  0  0  0  0  0  0  0  0  0  0  0
   -5.1167    1.4596   -0.8413 S   0  0  0  0  0  0  0  0  0  0  0  0
   -4.3575    1.3841   -2.0926 O   0  0  0  0  0  0  0  0  0  0  0  0
   -6.5075    1.0327   -0.7422 O   0  0  0  0  0  0  0  0  0  0  0  0
   -4.9716    3.1214   -0.2103 C   0  0  0  0  0  0  0  0  0  0  0  0
   -5.8798    3.5565    0.7602 C   0  0  0  0  0  0  0  0  0  0  0  0
   -5.7316    4.8319    1.2970 C   0  0  0  0  0  0  0  0  0  0  0  0
   -4.6912    5.6817    0.8795 C   0  0  0  0  0  0  0  0  0  0  0  0
   -3.8064    5.2208   -0.1064 C   0  0  0  0  0  0  0  0  0  0  0  0
   -3.9390    3.9456   -0.6587 C   0  0  0  0  0  0  0  0  0  0  0  0
   -4.5437    7.0537    1.4822 C   0  0  0  0  0  0  0  0  0  0  0  0
   -0.1621   -0.5834   -0.9280 H   0  0  0  0  0  0  0  0  0  0  0  0
   -0.4546   -0.6082    0.8233 H   0  0  0  0  0  0  0  0  0  0  0  0
    1.8876    0.9389   -0.4140 H   0  0  0  0  0  0  0  0  0  0  0  0
    1.9583   -0.7771   -0.0291 H   0  0  0  0  0  0  0  0  0  0  0  0
    1.3392   -0.2799    2.3617 H   0  0  0  0  0  0  0  0  0  0  0  0
    2.9275    0.2984    1.8553 H   0  0  0  0  0  0  0  0  0  0  0  0
    1.7816    1.9446    3.2845 H   0  0  0  0  0  0  0  0  0  0  0  0
    2.1357    2.6059    1.6877 H   0  0  0  0  0  0  0  0  0  0  0  0
   -0.6387    1.5642    2.5416 H   0  0  0  0  0  0  0  0  0  0  0  0
   -0.1102    3.2534    2.5507 H   0  0  0  0  0  0  0  0  0  0  0  0
   -1.2626    3.1137    0.5239 H   0  0  0  0  0  0  0  0  0  0  0  0
    0.4265    2.9731    0.0438 H   0  0  0  0  0  0  0  0  0  0  0  0
   -2.4889    1.0871   -1.2830 H   0  0  0  0  0  0  0  0  0  0  0  0
   -4.8924    0.1970    1.0585 H   0  0  0  0  0  0  0  0  0  0  0  0
   -6.6950    2.9023    1.0739 H   0  0  0  0  0  0  0  0  0  0  0  0
   -6.4393    5.1806    2.0536 H   0  0  0  0  0  0  0  0  0  0  0  0
   -3.0005    5.8721   -0.4532 H   0  0  0  0  0  0  0  0  0  0  0  0
   -3.2587    3.5941   -1.4338 H   0  0  0  0  0  0  0  0  0  0  0  0
   -5.4674    7.6419    1.3585 H   0  0  0  0  0  0  0  0  0  0  0  0
   -3.7181    7.6134    1.0205 H   0  0  0  0  0  0  0  0  0  0  0  0
   -4.3463    6.9879    2.5649 H   0  0  0  0  0  0  0  0  0  0  0  0
  1  2  1  0
  1  7  1  0
  1 22  1  0
  1 23  1  0
  2  3  1  0
  2 24  1  0
  2 25  1  0
  3  4  1  0
  3 26  1  0
  3 27  1  0
  4  5  1  0
  4 28  1  0
  4 29  1  0
  5  6  1  0
  5 30  1  0
  5 31  1  0
  6  7  1  0
  6 32  1  0
  6 33  1  0
  7  8  1  0
  8  9  1  0
  8 34  1  0
  9 10  2  0
  9 11  1  0
 12 11  1  0
 11 35  1  0
 12 13  2  0
 12 14  2  0
 12 15  1  0
 15 16  2  0
 15 20  1  0
 16 17  1  0
 16 36  1  0
 17 18  2  0
 17 37  1  0
 18 19  1  0
 18 21  1  0
 19 20  2  0
 19 38  1  0
 20 39  1  0
 21 40  1  0
 21 41  1  0
 21 42  1  0
M  END

