42

C         -0.28290       -0.19040        0.35160
C          1.24770       -0.20450        0.39390
C          1.88110        0.52940        1.57900
C          1.38960        1.96420        1.81420
C         -0.08150        2.03660        2.25250
C         -1.11360        2.05830        1.12400
N         -0.79770        1.14510        0.02600
N         -1.75570        1.17910       -0.97330
C         -3.00550        0.66350       -0.78900
O         -3.37900        0.05920        0.19500
N         -3.88690        0.87640       -1.88000
S         -3.88920        2.20530       -2.93350
O         -2.53170        2.31940       -3.47470
O         -5.05590        1.99740       -3.78320
C         -4.18020        3.61610       -1.88250
C         -5.49610        3.94100       -1.53710
C         -5.72080        5.00770       -0.67190
C         -4.65240        5.75760       -0.14720
C         -3.34590        5.41460       -0.52430
C         -3.09960        4.34910       -1.39170
C         -4.91960        6.90590        0.78990
H         -0.62450       -0.86610       -0.44430
H         -0.71910       -0.57910        1.29070
H          1.60470        0.24030       -0.55090
H          1.59160       -1.25360        0.40230
H          1.69430       -0.05010        2.50200
H          2.97610        0.53660        1.44380
H          2.01560        2.41410        2.60260
H          1.54440        2.57570        0.90790
H         -0.28880        1.19380        2.93340
H         -0.25210        2.94600        2.85190
H         -2.11380        1.84540        1.54940
H         -1.15720        3.07110        0.68780
H         -1.48540        1.52790       -1.89100
H         -4.81620        0.49120       -1.72290
H         -6.32530        3.36820       -1.95560
H         -6.74630        5.26970       -0.39910
H         -2.50430        5.99320       -0.13600
H         -2.08500        4.09230       -1.69450
H         -5.53920        7.67660        0.30270
H         -3.98720        7.38140        1.12530
H         -5.47040        6.56660        1.68230
