42
rmsd132.gzmat
C          0.00000        0.00000        0.00000
C          1.53840        0.00000        0.00000
C          2.12550        0.00000        1.41470
C          1.68330        1.22990        2.21950
C          0.20400        1.14770        2.61730
C         -0.74160        1.78880        1.59060
N         -0.44380        1.41610        0.17340
N         -1.57810        1.72350       -0.61110
C         -2.72140        0.90600       -0.55260
O         -2.88110        0.03510        0.28240
N         -3.77770        1.21920       -1.42630
S         -3.79720        2.43120       -2.68650
O         -2.41910        2.55320       -3.10880
O         -4.84820        2.01040       -3.57580
C         -4.27860        3.89430       -1.86880
C         -3.35720        4.60730       -1.10040
C         -3.74680        5.77320       -0.44890
C         -5.05980        6.23960       -0.56720
C         -5.97880        5.52650       -1.34290
C         -5.58880        4.35790       -1.99050
C         -5.46490        7.49680        0.11920
H         -0.36840       -0.39750       -0.97010
H         -0.40950       -0.67680        0.77780
H          1.90470        0.88520       -0.55960
H          1.90150       -0.88390       -0.55730
H          1.83700       -0.92520        1.94800
H          3.23070       -0.02210        1.35180
H          2.30880        1.32020        3.12670
H          1.86700        2.14950        1.63100
H         -0.08430        0.09220        2.79260
H          0.04940        1.65580        3.58970
H         -1.79340        1.54890        1.87200
H         -0.64320        2.89870        1.62670
H         -1.27510        2.11030       -1.52150
H         -4.57860        0.58210       -1.35630
H         -2.31890        4.26670       -0.99550
H         -3.02780        6.32350        0.15390
H         -7.00060        5.88560       -1.44080
H         -6.32410        3.81570       -2.59890
H         -6.55510        7.62670        0.16990
H         -5.06360        8.37780       -0.40740
H         -5.09050        7.54280        1.15280
