42
rmsd225.gzmat
C          0.00000        0.00000        0.00000
C          1.53590        0.00000        0.00000
C          2.10690        0.00000        1.42310
C          1.98080        1.36610        2.10850
C          0.53070        1.85840        2.17410
C          0.03330        2.37730        0.81860
N         -0.53650        1.38470       -0.13550
N         -1.94430        1.33620       -0.11430
C         -2.67270        0.93550        1.01210
O         -2.18760        0.45780        2.02020
N         -4.07510        0.97450        0.88710
S         -4.99480        1.26070       -0.57200
O         -6.35770        1.34670       -0.11840
O         -4.31940        2.34810       -1.24590
C         -4.75240       -0.20190       -1.49180
C         -5.51340       -1.33910       -1.21520
C         -5.27660       -2.52090       -1.90890
C         -4.28020       -2.57250       -2.89040
C         -3.53540       -1.42650       -3.17990
C         -3.77230       -0.24460       -2.48310
C         -4.01440       -3.84890       -3.60860
H         -0.38060       -0.56540       -0.88180
H         -0.38710       -0.52330        0.90380
H          1.92290        0.86380       -0.57330
H          1.89280       -0.89720       -0.54120
H          1.59760       -0.77100        2.03410
H          3.17220       -0.29930        1.39290
H          2.38810        1.29440        3.13660
H          2.61090        2.11120        1.58690
H         -0.13320        1.04900        2.54550
H          0.44560        2.66340        2.92850
H         -0.70710        3.19170        0.97800
H          0.87810        2.84240        0.25610
H         -2.33230        2.04450       -0.75720
H         -4.58150        0.75990        1.75130
H         -6.30290       -1.31820       -0.45550
H         -5.86330       -3.40890       -1.68570
H         -2.76390       -1.45580       -3.94590
H         -3.17200        0.64230       -2.72550
H         -3.32890       -3.73000       -4.45900
H         -4.93820       -4.29650       -4.00450
H         -3.56000       -4.59350       -2.93520
