42
rmsd56.gzmat
C          0.00000        0.00000        0.00000
C          1.53590        0.00000        0.00000
C          2.10480        0.00000        1.42380
C          1.97810        1.36510        2.11050
C          0.52910        1.85950        2.17840
C          0.03010        2.37690        0.82280
N         -0.53800        1.38400       -0.13180
N         -1.94570        1.33550       -0.11430
C         -2.67530        0.91990        1.00740
O         -2.19000        0.42170        2.00560
N         -4.07810        0.96260        0.88760
S         -5.01030        1.36510       -0.53510
O         -6.35400        1.53110       -0.04640
O         -4.27360        2.42880       -1.18270
C         -4.90810       -0.07440       -1.51520
C         -5.87870       -1.07000       -1.39660
C         -5.77300       -2.23970       -2.14260
C         -4.69620       -2.42090       -3.01660
C         -3.73710       -1.41190       -3.14900
C         -3.84380       -0.24260       -2.40220
C         -4.57600       -3.67380       -3.81130
H         -0.37990       -0.56260       -0.88380
H         -0.38620       -0.52690        0.90210
H          1.92410        0.86200       -0.57480
H          1.89240       -0.89890       -0.53950
H          1.59460       -0.77310        2.03160
H          3.17100       -0.29720        1.39540
H          2.38800        1.29270        3.13770
H          2.60960        2.10940        1.58970
H         -0.13560        1.05180        2.55240
H          0.44840        2.66770        2.93030
H         -0.71160        3.19020        0.98290
H          0.87380        2.84380        0.26000
H         -2.33030        2.06570       -0.73690
H         -4.58000        0.71860        1.74720
H         -6.73400       -0.94560       -0.72150
H         -6.52720       -3.01680       -2.04240
H         -2.90250       -1.54240       -3.83440
H         -3.07730        0.53440       -2.52290
H         -4.99990       -3.54160       -4.81990
H         -5.10490       -4.52110       -3.35190
H         -3.53010       -3.98790       -3.94240
