42
rmsd38.gzmat
C          0.00000        0.00000        0.00000
C          1.53590        0.00000        0.00000
C          2.10740        0.00000        1.42310
C          1.96020        1.35620        2.12410
C          0.50520        1.83300        2.18830
C          0.01470        2.36900        0.83650
N         -0.53170        1.38680       -0.13790
N         -1.94210        1.41660       -0.12460
C         -2.69370        0.82460        0.89860
O         -2.22820        0.38590        1.93380
N         -4.09430        0.85940        0.75190
S         -5.02090        1.58310       -0.54100
O         -4.19250        1.45380       -1.71990
O         -6.32330        0.97820       -0.43800
C         -5.12270        3.26420       -0.08600
C         -6.29390        3.75670        0.49140
C         -6.37420        5.09110        0.87620
C         -5.28160        5.94430        0.68720
C         -4.11350        5.45030        0.09960
C         -4.03630        4.11610       -0.28950
C         -5.37290        7.37200        1.09770
H         -0.37840       -0.56830       -0.87990
H         -0.38170       -0.52010        0.90820
H          1.92200        0.86440       -0.57280
H          1.89380       -0.89770       -0.54130
H          1.61360       -0.78640        2.02720
H          3.17870       -0.27810        1.38830
H          2.36560        1.27890        3.15260
H          2.58490        2.11310        1.61390
H         -0.15780        1.01400        2.54010
H          0.40610        2.62500        2.95380
H         -0.74070        3.16920        1.00440
H          0.85820        2.85080        0.28730
H         -2.29680        1.40160       -1.09730
H         -4.60220        0.36420        1.49240
H         -7.16380        3.10580        0.64480
H         -7.28800        5.47230        1.32600
H         -3.26160        6.10850       -0.05480
H         -3.10930        3.75390       -0.75240
H         -5.87770        7.97120        0.32250
H         -4.38830        7.83090        1.26550
H         -5.94650        7.50440        2.02690
