
     RDKit          3D

 42 43  0  0  0  0  0  0  0  0999 V2000
   -0.8710    0.3969   -0.4332 C   0  0  0  0  0  0  0  0  0  0  0  0
    0.5424   -0.1736   -0.5581 C   0  0  0  0  0  0  0  0  0  0  0  0
    1.1356   -0.7187    0.7476 C   0  0  0  0  0  0  0  0  0  0  0  0
    1.5485    0.3362    1.7760 C   0  0  0  0  0  0  0  0  0  0  0  0
    0.4465    1.3222    2.1735 C   0  0  0  0  0  0  0  0  0  0  0  0
    0.0309    2.2719    1.0397 C   0  0  0  0  0  0  0  0  0  0  0  0
   -0.9269    1.7783    0.0435 N   0  0  0  0  0  0  0  0  0  0  0  0
   -2.2272    2.2283    0.1957 N   0  0  0  0  0  0  0  0  0  0  0  0
   -3.0792    1.7362    1.1395 C   0  0  0  0  0  0  0  0  0  0  0  0
   -2.7900    0.9657    2.0329 O   0  0  0  0  0  0  0  0  0  0  0  0
   -4.4102    2.2142    1.0165 N   0  0  0  0  0  0  0  0  0  0  0  0
   -5.2203    2.5875   -0.4265 S   0  0  0  0  0  0  0  0  0  0  0  0
   -6.5867    2.8836   -0.0121 O   0  0  0  0  0  0  0  0  0  0  0  0
   -4.3873    3.5574   -1.1434 O   0  0  0  0  0  0  0  0  0  0  0  0
   -5.2108    1.0659   -1.3563 C   0  0  0  0  0  0  0  0  0  0  0  0
   -4.2245    0.8490   -2.3183 C   0  0  0  0  0  0  0  0  0  0  0  0
   -4.1992   -0.3721   -2.9946 C   0  0  0  0  0  0  0  0  0  0  0  0
   -5.1449   -1.3717   -2.7249 C   0  0  0  0  0  0  0  0  0  0  0  0
   -6.1360   -1.1149   -1.7597 C   0  0  0  0  0  0  0  0  0  0  0  0
   -6.1780    0.0954   -1.0745 C   0  0  0  0  0  0  0  0  0  0  0  0
   -5.1159   -2.6914   -3.4497 C   0  0  0  0  0  0  0  0  0  0  0  0
   -1.3560    0.3827   -1.4239 H   0  0  0  0  0  0  0  0  0  0  0  0
   -1.4636   -0.2757    0.2183 H   0  0  0  0  0  0  0  0  0  0  0  0
    1.2122    0.5772   -1.0129 H   0  0  0  0  0  0  0  0  0  0  0  0
    0.4855   -1.0038   -1.2812 H   0  0  0  0  0  0  0  0  0  0  0  0
    0.3942   -1.3995    1.2036 H   0  0  0  0  0  0  0  0  0  0  0  0
    2.0147   -1.3410    0.5075 H   0  0  0  0  0  0  0  0  0  0  0  0
    1.9206   -0.1789    2.6780 H   0  0  0  0  0  0  0  0  0  0  0  0
    2.4066    0.9103    1.3782 H   0  0  0  0  0  0  0  0  0  0  0  0
   -0.4450    0.7988    2.5512 H   0  0  0  0  0  0  0  0  0  0  0  0
    0.8237    1.9459    3.0020 H   0  0  0  0  0  0  0  0  0  0  0  0
   -0.4284    3.1769    1.4611 H   0  0  0  0  0  0  0  0  0  0  0  0
    0.9439    2.6101    0.5142 H   0  0  0  0  0  0  0  0  0  0  0  0
   -2.5563    2.9609   -0.4314 H   0  0  0  0  0  0  0  0  0  0  0  0
   -5.0313    1.8420    1.7323 H   0  0  0  0  0  0  0  0  0  0  0  0
   -3.4977    1.6305   -2.5380 H   0  0  0  0  0  0  0  0  0  0  0  0
   -3.4296   -0.5490   -3.7498 H   0  0  0  0  0  0  0  0  0  0  0  0
   -6.8894   -1.8778   -1.5471 H   0  0  0  0  0  0  0  0  0  0  0  0
   -6.9554    0.3000   -0.3365 H   0  0  0  0  0  0  0  0  0  0  0  0
   -6.0585   -2.8637   -3.9945 H   0  0  0  0  0  0  0  0  0  0  0  0
   -4.9961   -3.5272   -2.7411 H   0  0  0  0  0  0  0  0  0  0  0  0
   -4.2905   -2.7386   -4.1740 H   0  0  0  0  0  0  0  0  0  0  0  0
  1  2  1  0
  1  7  1  0
  1 22  1  0
  1 23  1  0
  2  3  1  0
  2 24  1  0
  2 25  1  0
  3  4  1  0
  3 26  1  0
  3 27  1  0
  4  5  1  0
  4 28  1  0
  4 29  1  0
  5  6  1  0
  5 30  1  0
  5 31  1  0
  6  7  1  0
  6 32  1  0
  6 33  1  0
  7  8  1  0
  8  9  1  0
  8 34  1  0
  9 10  2  0
  9 11  1  0
 12 11  1  0
 11 35  1  0
 12 13  2  0
 12 14  2  0
 12 15  1  0
 15 16  2  0
 15 20  1  0
 16 17  1  0
 16 36  1  0
 17 18  2  0
 17 37  1  0
 18 19  1  0
 18 21  1  0
 19 20  2  0
 19 38  1  0
 20 39  1  0
 21 40  1  0
 21 41  1  0
 21 42  1  0
M  END

