42
rmsd19.gzmat
C          0.00000        0.00000        0.00000
C          1.53590        0.00000        0.00000
C          2.10350        0.00000        1.42410
C          1.95370        1.35870        2.11930
C          0.49870        1.83700        2.18410
C          0.00670        2.37270        0.83300
N         -0.52320        1.38730       -0.15190
N         -1.92970        1.34680       -0.19800
C         -2.71050        0.90670        0.88120
O         -2.26900        0.42210        1.90570
N         -4.10120        0.90020        0.66480
S         -4.93330        1.29070       -0.82340
O         -6.32510        1.29410       -0.45720
O         -4.25300        2.45640       -1.34480
C         -4.58240       -0.06550       -1.86280
C         -5.35170       -1.22670       -1.78750
C         -5.03660       -2.32490       -2.58250
C         -3.95100       -2.26730       -3.46150
C         -3.19540       -1.09350       -3.55090
C         -3.51210        0.00400       -2.75710
C         -3.58710       -3.44440       -4.29700
H         -0.38250       -0.57680       -0.87310
H         -0.38970       -0.51030        0.91000
H          1.92110        0.86570       -0.57260
H          1.89510       -0.89560       -0.54220
H          1.60700       -0.78530        2.02720
H          3.17470       -0.27870        1.39380
H          2.36030        1.28470        3.14740
H          2.57700        2.11420        1.60440
H         -0.16450        1.02030        2.53990
H          0.40540        2.63340        2.94750
H         -0.75570        3.16410        1.00260
H          0.84750        2.87040        0.29300
H         -2.28450        2.09720       -0.81250
H         -4.65660        0.62740        1.48090
H         -6.21140       -1.29150       -1.11050
H         -5.63460       -3.23080       -2.51570
H         -2.35360       -1.03970       -4.23800
H         -2.90530        0.91480       -2.84680
H         -3.52900       -3.18420       -5.36500
H         -4.30340       -4.27310       -4.21130
H         -2.60110       -3.84410       -4.01040
