44
rmsd142.gzmat
S          0.00000        0.00000        0.00000
O          1.43880        0.00000        0.00000
O         -0.77150        0.00000       -1.21620
N         -0.56100        1.45160        0.81160
C         -0.13340        1.97370        2.01340
C         -0.83670        3.04260        2.63910
C         -1.98700        3.70720        2.04860
O         -2.40220        4.76300        2.79980
C         -3.48950        5.57010        2.42390
O         -3.71870        6.45910        3.19130
C         -4.15390        5.20030        1.18860
C         -3.67370        4.08850        0.47050
N         -2.58120        3.36600        0.93490
C         -4.30130        3.69800       -0.72780
C         -5.38900        4.42330       -1.18210
C         -5.86580        5.53550       -0.46960
C         -5.25320        5.92440        0.71040
C         -0.40980        3.49790        3.90310
C          0.67930        2.93900        4.54140
C          1.39570        1.91410        3.90610
C          1.01000        1.44510        2.66800
C         -0.55440       -1.27180        1.06340
C         -1.90740       -1.60780        1.10530
C         -2.34960       -2.60800        1.96580
C         -1.44040       -3.28290        2.78660
C         -0.08340       -2.94910        2.73440
C          0.35680       -1.94830        1.87400
C         -1.91630       -4.33930        3.72090
H         -1.33380        1.95840        0.33870
H         -3.91800        2.83590       -1.27420
H         -5.88700        4.13080       -2.10820
H         -6.72060        6.09020       -0.85110
H         -5.61430        6.78810        1.27510
H         -0.95620        4.31350        4.39300
H          0.99010        3.29380        5.51940
H          2.27260        1.49110        4.39900
H          1.62470        0.68780        2.18110
H         -2.63610       -1.09820        0.46390
H         -3.40600       -2.86500        2.00010
H          0.63000       -3.47120        3.36810
H          1.42680       -1.70830        1.84380
H         -1.15390       -5.10670        3.91650
H         -2.80630       -4.86450        3.34590
H         -2.18900       -3.90360        4.69640
