44
rmsd152.gzmat
S          0.00000        0.00000        0.00000
O          1.44020        0.00000        0.00000
O         -0.76870        0.00000       -1.21730
N         -0.39880        1.44230        0.91850
C         -1.66920        1.86470        1.26570
C         -1.90080        2.59800        2.46140
C         -0.85850        2.91080        3.42630
O         -1.37500        3.43860        4.56910
C         -0.56530        3.81970        5.65210
O         -1.17720        4.26030        6.58110
C          0.86030        3.61740        5.47590
C          1.31930        3.05790        4.26790
N          0.42330        2.71630        3.26100
C          2.69610        2.84290        4.06830
C          3.58190        3.19420        5.07210
C          3.12610        3.75680        6.27510
C          1.77220        3.96790        6.47910
C         -3.20840        3.03150        2.75900
C         -4.26930        2.73810        1.92540
C         -4.04040        2.00760        0.75010
C         -2.77090        1.58200        0.41930
C         -0.60280       -1.26230        1.04870
C         -1.81200       -1.89390        0.76000
C         -2.31070       -2.87010        1.61770
C         -1.59880       -3.22510        2.76740
C         -0.37950       -2.59850        3.04590
C          0.11560       -1.62030        2.18980
C         -2.13880       -4.24970        3.70240
H          0.38330        1.87520        1.44170
H          3.03740        2.40830        3.12840
H          4.65210        3.03430        4.93110
H          3.84430        4.02760        7.04650
H          1.40390        4.40560        7.41090
H         -3.38720        3.61050        3.67300
H         -5.27330        3.07300        2.16980
H         -4.87790        1.78580        0.08660
H         -2.61500        1.06250       -0.53010
H         -2.38250       -1.63470       -0.14020
H         -3.25780       -3.35500        1.39320
H          0.18180       -2.87470        3.93570
H          1.07290       -1.14140        2.42730
H         -2.64060       -3.76920        4.55910
H         -1.35030       -4.89570        4.11570
H         -2.87770       -4.91230        3.23060
