44

S         -0.02040        0.34610       -0.20350
O          1.40280        0.48010       -0.49910
O         -0.98010       -0.20310       -1.15870
N         -0.54380        1.92820        0.18890
C         -1.90310        2.11410        0.51490
C         -2.33610        2.31010        1.85540
C         -1.39220        2.25080        2.97900
O         -1.99120        1.92440        4.15520
C         -1.27450        1.64050        5.31570
O         -1.88580        1.28530        6.28530
C          0.17400        1.79900        5.18120
C          0.70210        2.21540        3.93910
N         -0.12310        2.43870        2.85200
C          2.09470        2.34700        3.79690
C          2.92950        2.05460        4.86940
C          2.39970        1.63220        6.10220
C          1.02400        1.50730        6.25820
C         -3.71110        2.46790        2.11430
C         -4.64230        2.42160        1.08300
C         -4.21150        2.20260       -0.23140
C         -2.85620        2.05350       -0.51190
C         -0.19350       -0.51200        1.35500
C         -1.46510       -0.89910        1.79140
C         -1.61390       -1.37860        3.09180
C         -0.51260       -1.49150        3.95890
C          0.75510       -1.13080        3.47690
C          0.92190       -0.63420        2.18450
C         -0.70230       -1.96250        5.37690
H          0.06830        2.28170        0.93580
H          2.49350        2.66280        2.83160
H          4.01140        2.15090        4.75110
H          3.06900        1.40560        6.93450
H          0.58000        1.18210        7.20050
H         -4.03600        2.61330        3.14450
H         -5.70420        2.55000        1.30180
H         -4.93790        2.15640       -1.04590
H         -2.50270        1.87730       -1.52670
H         -2.32140       -0.81370        1.12160
H         -2.60760       -1.66240        3.44720
H          1.62330       -1.21430        4.13480
H          1.90020       -0.32300        1.81700
H         -1.26060       -1.21450        5.96370
H          0.26200       -2.13280        5.87630
H         -1.27920       -2.90010        5.41190
