rmsd142.gzmat
 OpenBabel08211713413D

 44 47  0  0  1  0  0  0  0  0999 V2000
    0.0000    0.0000    0.0000 S   0  0  0  0  0  0  0  0  0  0  0  0
    1.4388    0.0000    0.0000 O   0  0  0  0  0  0  0  0  0  0  0  0
   -0.7715    0.0000   -1.2162 O   0  0  0  0  0  0  0  0  0  0  0  0
   -0.5610    1.4516    0.8116 N   0  0  0  0  0  0  0  0  0  0  0  0
   -0.1334    1.9737    2.0134 C   0  0  0  0  0  0  0  0  0  0  0  0
   -0.8367    3.0426    2.6391 C   0  0  0  0  0  0  0  0  0  0  0  0
   -1.9870    3.7072    2.0486 C   0  0  0  0  0  0  0  0  0  0  0  0
   -2.4022    4.7630    2.7998 O   0  0  0  0  0  0  0  0  0  0  0  0
   -3.4895    5.5701    2.4239 C   0  0  0  0  0  0  0  0  0  0  0  0
   -3.7187    6.4591    3.1913 O   0  0  0  0  0  0  0  0  0  0  0  0
   -4.1539    5.2003    1.1886 C   0  0  1  0  0  0  0  0  0  0  0  0
   -3.6737    4.0885    0.4705 C   0  0  0  0  0  0  0  0  0  0  0  0
   -2.5812    3.3660    0.9349 N   0  0  0  0  0  0  0  0  0  0  0  0
   -4.3013    3.6980   -0.7278 C   0  0  0  0  0  0  0  0  0  0  0  0
   -5.3890    4.4233   -1.1821 C   0  0  0  0  0  0  0  0  0  0  0  0
   -5.8658    5.5355   -0.4696 C   0  0  0  0  0  0  0  0  0  0  0  0
   -5.2532    5.9244    0.7104 C   0  0  0  0  0  0  0  0  0  0  0  0
   -0.4098    3.4979    3.9031 C   0  0  0  0  0  0  0  0  0  0  0  0
    0.6793    2.9390    4.5414 C   0  0  0  0  0  0  0  0  0  0  0  0
    1.3957    1.9141    3.9061 C   0  0  0  0  0  0  0  0  0  0  0  0
    1.0100    1.4451    2.6680 C   0  0  0  0  0  0  0  0  0  0  0  0
   -0.5544   -1.2718    1.0634 C   0  0  0  0  0  0  0  0  0  0  0  0
   -1.9074   -1.6078    1.1053 C   0  0  0  0  0  0  0  0  0  0  0  0
   -2.3496   -2.6080    1.9658 C   0  0  0  0  0  0  0  0  0  0  0  0
   -1.4404   -3.2829    2.7866 C   0  0  0  0  0  0  0  0  0  0  0  0
   -0.0834   -2.9491    2.7344 C   0  0  0  0  0  0  0  0  0  0  0  0
    0.3568   -1.9483    1.8740 C   0  0  0  0  0  0  0  0  0  0  0  0
   -1.9163   -4.3393    3.7209 C   0  0  0  0  0  0  0  0  0  0  0  0
   -1.3338    1.9584    0.3387 H   0  0  0  0  0  0  0  0  0  0  0  0
   -3.9180    2.8359   -1.2742 H   0  0  0  0  0  0  0  0  0  0  0  0
   -5.8870    4.1308   -2.1082 H   0  0  0  0  0  0  0  0  0  0  0  0
   -6.7206    6.0902   -0.8511 H   0  0  0  0  0  0  0  0  0  0  0  0
   -5.6143    6.7881    1.2751 H   0  0  0  0  0  0  0  0  0  0  0  0
   -0.9562    4.3135    4.3930 H   0  0  0  0  0  0  0  0  0  0  0  0
    0.9901    3.2938    5.5194 H   0  0  0  0  0  0  0  0  0  0  0  0
    2.2726    1.4911    4.3990 H   0  0  0  0  0  0  0  0  0  0  0  0
    1.6247    0.6878    2.1811 H   0  0  0  0  0  0  0  0  0  0  0  0
   -2.6361   -1.0982    0.4639 H   0  0  0  0  0  0  0  0  0  0  0  0
   -3.4060   -2.8650    2.0001 H   0  0  0  0  0  0  0  0  0  0  0  0
    0.6300   -3.4712    3.3681 H   0  0  0  0  0  0  0  0  0  0  0  0
    1.4268   -1.7083    1.8438 H   0  0  0  0  0  0  0  0  0  0  0  0
   -1.1539   -5.1067    3.9165 H   0  0  0  0  0  0  0  0  0  0  0  0
   -2.8063   -4.8645    3.3459 H   0  0  0  0  0  0  0  0  0  0  0  0
   -2.1890   -3.9036    4.6964 H   0  0  0  0  0  0  0  0  0  0  0  0
  1  4  1  0  0  0  0
  1 22  1  0  0  0  0
  2  1  2  0  0  0  0
  3  1  2  0  0  0  0
  4  5  1  0  0  0  0
  5  6  2  0  0  0  0
  5 21  1  0  0  0  0
  6 18  1  0  0  0  0
  7  6  1  0  0  0  0
  7  8  1  0  0  0  0
  9  8  1  0  0  0  0
  9 10  2  0  0  0  0
 11 12  1  1  0  0  0
 11  9  1  0  0  0  0
 12 13  2  0  0  0  0
 13  7  2  0  0  0  0
 14 12  1  0  0  0  0
 15 14  2  0  0  0  0
 15 16  1  0  0  0  0
 16 17  2  0  0  0  0
 17 11  1  0  0  0  0
 17 33  1  0  0  0  0
 18 34  1  0  0  0  0
 18 19  2  0  0  0  0
 19 35  1  0  0  0  0
 20 36  1  0  0  0  0
 20 19  1  0  0  0  0
 21 20  2  0  0  0  0
 22 23  2  0  0  0  0
 22 27  1  0  0  0  0
 23 24  1  0  0  0  0
 24 39  1  0  0  0  0
 24 25  2  0  0  0  0
 25 28  1  0  0  0  0
 26 25  1  0  0  0  0
 26 40  1  0  0  0  0
 27 26  2  0  0  0  0
 28 42  1  0  0  0  0
 28 44  1  0  0  0  0
 29  4  1  0  0  0  0
 30 14  1  0  0  0  0
 31 15  1  0  0  0  0
 32 16  1  0  0  0  0
 37 21  1  0  0  0  0
 38 23  1  0  0  0  0
 41 27  1  0  0  0  0
 43 28  1  0  0  0  0
M  RAD  1  11   2
M  END
$$$$
