rmsd149.gzmat
 OpenBabel08211713413D

 44 47  0  0  1  0  0  0  0  0999 V2000
    0.0000    0.0000    0.0000 S   0  0  0  0  0  0  0  0  0  0  0  0
    1.4392    0.0000    0.0000 O   0  0  0  0  0  0  0  0  0  0  0  0
   -0.7675    0.0000   -1.2188 O   0  0  0  0  0  0  0  0  0  0  0  0
   -0.5598    1.4494    0.8180 N   0  0  0  0  0  0  0  0  0  0  0  0
   -0.2380    1.8463    2.1005 C   0  0  0  0  0  0  0  0  0  0  0  0
   -1.0837    2.7237    2.8344 C   0  0  0  0  0  0  0  0  0  0  0  0
   -2.3031    3.3057    2.2963 C   0  0  0  0  0  0  0  0  0  0  0  0
   -2.9938    3.9932    3.2460 O   0  0  0  0  0  0  0  0  0  0  0  0
   -4.1946    4.6646    2.9613 C   0  0  0  0  0  0  0  0  0  0  0  0
   -4.6727    5.2213    3.9062 O   0  0  0  0  0  0  0  0  0  0  0  0
   -4.6579    4.5754    1.5898 C   0  0  2  0  0  0  0  0  0  0  0  0
   -3.8970    3.8328    0.6667 C   0  0  0  0  0  0  0  0  0  0  0  0
   -2.7202    3.2072    1.0616 N   0  0  0  0  0  0  0  0  0  0  0  0
   -4.3213    3.7246   -0.6712 C   0  0  0  0  0  0  0  0  0  0  0  0
   -5.4877    4.3613   -1.0584 C   0  0  0  0  0  0  0  0  0  0  0  0
   -6.2454    5.1056   -0.1398 C   0  0  0  0  0  0  0  0  0  0  0  0
   -5.8358    5.2130    1.1791 C   0  0  0  0  0  0  0  0  0  0  0  0
   -0.7427    3.0538    4.1612 C   0  0  0  0  0  0  0  0  0  0  0  0
    0.3944    2.5486    4.7599 C   0  0  0  0  0  0  0  0  0  0  0  0
    1.2464    1.7132    4.0232 C   0  0  0  0  0  0  0  0  0  0  0  0
    0.9479    1.3744    2.7201 C   0  0  0  0  0  0  0  0  0  0  0  0
   -0.5589   -1.2627    1.0728 C   0  0  0  0  0  0  0  0  0  0  0  0
   -1.9027   -1.6372    1.0740 C   0  0  0  0  0  0  0  0  0  0  0  0
   -2.3529   -2.6107    1.9606 C   0  0  0  0  0  0  0  0  0  0  0  0
   -1.4627   -3.2149    2.8540 C   0  0  0  0  0  0  0  0  0  0  0  0
   -0.1132   -2.8493    2.8371 C   0  0  0  0  0  0  0  0  0  0  0  0
    0.3368   -1.8806    1.9456 C   0  0  0  0  0  0  0  0  0  0  0  0
   -1.9450   -4.2527    3.8057 C   0  0  0  0  0  0  0  0  0  0  0  0
   -1.3189    1.9767    0.3499 H   0  0  0  0  0  0  0  0  0  0  0  0
   -3.7223    3.1460   -1.3748 H   0  0  0  0  0  0  0  0  0  0  0  0
   -5.8270    4.2892   -2.0934 H   0  0  0  0  0  0  0  0  0  0  0  0
   -7.1568    5.5990   -0.4716 H   0  0  0  0  0  0  0  0  0  0  0  0
   -6.4168    5.7883    1.9050 H   0  0  0  0  0  0  0  0  0  0  0  0
   -1.3957    3.7253    4.7319 H   0  0  0  0  0  0  0  0  0  0  0  0
    0.6371    2.8030    5.7874 H   0  0  0  0  0  0  0  0  0  0  0  0
    2.1600    1.3379    4.4870 H   0  0  0  0  0  0  0  0  0  0  0  0
    1.6634    0.7760    2.1527 H   0  0  0  0  0  0  0  0  0  0  0  0
   -2.6175   -1.1772    0.3815 H   0  0  0  0  0  0  0  0  0  0  0  0
   -3.4011   -2.9020    1.9597 H   0  0  0  0  0  0  0  0  0  0  0  0
    0.5867   -3.3222    3.5223 H   0  0  0  0  0  0  0  0  0  0  0  0
    1.4014   -1.6168    1.9420 H   0  0  0  0  0  0  0  0  0  0  0  0
   -1.3565   -4.2802    4.7341 H   0  0  0  0  0  0  0  0  0  0  0  0
   -1.8809   -5.2568    3.3562 H   0  0  0  0  0  0  0  0  0  0  0  0
   -2.9936   -4.0999    4.1000 H   0  0  0  0  0  0  0  0  0  0  0  0
  1  4  1  0  0  0  0
  1 22  1  0  0  0  0
  2  1  2  0  0  0  0
  3  1  2  0  0  0  0
  4  5  1  0  0  0  0
  5 21  2  0  0  0  0
  5  6  1  0  0  0  0
  6 18  2  0  0  0  0
  7  6  1  0  0  0  0
  7  8  1  0  0  0  0
  9  8  1  0  0  0  0
  9 10  2  0  0  0  0
 11 12  1  6  0  0  0
 11  9  1  0  0  0  0
 12 13  2  0  0  0  0
 13  7  2  0  0  0  0
 14 12  1  0  0  0  0
 15 14  2  0  0  0  0
 15 16  1  0  0  0  0
 16 17  2  0  0  0  0
 17 11  1  0  0  0  0
 17 33  1  0  0  0  0
 18 34  1  0  0  0  0
 18 19  1  0  0  0  0
 19 35  1  0  0  0  0
 20 36  1  0  0  0  0
 20 19  2  0  0  0  0
 21 20  1  0  0  0  0
 22 23  2  0  0  0  0
 22 27  1  0  0  0  0
 23 24  1  0  0  0  0
 24 25  2  0  0  0  0
 25 28  1  0  0  0  0
 26 25  1  0  0  0  0
 26 40  1  0  0  0  0
 27 26  2  0  0  0  0
 28 44  1  0  0  0  0
 28 42  1  0  0  0  0
 29  4  1  0  0  0  0
 30 14  1  0  0  0  0
 31 15  1  0  0  0  0
 32 16  1  0  0  0  0
 37 21  1  0  0  0  0
 38 23  1  0  0  0  0
 39 24  1  0  0  0  0
 41 27  1  0  0  0  0
 43 28  1  0  0  0  0
M  RAD  1  11   2
M  END
$$$$
