44

S          0.33510        0.33650       -0.03870
O          1.60170       -0.27760        0.35290
O         -0.08380        0.46920       -1.43080
N          0.33230        1.93280        0.58000
C          0.70560        2.12050        1.92690
C         -0.25250        2.38780        2.94370
C         -1.69150        2.40580        2.65110
O         -2.45610        2.14010        3.74370
C         -3.83240        1.93520        3.67200
O         -4.41160        1.62910        4.67730
C         -4.39630        2.10630        2.33260
C         -3.53470        2.45550        1.26930
N         -2.17480        2.60320        1.47240
C         -4.06680        2.59770       -0.02440
C         -5.42300        2.38170       -0.24130
C         -6.27600        2.02640        0.81930
C         -5.76350        1.89140        2.10450
C          0.18550        2.54270        4.27280
C          1.53170        2.42550        4.59980
C          2.46650        2.13690        3.59780
C          2.05730        1.98900        2.27550
C         -0.99260       -0.43240        0.87840
C         -2.26270       -0.49210        0.30340
C         -3.33980       -0.91700        1.08040
C         -3.17000       -1.26740        2.42880
C         -1.87440       -1.21870        2.97340
C         -0.78260       -0.81130        2.20850
C         -4.34470       -1.65910        3.28600
H         -0.59440        2.33700        0.39230
H         -3.39210        2.86090       -0.84050
H         -5.82980        2.48590       -1.24990
H         -7.33870        1.85960        0.63210
H         -6.39700        1.61660        2.94960
H         -0.55460        2.74300        5.04750
H          1.85390        2.55280        5.63520
H          3.52490        2.03490        3.84840
H          2.76860        1.75910        1.48360
H         -2.39580       -0.18900       -0.73560
H         -4.33840       -0.95160        0.63850
H         -1.72160       -1.49580        4.01940
H          0.22090       -0.77580        2.63400
H         -4.14310       -2.59060        3.83800
H         -5.25170       -1.80580        2.68250
H         -4.55810       -0.87710        4.03340
