
     RDKit          3D

 44 47  0  0  0  0  0  0  0  0999 V2000
   -0.0204    0.3461   -0.2035 S   0  0  0  0  0  0  0  0  0  0  0  0
    1.4028    0.4801   -0.4991 O   0  0  0  0  0  0  0  0  0  0  0  0
   -0.9801   -0.2031   -1.1587 O   0  0  0  0  0  0  0  0  0  0  0  0
   -0.5438    1.9282    0.1889 N   0  0  0  0  0  0  0  0  0  0  0  0
   -1.9031    2.1141    0.5149 C   0  0  0  0  0  0  0  0  0  0  0  0
   -2.3361    2.3101    1.8554 C   0  0  0  0  0  0  0  0  0  0  0  0
   -1.3922    2.2508    2.9790 C   0  0  0  0  0  0  0  0  0  0  0  0
   -1.9912    1.9244    4.1552 O   0  0  0  0  0  0  0  0  0  0  0  0
   -1.2745    1.6405    5.3157 C   0  0  0  0  0  0  0  0  0  0  0  0
   -1.8858    1.2853    6.2853 O   0  0  0  0  0  0  0  0  0  0  0  0
    0.1740    1.7990    5.1812 C   0  0  0  0  0  0  0  0  0  0  0  0
    0.7021    2.2154    3.9391 C   0  0  0  0  0  0  0  0  0  0  0  0
   -0.1231    2.4387    2.8520 N   0  0  0  0  0  0  0  0  0  0  0  0
    2.0947    2.3470    3.7969 C   0  0  0  0  0  0  0  0  0  0  0  0
    2.9295    2.0546    4.8694 C   0  0  0  0  0  0  0  0  0  0  0  0
    2.3997    1.6322    6.1022 C   0  0  0  0  0  0  0  0  0  0  0  0
    1.0240    1.5073    6.2582 C   0  0  0  0  0  0  0  0  0  0  0  0
   -3.7111    2.4679    2.1143 C   0  0  0  0  0  0  0  0  0  0  0  0
   -4.6423    2.4216    1.0830 C   0  0  0  0  0  0  0  0  0  0  0  0
   -4.2115    2.2026   -0.2314 C   0  0  0  0  0  0  0  0  0  0  0  0
   -2.8562    2.0535   -0.5119 C   0  0  0  0  0  0  0  0  0  0  0  0
   -0.1935   -0.5120    1.3550 C   0  0  0  0  0  0  0  0  0  0  0  0
   -1.4651   -0.8991    1.7914 C   0  0  0  0  0  0  0  0  0  0  0  0
   -1.6139   -1.3786    3.0918 C   0  0  0  0  0  0  0  0  0  0  0  0
   -0.5126   -1.4915    3.9589 C   0  0  0  0  0  0  0  0  0  0  0  0
    0.7551   -1.1308    3.4769 C   0  0  0  0  0  0  0  0  0  0  0  0
    0.9219   -0.6342    2.1845 C   0  0  0  0  0  0  0  0  0  0  0  0
   -0.7023   -1.9625    5.3769 C   0  0  0  0  0  0  0  0  0  0  0  0
    0.0683    2.2817    0.9358 H   0  0  0  0  0  0  0  0  0  0  0  0
    2.4935    2.6628    2.8316 H   0  0  0  0  0  0  0  0  0  0  0  0
    4.0114    2.1509    4.7511 H   0  0  0  0  0  0  0  0  0  0  0  0
    3.0690    1.4056    6.9345 H   0  0  0  0  0  0  0  0  0  0  0  0
    0.5800    1.1821    7.2005 H   0  0  0  0  0  0  0  0  0  0  0  0
   -4.0360    2.6133    3.1445 H   0  0  0  0  0  0  0  0  0  0  0  0
   -5.7042    2.5500    1.3018 H   0  0  0  0  0  0  0  0  0  0  0  0
   -4.9379    2.1564   -1.0459 H   0  0  0  0  0  0  0  0  0  0  0  0
   -2.5027    1.8773   -1.5267 H   0  0  0  0  0  0  0  0  0  0  0  0
   -2.3214   -0.8137    1.1216 H   0  0  0  0  0  0  0  0  0  0  0  0
   -2.6076   -1.6624    3.4472 H   0  0  0  0  0  0  0  0  0  0  0  0
    1.6233   -1.2143    4.1348 H   0  0  0  0  0  0  0  0  0  0  0  0
    1.9002   -0.3230    1.8170 H   0  0  0  0  0  0  0  0  0  0  0  0
   -1.2606   -1.2145    5.9637 H   0  0  0  0  0  0  0  0  0  0  0  0
    0.2620   -2.1328    5.8763 H   0  0  0  0  0  0  0  0  0  0  0  0
   -1.2792   -2.9001    5.4119 H   0  0  0  0  0  0  0  0  0  0  0  0
  1  2  2  0
  1  3  2  0
  1  4  1  0
  1 22  1  0
  4  5  1  0
  4 29  1  0
  5  6  1  0
  5 21  2  0
  6  7  1  0
  6 18  2  0
  7  8  1  0
  7 13  2  0
  8  9  1  0
  9 10  2  0
  9 11  1  0
 11 12  2  0
 11 17  1  0
 12 13  1  0
 12 14  1  0
 14 15  2  0
 14 30  1  0
 15 16  1  0
 15 31  1  0
 16 17  2  0
 16 32  1  0
 17 33  1  0
 18 19  1  0
 18 34  1  0
 19 20  2  0
 19 35  1  0
 20 21  1  0
 20 36  1  0
 21 37  1  0
 22 23  2  0
 22 27  1  0
 23 24  1  0
 23 38  1  0
 24 25  2  0
 24 39  1  0
 25 26  1  0
 25 28  1  0
 26 27  2  0
 26 40  1  0
 27 41  1  0
 28 42  1  0
 28 43  1  0
 28 44  1  0
M  END

