rmsd146.gzmat
 OpenBabel08211713413D

 44 47  0  0  1  0  0  0  0  0999 V2000
    0.0000    0.0000    0.0000 S   0  0  0  0  0  0  0  0  0  0  0  0
    1.4399    0.0000    0.0000 O   0  0  0  0  0  0  0  0  0  0  0  0
   -0.7660    0.0000   -1.2188 O   0  0  0  0  0  0  0  0  0  0  0  0
   -0.3958    1.4454    0.9145 N   0  0  0  0  0  0  0  0  0  0  0  0
   -1.6570    1.8695    1.2857 C   0  0  0  0  0  0  0  0  0  0  0  0
   -1.8463    2.7091    2.4183 C   0  0  0  0  0  0  0  0  0  0  0  0
   -0.7610    3.1692    3.2700 C   0  0  0  0  0  0  0  0  0  0  0  0
   -1.2265    3.8258    4.3672 O   0  0  0  0  0  0  0  0  0  0  0  0
   -0.3677    4.3594    5.3426 C   0  0  0  0  0  0  0  0  0  0  0  0
   -0.9383    4.8965    6.2469 O   0  0  0  0  0  0  0  0  0  0  0  0
    1.0510    4.1747    5.1039 C   0  0  1  0  0  0  0  0  0  0  0  0
    1.4568    3.4841    3.9459 C   0  0  0  0  0  0  0  0  0  0  0  0
    0.5150    2.9908    3.0501 N   0  0  0  0  0  0  0  0  0  0  0  0
    2.8265    3.2890    3.6851 C   0  0  0  0  0  0  0  0  0  0  0  0
    3.7572    3.7867    4.5806 C   0  0  0  0  0  0  0  0  0  0  0  0
    3.3536    4.4751    5.7362 C   0  0  0  0  0  0  0  0  0  0  0  0
    2.0075    4.6697    5.9991 C   0  0  0  0  0  0  0  0  0  0  0  0
   -3.1517    3.1138    2.7624 C   0  0  0  0  0  0  0  0  0  0  0  0
   -4.2486    2.7022    2.0320 C   0  0  0  0  0  0  0  0  0  0  0  0
   -4.0600    1.8807    0.9109 C   0  0  0  0  0  0  0  0  0  0  0  0
   -2.7959    1.4753    0.5373 C   0  0  0  0  0  0  0  0  0  0  0  0
   -0.6103   -1.2643    1.0422 C   0  0  0  0  0  0  0  0  0  0  0  0
   -1.7822   -1.9390    0.7015 C   0  0  0  0  0  0  0  0  0  0  0  0
   -2.2915   -2.9229    1.5443 C   0  0  0  0  0  0  0  0  0  0  0  0
   -1.6305   -3.2378    2.7351 C   0  0  0  0  0  0  0  0  0  0  0  0
   -0.4497   -2.5648    3.0685 C   0  0  0  0  0  0  0  0  0  0  0  0
    0.0603   -1.5845    2.2234 C   0  0  0  0  0  0  0  0  0  0  0  0
   -2.1765   -4.2748    3.6526 C   0  0  0  0  0  0  0  0  0  0  0  0
    0.4012    1.9290    1.3670 H   0  0  0  0  0  0  0  0  0  0  0  0
    3.1266    2.7539    2.7836 H   0  0  0  0  0  0  0  0  0  0  0  0
    4.8229    3.6459    4.3893 H   0  0  0  0  0  0  0  0  0  0  0  0
    4.1056    4.8571    6.4237 H   0  0  0  0  0  0  0  0  0  0  0  0
    1.6796    5.2053    6.8942 H   0  0  0  0  0  0  0  0  0  0  0  0
   -3.2999    3.7677    3.6304 H   0  0  0  0  0  0  0  0  0  0  0  0
   -5.2495    3.0158    2.3142 H   0  0  0  0  0  0  0  0  0  0  0  0
   -4.9262    1.5707    0.3242 H   0  0  0  0  0  0  0  0  0  0  0  0
   -2.6775    0.8842   -0.3737 H   0  0  0  0  0  0  0  0  0  0  0  0
   -2.3163   -1.7082   -0.2288 H   0  0  0  0  0  0  0  0  0  0  0  0
   -3.2066   -3.4455    1.2748 H   0  0  0  0  0  0  0  0  0  0  0  0
    0.0693   -2.8090    3.9931 H   0  0  0  0  0  0  0  0  0  0  0  0
    0.9905   -1.0748    2.5007 H   0  0  0  0  0  0  0  0  0  0  0  0
   -2.5968   -3.8152    4.5624 H   0  0  0  0  0  0  0  0  0  0  0  0
   -1.4009   -4.9832    3.9809 H   0  0  0  0  0  0  0  0  0  0  0  0
   -2.9796   -4.8710    3.1979 H   0  0  0  0  0  0  0  0  0  0  0  0
  1  4  1  0  0  0  0
  1 22  1  0  0  0  0
  2  1  2  0  0  0  0
  3  1  2  0  0  0  0
  4  5  1  0  0  0  0
  4 29  1  0  0  0  0
  5  6  2  0  0  0  0
  6 18  1  0  0  0  0
  6  7  1  0  0  0  0
  7  8  1  0  0  0  0
  8  9  1  0  0  0  0
  9 10  2  0  0  0  0
 11 12  1  6  0  0  0
 11  9  1  0  0  0  0
 11 17  1  0  0  0  0
 13  7  2  0  0  0  0
 13 12  2  0  0  0  0
 14 12  1  0  0  0  0
 14 15  2  0  0  0  0
 15 16  1  0  0  0  0
 16 17  2  0  0  0  0
 16 32  1  0  0  0  0
 17 33  1  0  0  0  0
 18 34  1  0  0  0  0
 19 35  1  0  0  0  0
 19 18  2  0  0  0  0
 20 19  1  0  0  0  0
 21 20  2  0  0  0  0
 21  5  1  0  0  0  0
 22 27  1  0  0  0  0
 23 22  2  0  0  0  0
 23 24  1  0  0  0  0
 24 25  2  0  0  0  0
 25 26  1  0  0  0  0
 25 28  1  0  0  0  0
 26 40  1  0  0  0  0
 27 41  1  0  0  0  0
 27 26  2  0  0  0  0
 28 43  1  0  0  0  0
 28 42  1  0  0  0  0
 30 14  1  0  0  0  0
 31 15  1  0  0  0  0
 36 20  1  0  0  0  0
 37 21  1  0  0  0  0
 38 23  1  0  0  0  0
 39 24  1  0  0  0  0
 44 28  1  0  0  0  0
M  RAD  1  11   2
M  END
$$$$
