rmsd47.gzmat
 OpenBabel08211713413D

 44 47  0  0  1  0  0  0  0  0999 V2000
    0.0000    0.0000    0.0000 S   0  0  0  0  0  0  0  0  0  0  0  0
    1.4404    0.0000    0.0000 O   0  0  0  0  0  0  0  0  0  0  0  0
   -0.7698    0.0000   -1.2164 O   0  0  0  0  0  0  0  0  0  0  0  0
   -0.3966    1.4429    0.9168 N   0  0  0  0  0  0  0  0  0  0  0  0
   -1.6510    1.9595    1.1747 C   0  0  0  0  0  0  0  0  0  0  0  0
   -1.8776    2.8074    2.2954 C   0  0  0  0  0  0  0  0  0  0  0  0
   -0.8419    3.1806    3.2456 C   0  0  0  0  0  0  0  0  0  0  0  0
   -1.3156    4.0130    4.2119 O   0  0  0  0  0  0  0  0  0  0  0  0
   -0.4977    4.5110    5.2408 C   0  0  0  0  0  0  0  0  0  0  0  0
   -1.0718    5.2228    6.0122 O   0  0  0  0  0  0  0  0  0  0  0  0
    0.8882    4.0842    5.2092 C   0  0  2  0  0  0  0  0  0  0  0  0
    1.3015    3.2099    4.1858 C   0  0  0  0  0  0  0  0  0  0  0  0
    0.4032    2.7818    3.2162 N   0  0  0  0  0  0  0  0  0  0  0  0
    2.6359    2.7633    4.1348 C   0  0  0  0  0  0  0  0  0  0  0  0
    3.5271    3.2038    5.0976 C   0  0  0  0  0  0  0  0  0  0  0  0
    3.1188    4.0839    6.1133 C   0  0  0  0  0  0  0  0  0  0  0  0
    1.8061    4.5230    6.1718 C   0  0  0  0  0  0  0  0  0  0  0  0
   -3.1740    3.3122    2.5228 C   0  0  0  0  0  0  0  0  0  0  0  0
   -4.2264    2.9960    1.6873 C   0  0  0  0  0  0  0  0  0  0  0  0
   -3.9985    2.1711    0.5759 C   0  0  0  0  0  0  0  0  0  0  0  0
   -2.7420    1.6650    0.3180 C   0  0  0  0  0  0  0  0  0  0  0  0
   -0.5898   -1.2709    1.0454 C   0  0  0  0  0  0  0  0  0  0  0  0
   -1.8262   -1.8651    0.7951 C   0  0  0  0  0  0  0  0  0  0  0  0
   -2.3005   -2.8677    1.6362 C   0  0  0  0  0  0  0  0  0  0  0  0
   -1.5367   -3.2870    2.7296 C   0  0  0  0  0  0  0  0  0  0  0  0
   -0.2957   -2.6901    2.9754 C   0  0  0  0  0  0  0  0  0  0  0  0
    0.1755   -1.6851    2.1364 C   0  0  0  0  0  0  0  0  0  0  0  0
   -2.0425   -4.3512    3.6396 C   0  0  0  0  0  0  0  0  0  0  0  0
    0.3831    1.8420    1.4714 H   0  0  0  0  0  0  0  0  0  0  0  0
    2.9415    2.0856    3.3374 H   0  0  0  0  0  0  0  0  0  0  0  0
    4.5650    2.8669    5.0701 H   0  0  0  0  0  0  0  0  0  0  0  0
    3.8420    4.4193    6.8540 H   0  0  0  0  0  0  0  0  0  0  0  0
    1.4751    5.2083    6.9573 H   0  0  0  0  0  0  0  0  0  0  0  0
   -3.3512    3.9682    3.3838 H   0  0  0  0  0  0  0  0  0  0  0  0
   -5.2211    3.3872    1.8789 H   0  0  0  0  0  0  0  0  0  0  0  0
   -4.8269    1.9383   -0.0953 H   0  0  0  0  0  0  0  0  0  0  0  0
   -2.5884    1.0685   -0.5852 H   0  0  0  0  0  0  0  0  0  0  0  0
   -2.4371   -1.5567   -0.0619 H   0  0  0  0  0  0  0  0  0  0  0  0
   -3.2680   -3.3247    1.4412 H   0  0  0  0  0  0  0  0  0  0  0  0
    0.3015   -3.0117    3.8259 H   0  0  0  0  0  0  0  0  0  0  0  0
    1.1525   -1.2323    2.3452 H   0  0  0  0  0  0  0  0  0  0  0  0
   -1.2468   -5.0414    3.9566 H   0  0  0  0  0  0  0  0  0  0  0  0
   -2.8321   -4.9645    3.1832 H   0  0  0  0  0  0  0  0  0  0  0  0
   -2.4688   -3.9119    4.5567 H   0  0  0  0  0  0  0  0  0  0  0  0
  1  4  1  0  0  0  0
  1 22  1  0  0  0  0
  2  1  2  0  0  0  0
  3  1  2  0  0  0  0
  4  5  1  0  0  0  0
  4 29  1  0  0  0  0
  5  6  2  0  0  0  0
  6 18  1  0  0  0  0
  6  7  1  0  0  0  0
  7  8  1  0  0  0  0
  8  9  1  0  0  0  0
  9 10  2  0  0  0  0
 11 12  1  1  0  0  0
 11  9  1  0  0  0  0
 11 17  1  0  0  0  0
 13  7  2  0  0  0  0
 13 12  2  0  0  0  0
 14 12  1  0  0  0  0
 14 15  2  0  0  0  0
 15 16  1  0  0  0  0
 16 17  2  0  0  0  0
 16 32  1  0  0  0  0
 17 33  1  0  0  0  0
 18 34  1  0  0  0  0
 19 35  1  0  0  0  0
 19 18  2  0  0  0  0
 20 19  1  0  0  0  0
 21 20  2  0  0  0  0
 21  5  1  0  0  0  0
 22 27  1  0  0  0  0
 23 22  2  0  0  0  0
 23 24  1  0  0  0  0
 24 25  2  0  0  0  0
 25 26  1  0  0  0  0
 25 28  1  0  0  0  0
 26 40  1  0  0  0  0
 27 41  1  0  0  0  0
 27 26  2  0  0  0  0
 28 42  1  0  0  0  0
 28 44  1  0  0  0  0
 30 14  1  0  0  0  0
 31 15  1  0  0  0  0
 36 20  1  0  0  0  0
 37 21  1  0  0  0  0
 38 23  1  0  0  0  0
 39 24  1  0  0  0  0
 43 28  1  0  0  0  0
M  RAD  1  11   2
M  END
$$$$
