rmsd152.gzmat
 OpenBabel08211713413D

 44 47  0  0  1  0  0  0  0  0999 V2000
    0.0000    0.0000    0.0000 S   0  0  0  0  0  0  0  0  0  0  0  0
    1.4402    0.0000    0.0000 O   0  0  0  0  0  0  0  0  0  0  0  0
   -0.7687    0.0000   -1.2173 O   0  0  0  0  0  0  0  0  0  0  0  0
   -0.3988    1.4423    0.9185 N   0  0  0  0  0  0  0  0  0  0  0  0
   -1.6692    1.8647    1.2657 C   0  0  0  0  0  0  0  0  0  0  0  0
   -1.9008    2.5980    2.4614 C   0  0  0  0  0  0  0  0  0  0  0  0
   -0.8585    2.9108    3.4263 C   0  0  0  0  0  0  0  0  0  0  0  0
   -1.3750    3.4386    4.5691 O   0  0  0  0  0  0  0  0  0  0  0  0
   -0.5653    3.8197    5.6521 C   0  0  0  0  0  0  0  0  0  0  0  0
   -1.1772    4.2603    6.5811 O   0  0  0  0  0  0  0  0  0  0  0  0
    0.8603    3.6174    5.4759 C   0  0  1  0  0  0  0  0  0  0  0  0
    1.3193    3.0579    4.2679 C   0  0  0  0  0  0  0  0  0  0  0  0
    0.4233    2.7163    3.2610 N   0  0  0  0  0  0  0  0  0  0  0  0
    2.6961    2.8429    4.0683 C   0  0  0  0  0  0  0  0  0  0  0  0
    3.5819    3.1942    5.0721 C   0  0  0  0  0  0  0  0  0  0  0  0
    3.1261    3.7568    6.2751 C   0  0  0  0  0  0  0  0  0  0  0  0
    1.7722    3.9679    6.4791 C   0  0  0  0  0  0  0  0  0  0  0  0
   -3.2084    3.0315    2.7590 C   0  0  0  0  0  0  0  0  0  0  0  0
   -4.2693    2.7381    1.9254 C   0  0  0  0  0  0  0  0  0  0  0  0
   -4.0404    2.0076    0.7501 C   0  0  0  0  0  0  0  0  0  0  0  0
   -2.7709    1.5820    0.4193 C   0  0  0  0  0  0  0  0  0  0  0  0
   -0.6028   -1.2623    1.0487 C   0  0  0  0  0  0  0  0  0  0  0  0
   -1.8120   -1.8939    0.7600 C   0  0  0  0  0  0  0  0  0  0  0  0
   -2.3107   -2.8701    1.6177 C   0  0  0  0  0  0  0  0  0  0  0  0
   -1.5988   -3.2251    2.7674 C   0  0  0  0  0  0  0  0  0  0  0  0
   -0.3795   -2.5985    3.0459 C   0  0  0  0  0  0  0  0  0  0  0  0
    0.1156   -1.6203    2.1898 C   0  0  0  0  0  0  0  0  0  0  0  0
   -2.1388   -4.2497    3.7024 C   0  0  0  0  0  0  0  0  0  0  0  0
    0.3833    1.8752    1.4417 H   0  0  0  0  0  0  0  0  0  0  0  0
    3.0374    2.4083    3.1284 H   0  0  0  0  0  0  0  0  0  0  0  0
    4.6521    3.0343    4.9311 H   0  0  0  0  0  0  0  0  0  0  0  0
    3.8443    4.0276    7.0465 H   0  0  0  0  0  0  0  0  0  0  0  0
    1.4039    4.4056    7.4109 H   0  0  0  0  0  0  0  0  0  0  0  0
   -3.3872    3.6105    3.6730 H   0  0  0  0  0  0  0  0  0  0  0  0
   -5.2733    3.0730    2.1698 H   0  0  0  0  0  0  0  0  0  0  0  0
   -4.8779    1.7858    0.0866 H   0  0  0  0  0  0  0  0  0  0  0  0
   -2.6150    1.0625   -0.5301 H   0  0  0  0  0  0  0  0  0  0  0  0
   -2.3825   -1.6347   -0.1402 H   0  0  0  0  0  0  0  0  0  0  0  0
   -3.2578   -3.3550    1.3932 H   0  0  0  0  0  0  0  0  0  0  0  0
    0.1818   -2.8747    3.9357 H   0  0  0  0  0  0  0  0  0  0  0  0
    1.0729   -1.1414    2.4273 H   0  0  0  0  0  0  0  0  0  0  0  0
   -2.6406   -3.7692    4.5591 H   0  0  0  0  0  0  0  0  0  0  0  0
   -1.3503   -4.8957    4.1157 H   0  0  0  0  0  0  0  0  0  0  0  0
   -2.8777   -4.9123    3.2306 H   0  0  0  0  0  0  0  0  0  0  0  0
  1  4  1  0  0  0  0
  1 22  1  0  0  0  0
  2  1  2  0  0  0  0
  3  1  2  0  0  0  0
  4  5  1  0  0  0  0
  4 29  1  0  0  0  0
  5  6  2  0  0  0  0
  6 18  1  0  0  0  0
  6  7  1  0  0  0  0
  7  8  1  0  0  0  0
  8  9  1  0  0  0  0
  9 10  2  0  0  0  0
 11 12  1  6  0  0  0
 11  9  1  0  0  0  0
 11 17  1  0  0  0  0
 13  7  2  0  0  0  0
 13 12  2  0  0  0  0
 14 12  1  0  0  0  0
 14 15  2  0  0  0  0
 15 16  1  0  0  0  0
 16 17  2  0  0  0  0
 16 32  1  0  0  0  0
 17 33  1  0  0  0  0
 18 34  1  0  0  0  0
 19 35  1  0  0  0  0
 19 18  2  0  0  0  0
 20 19  1  0  0  0  0
 21 20  2  0  0  0  0
 21  5  1  0  0  0  0
 22 27  1  0  0  0  0
 23 22  2  0  0  0  0
 23 24  1  0  0  0  0
 24 25  2  0  0  0  0
 25 26  1  0  0  0  0
 25 28  1  0  0  0  0
 26 40  1  0  0  0  0
 27 41  1  0  0  0  0
 27 26  2  0  0  0  0
 28 43  1  0  0  0  0
 28 42  1  0  0  0  0
 30 14  1  0  0  0  0
 31 15  1  0  0  0  0
 36 20  1  0  0  0  0
 37 21  1  0  0  0  0
 38 23  1  0  0  0  0
 39 24  1  0  0  0  0
 44 28  1  0  0  0  0
M  RAD  1  11   2
M  END
$$$$
