26

Br         0.01890       -0.49220        0.00180
C          1.90290       -0.21690       -0.00830
C          2.60380       -0.23580        1.19360
C          3.99440       -0.03170        1.17860
C          4.66390        0.19170       -0.03530
C          3.94140        0.20680       -1.22800
C          2.55920        0.00280       -1.22500
C          4.72700       -0.05480        2.45560
N          4.12930       -0.30890        3.57660
C          4.88930       -0.28960        4.70170
C          6.23170       -0.04690        4.71940
C          6.91610        0.20920        3.47610
O          8.07190        0.42940        3.26610
O          6.03520        0.19790        2.34650
O          4.24790       -0.60350        5.86330
C          3.12750        0.12710        6.23090
O          2.84690        1.17270        5.72650
C          2.39500       -0.58430        7.33060
H          2.10030       -0.40040        2.14540
H          5.74210        0.35080       -0.03250
H          4.45700        0.37950       -2.17510
H          1.99180        0.01460       -2.15670
H          6.80800       -0.04180        5.64230
H          3.09210       -0.86000        8.13550
H          1.96830       -1.51870        6.93320
H          1.59470        0.05840        7.71500
