rmsd107.gzmat
 OpenBabel08211713373D

 26 27  0  0  0  0  0  0  0  0999 V2000
    0.0000    0.0000    0.0000 Br  0  0  0  0  0  0  0  0  0  0  0  0
    1.8958    0.0000    0.0000 C   0  0  0  0  0  0  0  0  0  0  0  0
    2.5650    0.0000    1.2162 C   0  0  0  0  0  0  0  0  0  0  0  0
    3.9646    0.0002    1.2037 C   0  0  0  0  0  0  0  0  0  0  0  0
    4.6678   -0.0015   -0.0056 C   0  0  0  0  0  0  0  0  0  0  0  0
    3.9685   -0.0038   -1.2101 C   0  0  0  0  0  0  0  0  0  0  0  0
    2.5736    0.0002   -1.2148 C   0  0  0  0  0  0  0  0  0  0  0  0
    4.6949    0.0158    2.4747 C   0  0  0  0  0  0  0  0  0  0  0  0
    4.1393   -0.2575    3.6346 N   0  0  0  0  0  0  0  0  0  0  0  0
    4.9339   -0.1658    4.7643 C   0  0  0  0  0  0  0  0  0  0  0  0
    6.2634    0.1548    4.7332 C   0  0  0  0  0  0  0  0  0  0  0  0
    6.8764    0.4219    3.4730 C   0  0  0  0  0  0  0  0  0  0  0  0
    7.9841    0.7101    3.1390 O   0  0  0  0  0  0  0  0  0  0  0  0
    5.9837    0.3382    2.3378 O   0  0  0  0  0  0  0  0  0  0  0  0
    4.3520   -0.5038    5.9269 O   0  0  0  0  0  0  0  0  0  0  0  0
    2.9836   -0.2452    6.1424 C   0  0  0  0  0  0  0  0  0  0  0  0
    2.4354    0.6711    5.6199 O   0  0  0  0  0  0  0  0  0  0  0  0
    2.5058   -1.2226    7.1494 C   0  0  0  0  0  0  0  0  0  0  0  0
    2.0284    0.0013    2.1735 H   0  0  0  0  0  0  0  0  0  0  0  0
    5.7628    0.0030   -0.0042 H   0  0  0  0  0  0  0  0  0  0  0  0
    4.5128   -0.0066   -2.1543 H   0  0  0  0  0  0  0  0  0  0  0  0
    2.0349    0.0048   -2.1639 H   0  0  0  0  0  0  0  0  0  0  0  0
    6.8787    0.2241    5.6256 H   0  0  0  0  0  0  0  0  0  0  0  0
    3.1011   -1.1837    8.0774 H   0  0  0  0  0  0  0  0  0  0  0  0
    2.5807   -2.2573    6.7712 H   0  0  0  0  0  0  0  0  0  0  0  0
    1.4529   -1.0333    7.4156 H   0  0  0  0  0  0  0  0  0  0  0  0
  2  1  1  0  0  0  0
  2  3  2  0  0  0  0
  3 19  1  0  0  0  0
  4  3  1  0  0  0  0
  4  8  1  0  0  0  0
  5 20  1  0  0  0  0
  5  4  2  0  0  0  0
  6  5  1  0  0  0  0
  7  6  2  0  0  0  0
  7  2  1  0  0  0  0
  8  9  2  0  0  0  0
  9 10  2  0  0  0  0
 10 15  1  0  0  0  0
 11 10  1  0  0  0  0
 11 23  1  0  0  0  0
 12 11  1  0  0  0  0
 13 12  2  0  0  0  0
 14  8  1  0  0  0  0
 14 12  1  0  0  0  0
 15 16  1  0  0  0  0
 16 18  1  0  0  0  0
 17 16  2  0  0  0  0
 18 26  1  0  0  0  0
 18 24  1  0  0  0  0
 21  6  1  0  0  0  0
 22  7  1  0  0  0  0
 25 18  1  0  0  0  0
M  RAD  1  11   2
M  END
$$$$
