26
rmsd116.gzmat
Br         0.00000        0.00000        0.00000
C          1.89610        0.00000        0.00000
C          2.56650        0.00000        1.21550
C          3.96690       -0.00060        1.20280
C          4.66920        0.00270       -0.00730
C          3.96890        0.00320       -1.21140
C          2.57390        0.00150       -1.21480
C          4.69650        0.00050        2.47420
N          4.10910       -0.12100        3.64490
C          4.91140       -0.08720        4.77160
C          6.27360        0.02900        4.73230
C          6.91630        0.13950        3.46380
O          8.05340        0.24430        3.12100
O          6.01760        0.13110        2.32910
O          4.28730       -0.27770        5.94680
C          2.99510        0.23760        6.15810
O          2.62030        1.21850        5.59990
C          2.35140       -0.59210        7.20410
H          2.03200        0.00390        2.17380
H          5.76480        0.00660       -0.00770
H          4.51340        0.00590       -2.15570
H          2.03600        0.00280       -2.16440
H          6.89260        0.04780        5.62470
H          3.07630       -1.17280        7.80000
H          1.65850       -1.31980        6.74400
H          1.76440        0.03130        7.89870
