rmsd115.gzmat
 OpenBabel08211713373D

 26 27  0  0  0  0  0  0  0  0999 V2000
    0.0000    0.0000    0.0000 Br  0  0  0  0  0  0  0  0  0  0  0  0
    1.8962    0.0000    0.0000 C   0  0  0  0  0  0  0  0  0  0  0  0
    2.5672    0.0000    1.2149 C   0  0  0  0  0  0  0  0  0  0  0  0
    3.9674   -0.0088    1.2013 C   0  0  0  0  0  0  0  0  0  0  0  0
    4.6690   -0.0130   -0.0091 C   0  0  0  0  0  0  0  0  0  0  0  0
    3.9682   -0.0056   -1.2128 C   0  0  0  0  0  0  0  0  0  0  0  0
    2.5734   -0.0002   -1.2156 C   0  0  0  0  0  0  0  0  0  0  0  0
    4.6988   -0.0048    2.4716 C   0  0  0  0  0  0  0  0  0  0  0  0
    4.1080   -0.0507    3.6459 N   0  0  0  0  0  0  0  0  0  0  0  0
    4.9121   -0.0131    4.7723 C   0  0  0  0  0  0  0  0  0  0  0  0
    6.2782    0.0367    4.7297 C   0  0  0  0  0  0  0  0  0  0  0  0
    6.9242    0.0579    3.4585 C   0  0  0  0  0  0  0  0  0  0  0  0
    8.0643    0.0868    3.1112 O   0  0  0  0  0  0  0  0  0  0  0  0
    6.0245    0.0462    2.3232 O   0  0  0  0  0  0  0  0  0  0  0  0
    4.2750   -0.1279    5.9481 O   0  0  0  0  0  0  0  0  0  0  0  0
    2.9813    0.4181    6.1013 C   0  0  0  0  0  0  0  0  0  0  0  0
    2.6794    1.4340    5.5630 O   0  0  0  0  0  0  0  0  0  0  0  0
    2.2472   -0.4338    7.0653 C   0  0  0  0  0  0  0  0  0  0  0  0
    2.0318    0.0101    2.1726 H   0  0  0  0  0  0  0  0  0  0  0  0
    5.7645   -0.0212   -0.0096 H   0  0  0  0  0  0  0  0  0  0  0  0
    4.5123   -0.0032   -2.1574 H   0  0  0  0  0  0  0  0  0  0  0  0
    2.0331    0.0048   -2.1639 H   0  0  0  0  0  0  0  0  0  0  0  0
    6.8979    0.0682    5.6212 H   0  0  0  0  0  0  0  0  0  0  0  0
    2.8670   -0.7142    7.9344 H   0  0  0  0  0  0  0  0  0  0  0  0
    1.9289   -1.3789    6.5882 H   0  0  0  0  0  0  0  0  0  0  0  0
    1.3438    0.0762    7.4387 H   0  0  0  0  0  0  0  0  0  0  0  0
  2  1  1  0  0  0  0
  2  3  2  0  0  0  0
  3 19  1  0  0  0  0
  4  3  1  0  0  0  0
  4  8  1  0  0  0  0
  5  4  2  0  0  0  0
  6  5  1  0  0  0  0
  7  6  2  0  0  0  0
  7  2  1  0  0  0  0
  8  9  2  0  0  0  0
  9 10  2  0  0  0  0
 10 15  1  0  0  0  0
 11 10  1  0  0  0  0
 11 23  1  0  0  0  0
 12 11  1  0  0  0  0
 13 12  2  0  0  0  0
 14  8  1  0  0  0  0
 14 12  1  0  0  0  0
 15 16  1  0  0  0  0
 16 18  1  0  0  0  0
 17 16  2  0  0  0  0
 18 26  1  0  0  0  0
 18 24  1  0  0  0  0
 20  5  1  0  0  0  0
 21  6  1  0  0  0  0
 22  7  1  0  0  0  0
 25 18  1  0  0  0  0
M  RAD  1  11   2
M  END
$$$$
