26
rmsd115.gzmat
Br         0.00000        0.00000        0.00000
C          1.89620        0.00000        0.00000
C          2.56720        0.00000        1.21490
C          3.96740       -0.00880        1.20130
C          4.66900       -0.01300       -0.00910
C          3.96820       -0.00560       -1.21280
C          2.57340       -0.00020       -1.21560
C          4.69880       -0.00480        2.47160
N          4.10800       -0.05070        3.64590
C          4.91210       -0.01310        4.77230
C          6.27820        0.03670        4.72970
C          6.92420        0.05790        3.45850
O          8.06430        0.08680        3.11120
O          6.02450        0.04620        2.32320
O          4.27500       -0.12790        5.94810
C          2.98130        0.41810        6.10130
O          2.67940        1.43400        5.56300
C          2.24720       -0.43380        7.06530
H          2.03180        0.01010        2.17260
H          5.76450       -0.02120       -0.00960
H          4.51230       -0.00320       -2.15740
H          2.03310        0.00480       -2.16390
H          6.89790        0.06820        5.62120
H          2.86700       -0.71420        7.93440
H          1.92890       -1.37890        6.58820
H          1.34380        0.07620        7.43870
