26
rmsd63.gzmat
Br         0.00000        0.00000        0.00000
C          1.89600        0.00000        0.00000
C          2.56690        0.00000        1.21530
C          3.96680       -0.00650        1.20140
C          4.66760       -0.01590       -0.00950
C          3.96700       -0.01110       -1.21330
C          2.57240       -0.00280       -1.21580
C          4.70170       -0.00420        2.47020
N          4.13340        0.20500        3.63780
C          4.94280        0.16890        4.75910
C          6.29310       -0.04360        4.71690
C          6.91660       -0.24950        3.45070
O          8.04160       -0.44310        3.10690
O          6.01070       -0.22640        2.32280
O          4.35360        0.46040        5.93170
C          3.04050        0.04150        6.20330
O          2.57180       -0.91790        5.67990
C          2.50730        0.93510        7.25960
H          2.03130        0.00370        2.17320
H          5.76260       -0.02820       -0.01020
H          4.51030       -0.01510       -2.15850
H          2.03240        0.00060       -2.16420
H          6.91510       -0.06730        5.60700
H          3.29810        1.48750        7.79580
H          1.92830        0.36510        8.00480
H          1.83150        1.69000        6.81970
