rmsd111.gzmat
 OpenBabel08211713373D

 26 27  0  0  0  0  0  0  0  0999 V2000
    0.0000    0.0000    0.0000 Br  0  0  0  0  0  0  0  0  0  0  0  0
    1.8959    0.0000    0.0000 C   0  0  0  0  0  0  0  0  0  0  0  0
    2.5644    0.0000    1.2164 C   0  0  0  0  0  0  0  0  0  0  0  0
    3.9641   -0.0045    1.2052 C   0  0  0  0  0  0  0  0  0  0  0  0
    4.6681   -0.0014   -0.0039 C   0  0  0  0  0  0  0  0  0  0  0  0
    3.9699    0.0015   -1.2089 C   0  0  0  0  0  0  0  0  0  0  0  0
    2.5749    0.0013   -1.2144 C   0  0  0  0  0  0  0  0  0  0  0  0
    4.6933   -0.0028    2.4769 C   0  0  0  0  0  0  0  0  0  0  0  0
    4.1130   -0.1594    3.6469 N   0  0  0  0  0  0  0  0  0  0  0  0
    4.9157   -0.1056    4.7722 C   0  0  0  0  0  0  0  0  0  0  0  0
    6.2727    0.0653    4.7310 C   0  0  0  0  0  0  0  0  0  0  0  0
    6.9092    0.2045    3.4626 C   0  0  0  0  0  0  0  0  0  0  0  0
    8.0414    0.3496    3.1182 O   0  0  0  0  0  0  0  0  0  0  0  0
    6.0092    0.1709    2.3300 O   0  0  0  0  0  0  0  0  0  0  0  0
    4.3132   -0.3284    5.9518 O   0  0  0  0  0  0  0  0  0  0  0  0
    2.9845    0.0748    6.1769 C   0  0  0  0  0  0  0  0  0  0  0  0
    2.4992    0.9881    5.5909 O   0  0  0  0  0  0  0  0  0  0  0  0
    2.4617   -0.7599    7.2858 C   0  0  0  0  0  0  0  0  0  0  0  0
    2.0288    0.0070    2.1743 H   0  0  0  0  0  0  0  0  0  0  0  0
    5.7633    0.0012   -0.0025 H   0  0  0  0  0  0  0  0  0  0  0  0
    4.5161    0.0065   -2.1524 H   0  0  0  0  0  0  0  0  0  0  0  0
    2.0373    0.0039   -2.1642 H   0  0  0  0  0  0  0  0  0  0  0  0
    6.8917    0.1044    5.6228 H   0  0  0  0  0  0  0  0  0  0  0  0
    3.0304   -0.5969    8.2177 H   0  0  0  0  0  0  0  0  0  0  0  0
    2.5358   -1.8370    7.0567 H   0  0  0  0  0  0  0  0  0  0  0  0
    1.4028   -0.5275    7.4877 H   0  0  0  0  0  0  0  0  0  0  0  0
  2  1  1  0  0  0  0
  2  3  2  0  0  0  0
  3 19  1  0  0  0  0
  4  3  1  0  0  0  0
  4  8  1  0  0  0  0
  5 20  1  0  0  0  0
  5  4  2  0  0  0  0
  6  5  1  0  0  0  0
  7  6  2  0  0  0  0
  7  2  1  0  0  0  0
  8  9  2  0  0  0  0
  9 10  2  0  0  0  0
 10 15  1  0  0  0  0
 11 10  1  0  0  0  0
 11 23  1  0  0  0  0
 12 11  1  0  0  0  0
 13 12  2  0  0  0  0
 14  8  1  0  0  0  0
 14 12  1  0  0  0  0
 15 16  1  0  0  0  0
 16 18  1  0  0  0  0
 17 16  2  0  0  0  0
 18 26  1  0  0  0  0
 18 24  1  0  0  0  0
 21  6  1  0  0  0  0
 22  7  1  0  0  0  0
 25 18  1  0  0  0  0
M  RAD  1  11   2
M  END
$$$$
