rmsd63.gzmat
 OpenBabel08211713373D

 26 27  0  0  0  0  0  0  0  0999 V2000
    0.0000    0.0000    0.0000 Br  0  0  0  0  0  0  0  0  0  0  0  0
    1.8960    0.0000    0.0000 C   0  0  0  0  0  0  0  0  0  0  0  0
    2.5669    0.0000    1.2153 C   0  0  0  0  0  0  0  0  0  0  0  0
    3.9668   -0.0065    1.2014 C   0  0  0  0  0  0  0  0  0  0  0  0
    4.6676   -0.0159   -0.0095 C   0  0  0  0  0  0  0  0  0  0  0  0
    3.9670   -0.0111   -1.2133 C   0  0  0  0  0  0  0  0  0  0  0  0
    2.5724   -0.0028   -1.2158 C   0  0  0  0  0  0  0  0  0  0  0  0
    4.7017   -0.0042    2.4702 C   0  0  0  0  0  0  0  0  0  0  0  0
    4.1334    0.2050    3.6378 N   0  0  0  0  0  0  0  0  0  0  0  0
    4.9428    0.1689    4.7591 C   0  0  0  0  0  0  0  0  0  0  0  0
    6.2931   -0.0436    4.7169 C   0  0  0  0  0  0  0  0  0  0  0  0
    6.9166   -0.2495    3.4507 C   0  0  0  0  0  0  0  0  0  0  0  0
    8.0416   -0.4431    3.1069 O   0  0  0  0  0  0  0  0  0  0  0  0
    6.0107   -0.2264    2.3228 O   0  0  0  0  0  0  0  0  0  0  0  0
    4.3536    0.4604    5.9317 O   0  0  0  0  0  0  0  0  0  0  0  0
    3.0405    0.0415    6.2033 C   0  0  0  0  0  0  0  0  0  0  0  0
    2.5718   -0.9179    5.6799 O   0  0  0  0  0  0  0  0  0  0  0  0
    2.5073    0.9351    7.2596 C   0  0  0  0  0  0  0  0  0  0  0  0
    2.0313    0.0037    2.1732 H   0  0  0  0  0  0  0  0  0  0  0  0
    5.7626   -0.0282   -0.0102 H   0  0  0  0  0  0  0  0  0  0  0  0
    4.5103   -0.0151   -2.1585 H   0  0  0  0  0  0  0  0  0  0  0  0
    2.0324    0.0006   -2.1642 H   0  0  0  0  0  0  0  0  0  0  0  0
    6.9151   -0.0673    5.6070 H   0  0  0  0  0  0  0  0  0  0  0  0
    3.2981    1.4875    7.7958 H   0  0  0  0  0  0  0  0  0  0  0  0
    1.9283    0.3651    8.0048 H   0  0  0  0  0  0  0  0  0  0  0  0
    1.8315    1.6900    6.8197 H   0  0  0  0  0  0  0  0  0  0  0  0
  2  1  1  0  0  0  0
  2  3  2  0  0  0  0
  3 19  1  0  0  0  0
  4  3  1  0  0  0  0
  4  8  1  0  0  0  0
  5  4  2  0  0  0  0
  6  5  1  0  0  0  0
  7  6  2  0  0  0  0
  7  2  1  0  0  0  0
  8  9  2  0  0  0  0
  9 10  2  0  0  0  0
 10 15  1  0  0  0  0
 11 10  1  0  0  0  0
 11 23  1  0  0  0  0
 12 11  1  0  0  0  0
 13 12  2  0  0  0  0
 14  8  1  0  0  0  0
 14 12  1  0  0  0  0
 15 16  1  0  0  0  0
 16 18  1  0  0  0  0
 17 16  2  0  0  0  0
 18 24  1  0  0  0  0
 18 25  1  0  0  0  0
 20  5  1  0  0  0  0
 21  6  1  0  0  0  0
 22  7  1  0  0  0  0
 26 18  1  0  0  0  0
M  RAD  1  11   2
M  END
$$$$
