26
rmsd134.gzmat
Br         0.00000        0.00000        0.00000
C          1.89590        0.00000        0.00000
C          2.56670        0.00000        1.21510
C          3.96660       -0.00410        1.20120
C          4.66820       -0.01270       -0.00910
C          3.96760       -0.01170       -1.21290
C          2.57290       -0.00360       -1.21530
C          4.70020       -0.00840        2.47030
N          4.12420        0.14480        3.64270
C          4.93250        0.09650        4.76500
C          6.28950       -0.07190        4.71890
C          6.92020       -0.21360        3.44780
O          8.05030       -0.36060        3.09820
O          6.01600       -0.17870        2.31900
O          4.32770        0.32860        5.94120
C          3.00230       -0.08960        6.16420
O          2.55520       -1.05100        5.62640
C          2.42920        0.80120        7.20160
H          2.03070        0.00020        2.17270
H          5.76340       -0.02240       -0.00950
H          4.51140       -0.01920       -2.15780
H          2.03290       -0.00270       -2.16350
H          6.91270       -0.10800        5.60800
H          3.11070        1.61940        7.49270
H          2.18230        0.23480        8.11520
H          1.49550        1.26450        6.83580
