rmsd12.gzmat
 OpenBabel08211713373D

 26 27  0  0  0  0  0  0  0  0999 V2000
    0.0000    0.0000    0.0000 Br  0  0  0  0  0  0  0  0  0  0  0  0
    1.8962    0.0000    0.0000 C   0  0  0  0  0  0  0  0  0  0  0  0
    2.5656    0.0000    1.2157 C   0  0  0  0  0  0  0  0  0  0  0  0
    3.9658   -0.0022    1.2047 C   0  0  0  0  0  0  0  0  0  0  0  0
    4.6704   -0.0017   -0.0035 C   0  0  0  0  0  0  0  0  0  0  0  0
    3.9709   -0.0015   -1.2082 C   0  0  0  0  0  0  0  0  0  0  0  0
    2.5760    0.0008   -1.2138 C   0  0  0  0  0  0  0  0  0  0  0  0
    4.6879    0.0021    2.4805 C   0  0  0  0  0  0  0  0  0  0  0  0
    4.1047   -0.2248    3.6375 N   0  0  0  0  0  0  0  0  0  0  0  0
    4.8881   -0.1600    4.7762 C   0  0  0  0  0  0  0  0  0  0  0  0
    6.2328    0.0921    4.7590 C   0  0  0  0  0  0  0  0  0  0  0  0
    6.8744    0.3086    3.5041 C   0  0  0  0  0  0  0  0  0  0  0  0
    7.9996    0.5320    3.1801 O   0  0  0  0  0  0  0  0  0  0  0  0
    5.9923    0.2551    2.3558 O   0  0  0  0  0  0  0  0  0  0  0  0
    4.2752   -0.4578    5.9320 O   0  0  0  0  0  0  0  0  0  0  0  0
    2.9050   -0.1703    6.1093 C   0  0  0  0  0  0  0  0  0  0  0  0
    2.4014    0.7772    5.5985 O   0  0  0  0  0  0  0  0  0  0  0  0
    2.3693   -1.1688    7.0648 C   0  0  0  0  0  0  0  0  0  0  0  0
    2.0300    0.0036    2.1736 H   0  0  0  0  0  0  0  0  0  0  0  0
    5.7655    0.0007   -0.0016 H   0  0  0  0  0  0  0  0  0  0  0  0
    4.5152   -0.0024   -2.1528 H   0  0  0  0  0  0  0  0  0  0  0  0
    2.0384    0.0049   -2.1635 H   0  0  0  0  0  0  0  0  0  0  0  0
    6.8387    0.1412    5.6591 H   0  0  0  0  0  0  0  0  0  0  0  0
    3.0863   -1.4074    7.8690 H   0  0  0  0  0  0  0  0  0  0  0  0
    2.1463   -2.1207    6.5494 H   0  0  0  0  0  0  0  0  0  0  0  0
    1.4362   -0.8132    7.5320 H   0  0  0  0  0  0  0  0  0  0  0  0
  2  1  1  0  0  0  0
  2  3  2  0  0  0  0
  3 19  1  0  0  0  0
  4  3  1  0  0  0  0
  4  8  1  0  0  0  0
  5 20  1  0  0  0  0
  5  4  2  0  0  0  0
  6  5  1  0  0  0  0
  7  6  2  0  0  0  0
  7  2  1  0  0  0  0
  8  9  2  0  0  0  0
  9 10  2  0  0  0  0
 10 15  1  0  0  0  0
 11 10  1  0  0  0  0
 11 23  1  0  0  0  0
 12 11  1  0  0  0  0
 13 12  2  0  0  0  0
 14  8  1  0  0  0  0
 14 12  1  0  0  0  0
 15 16  1  0  0  0  0
 16 18  1  0  0  0  0
 17 16  2  0  0  0  0
 18 26  1  0  0  0  0
 18 24  1  0  0  0  0
 21  6  1  0  0  0  0
 22  7  1  0  0  0  0
 25 18  1  0  0  0  0
M  RAD  1  11   2
M  END
$$$$
