26

Br        -0.00520        0.27420        0.01370
C          1.89240        0.11920       -0.00820
C          2.59560        0.15130        1.19210
C          3.99620        0.03640        1.16850
C          4.67370       -0.11240       -0.05250
C          3.94880       -0.14240       -1.24340
C          2.55640       -0.02670       -1.23180
C          4.73110        0.07260        2.44380
N          4.12300        0.25780        3.57270
C          4.88730        0.25760        4.69500
C          6.24270        0.10190        4.70290
C          6.93700       -0.07640        3.45150
O          8.10370       -0.21580        3.23290
O          6.05250       -0.09220        2.32480
O          4.23180        0.49810        5.86620
C          3.16340       -0.31400        6.21710
O          2.94970       -1.36190        5.68550
C          2.39090        0.31800        7.33780
H          2.08660        0.25880        2.14920
H          5.75980       -0.20260       -0.05650
H          4.47040       -0.25730       -2.19590
H          1.98700       -0.05020       -2.16200
H          6.82200        0.10950        5.62390
H          1.90260        1.23310        6.96720
H          3.07220        0.61660        8.14810
H          1.63590       -0.38570        7.70640
