rmsd173.gzmat
 OpenBabel08211713373D

 51 53  0  0  0  0  0  0  0  0999 V2000
    0.0000    0.0000    0.0000 C   0  0  0  0  0  0  0  0  0  0  0  0
    1.3927    0.0000    0.0000 C   0  0  0  0  0  0  0  0  0  0  0  0
    2.0486    0.0000    1.2273 C   0  0  0  0  0  0  0  0  0  0  0  0
    1.3687   -0.0082    2.4474 C   0  0  0  0  0  0  0  0  0  0  0  0
   -0.0209   -0.0013    2.4259 C   0  0  0  0  0  0  0  0  0  0  0  0
   -0.7052    0.0042    1.2058 C   0  0  0  0  0  0  0  0  0  0  0  0
   -2.1742    0.0477    1.1996 C   0  0  0  0  0  0  0  0  0  0  0  0
   -2.9468   -1.0190    0.9417 C   0  0  0  0  0  0  0  0  0  0  0  0
   -2.3876   -2.3752    0.6354 C   0  0  0  0  0  0  0  0  0  0  0  0
   -2.9537   -3.4071    1.6237 C   0  0  0  0  0  0  0  0  0  0  0  0
   -4.4874   -3.3933    1.6032 C   0  0  0  0  0  0  0  0  0  0  0  0
   -5.0107   -1.9886    1.9282 C   0  0  0  0  0  0  0  0  0  0  0  0
   -4.4443   -0.9589    0.9379 C   0  0  0  0  0  0  0  0  0  0  0  0
   -2.7116    1.3801    1.5095 C   0  0  0  0  0  0  0  0  0  0  0  0
   -3.2654    1.6348    2.7669 C   0  0  0  0  0  0  0  0  0  0  0  0
   -3.7548    2.9015    3.0748 C   0  0  0  0  0  0  0  0  0  0  0  0
   -3.6762    3.8899    2.0980 C   0  0  0  0  0  0  0  0  0  0  0  0
   -3.1302    3.6626    0.8332 C   0  0  0  0  0  0  0  0  0  0  0  0
   -2.6403    2.3936    0.5478 C   0  0  0  0  0  0  0  0  0  0  0  0
   -4.0374    5.1993    2.3332 O   0  0  0  0  0  0  0  0  0  0  0  0
   -5.2007    5.4847    2.9965 C   0  0  0  0  0  0  0  0  0  0  0  0
   -5.9517    4.6413    3.3981 O   0  0  0  0  0  0  0  0  0  0  0  0
   -5.3310    6.9648    3.0925 C   0  0  0  0  0  0  0  0  0  0  0  0
    3.4168    0.1103    1.3480 O   0  0  0  0  0  0  0  0  0  0  0  0
    4.2500   -0.5784    0.5087 C   0  0  0  0  0  0  0  0  0  0  0  0
    3.8568   -1.3042   -0.3601 O   0  0  0  0  0  0  0  0  0  0  0  0
    5.6554   -0.2648    0.8892 C   0  0  0  0  0  0  0  0  0  0  0  0
   -0.5429    0.0005   -0.9440 H   0  0  0  0  0  0  0  0  0  0  0  0
    1.9490   -0.0073   -0.9347 H   0  0  0  0  0  0  0  0  0  0  0  0
    1.9219   -0.0092    3.3825 H   0  0  0  0  0  0  0  0  0  0  0  0
   -0.5829    0.0036    3.3591 H   0  0  0  0  0  0  0  0  0  0  0  0
   -1.2794   -2.3858    0.6774 H   0  0  0  0  0  0  0  0  0  0  0  0
   -2.6478   -2.6596   -0.4046 H   0  0  0  0  0  0  0  0  0  0  0  0
   -2.5755   -4.4146    1.3750 H   0  0  0  0  0  0  0  0  0  0  0  0
   -2.5873   -3.1836    2.6437 H   0  0  0  0  0  0  0  0  0  0  0  0
   -4.8559   -3.7149    0.6118 H   0  0  0  0  0  0  0  0  0  0  0  0
   -4.8843   -4.1258    2.3287 H   0  0  0  0  0  0  0  0  0  0  0  0
   -6.1148   -1.9732    1.8993 H   0  0  0  0  0  0  0  0  0  0  0  0
   -4.7263   -1.7079    2.9602 H   0  0  0  0  0  0  0  0  0  0  0  0
   -4.8215   -1.1640   -0.0846 H   0  0  0  0  0  0  0  0  0  0  0  0
   -4.8204    0.0528    1.1926 H   0  0  0  0  0  0  0  0  0  0  0  0
   -3.3129    0.8377    3.5078 H   0  0  0  0  0  0  0  0  0  0  0  0
   -4.1936    3.1092    4.0480 H   0  0  0  0  0  0  0  0  0  0  0  0
   -3.0863    4.4655    0.1028 H   0  0  0  0  0  0  0  0  0  0  0  0
   -2.1957    2.1845   -0.4245 H   0  0  0  0  0  0  0  0  0  0  0  0
   -6.0864    7.3317    2.3784 H   0  0  0  0  0  0  0  0  0  0  0  0
   -4.3879    7.4911    2.8725 H   0  0  0  0  0  0  0  0  0  0  0  0
   -5.6594    7.2617    4.1014 H   0  0  0  0  0  0  0  0  0  0  0  0
    5.7417    0.6782    1.4534 H   0  0  0  0  0  0  0  0  0  0  0  0
    6.2932   -0.1877   -0.0057 H   0  0  0  0  0  0  0  0  0  0  0  0
    6.0717   -1.0646    1.5236 H   0  0  0  0  0  0  0  0  0  0  0  0
  1  2  2  0  0  0  0
  1  6  1  0  0  0  0
  2  3  1  0  0  0  0
  3 24  1  0  0  0  0
  3  4  2  0  0  0  0
  4 30  1  0  0  0  0
  5  4  1  0  0  0  0
  5 31  1  0  0  0  0
  6  5  2  0  0  0  0
  7  6  1  0  0  0  0
  7 14  1  0  0  0  0
  8  7  2  0  0  0  0
  9 32  1  0  0  0  0
  9  8  1  0  0  0  0
  9 10  1  0  0  0  0
 10 35  1  0  0  0  0
 11 10  1  0  0  0  0
 11 12  1  0  0  0  0
 11 37  1  0  0  0  0
 12 39  1  0  0  0  0
 13  8  1  0  0  0  0
 13 41  1  0  0  0  0
 13 12  1  0  0  0  0
 14 15  2  0  0  0  0
 15 16  1  0  0  0  0
 15 42  1  0  0  0  0
 16 43  1  0  0  0  0
 17 20  1  0  0  0  0
 17 16  2  0  0  0  0
 18 17  1  0  0  0  0
 19 18  2  0  0  0  0
 19 14  1  0  0  0  0
 20 21  1  0  0  0  0
 21 23  1  0  0  0  0
 21 22  2  0  0  0  0
 23 48  1  0  0  0  0
 25 27  1  0  0  0  0
 25 24  1  0  0  0  0
 26 25  2  0  0  0  0
 27 49  1  0  0  0  0
 27 51  1  0  0  0  0
 28  1  1  0  0  0  0
 29  2  1  0  0  0  0
 33  9  1  0  0  0  0
 34 10  1  0  0  0  0
 36 11  1  0  0  0  0
 38 12  1  0  0  0  0
 40 13  1  0  0  0  0
 44 18  1  0  0  0  0
 45 19  1  0  0  0  0
 46 23  1  0  0  0  0
 47 23  1  0  0  0  0
 50 27  1  0  0  0  0
M  END
$$$$
