51

C          0.02230       -0.33790       -0.00640
C          1.41710       -0.32470       -0.05700
C          2.13130        0.07910        1.07350
C          1.45940        0.47950        2.23100
C          0.06710        0.46920        2.26160
C         -0.67970        0.04050        1.15010
C         -2.17060        0.04780        1.19360
C         -2.92280       -1.02670        0.84460
C         -2.35390       -2.40230        0.57690
C         -3.01200       -3.44610        1.50110
C         -4.53800       -3.43560        1.38620
C         -5.10200       -2.03500        1.63940
C         -4.43000       -0.99590        0.72690
C         -2.76510        1.33890        1.64700
C         -3.67450        1.39710        2.71640
C         -4.20700        2.61340        3.14290
C         -3.82770        3.79640        2.50740
C         -2.90810        3.77310        1.45450
C         -2.38260        2.54920        1.04280
O         -4.35510        4.96750        3.03220
C         -4.77900        5.99440        2.23910
O         -4.73200        5.98640        1.03970
C         -5.30690        7.11290        3.09890
O          3.51440        0.18210        1.10740
C          4.33130       -0.75340        0.54200
O          3.94260       -1.73130       -0.03580
C          5.77050       -0.36640        0.76100
H         -0.53870       -0.63830       -0.89350
H          1.93990       -0.62750       -0.96180
H          2.04380        0.80190        3.09450
H         -0.45550        0.79370        3.16380
H         -1.26540       -2.42400        0.70960
H         -2.55760       -2.68520       -0.47340
H         -2.61310       -4.44750        1.27010
H         -2.72300       -3.22330        2.54370
H         -4.82760       -3.76270        0.37050
H         -4.98130       -4.16310        2.08640
H         -6.19360       -2.02210        1.48490
H         -4.92790       -1.75560        2.69400
H         -4.68130       -1.25150       -0.32110
H         -4.83380        0.00740        0.90940
H         -3.95760        0.47570        3.22850
H         -4.90950        2.66370        3.97670
H         -2.61430        4.69600        0.95860
H         -1.65820        2.52860        0.22580
H         -4.51900        7.45900        3.78520
H         -6.13950        6.74720        3.71880
H         -5.64370        7.93830        2.46110
H          5.96040        0.62530        0.32290
H          6.42590       -1.11560        0.30210
H          5.97730       -0.28970        1.83930
