51
rmsd108.gzmat
C          0.00000        0.00000        0.00000
C          1.39270        0.00000        0.00000
C          2.04860        0.00000        1.22740
C          1.37010       -0.00760        2.44810
C         -0.01960        0.00080        2.42660
C         -0.70450        0.00440        1.20650
C         -2.17380        0.04430        1.20280
C         -2.94240       -1.02460        0.94070
C         -2.37980       -2.38020        0.63810
C         -2.93300       -3.40520        1.64140
C         -4.46710       -3.39990        1.63300
C         -4.99940       -1.99390        1.93860
C         -4.44030       -0.97230        0.93560
C         -2.71650        1.37090        1.52730
C         -3.32500        1.58850        2.76810
C         -3.83360        2.84220        3.08730
C         -3.70100        3.86700        2.14770
C         -3.09370        3.67990        0.90920
C         -2.60250        2.41350        0.60350
O         -4.13190        5.09760        2.59320
C         -4.79270        5.95160        1.75160
O         -5.04500        5.68770        0.61020
C         -5.11600        7.19160        2.51030
O          3.41740        0.11160        1.34220
C          4.24280       -0.61300        0.52520
O          3.84010       -1.36600       -0.31580
C          5.65140       -0.29910        0.89340
H         -0.54290        0.00030       -0.94410
H          1.95100       -0.00680       -0.93360
H          1.92430       -0.01090        3.38220
H         -0.58160        0.00790        3.35940
H         -1.27130       -2.38490        0.66880
H         -2.64850       -2.67630       -0.39640
H         -2.55280       -4.41370        1.39900
H         -2.55870       -3.17100        2.65610
H         -4.84210       -3.74170        0.65070
H         -4.85340       -4.12240        2.37430
H         -6.10350       -1.98640        1.90900
H         -4.71770       -1.69890        2.96710
H         -4.81740       -1.19180       -0.08410
H         -4.82150        0.04050        1.17700
H         -3.40060        0.76920        3.48180
H         -4.31840        3.03280        4.04030
H         -3.01100        4.49710        0.19570
H         -2.12270        2.23260       -0.35840
H         -4.68160        7.19800        3.52330
H         -6.20690        7.30800        2.61460
H         -4.74030        8.07980        1.97700
H          5.74730        0.66640        1.41660
H          6.29220       -0.26860       -0.00200
H          6.05560       -1.07560        1.56330
