
     RDKit          3D

 51 53  0  0  0  0  0  0  0  0999 V2000
    0.0223   -0.3379   -0.0064 C   0  0  0  0  0  0  0  0  0  0  0  0
    1.4171   -0.3247   -0.0570 C   0  0  0  0  0  0  0  0  0  0  0  0
    2.1313    0.0791    1.0735 C   0  0  0  0  0  0  0  0  0  0  0  0
    1.4594    0.4795    2.2310 C   0  0  0  0  0  0  0  0  0  0  0  0
    0.0671    0.4692    2.2616 C   0  0  0  0  0  0  0  0  0  0  0  0
   -0.6797    0.0405    1.1501 C   0  0  0  0  0  0  0  0  0  0  0  0
   -2.1706    0.0478    1.1936 C   0  0  0  0  0  0  0  0  0  0  0  0
   -2.9228   -1.0267    0.8446 C   0  0  0  0  0  0  0  0  0  0  0  0
   -2.3539   -2.4023    0.5769 C   0  0  0  0  0  0  0  0  0  0  0  0
   -3.0120   -3.4461    1.5011 C   0  0  0  0  0  0  0  0  0  0  0  0
   -4.5380   -3.4356    1.3862 C   0  0  0  0  0  0  0  0  0  0  0  0
   -5.1020   -2.0350    1.6394 C   0  0  0  0  0  0  0  0  0  0  0  0
   -4.4300   -0.9959    0.7269 C   0  0  0  0  0  0  0  0  0  0  0  0
   -2.7651    1.3389    1.6470 C   0  0  0  0  0  0  0  0  0  0  0  0
   -3.6745    1.3971    2.7164 C   0  0  0  0  0  0  0  0  0  0  0  0
   -4.2070    2.6134    3.1429 C   0  0  0  0  0  0  0  0  0  0  0  0
   -3.8277    3.7964    2.5074 C   0  0  0  0  0  0  0  0  0  0  0  0
   -2.9081    3.7731    1.4545 C   0  0  0  0  0  0  0  0  0  0  0  0
   -2.3826    2.5492    1.0428 C   0  0  0  0  0  0  0  0  0  0  0  0
   -4.3551    4.9675    3.0322 O   0  0  0  0  0  0  0  0  0  0  0  0
   -4.7790    5.9944    2.2391 C   0  0  0  0  0  0  0  0  0  0  0  0
   -4.7320    5.9864    1.0397 O   0  0  0  0  0  0  0  0  0  0  0  0
   -5.3069    7.1129    3.0989 C   0  0  0  0  0  0  0  0  0  0  0  0
    3.5144    0.1821    1.1074 O   0  0  0  0  0  0  0  0  0  0  0  0
    4.3313   -0.7534    0.5420 C   0  0  0  0  0  0  0  0  0  0  0  0
    3.9426   -1.7313   -0.0358 O   0  0  0  0  0  0  0  0  0  0  0  0
    5.7705   -0.3664    0.7610 C   0  0  0  0  0  0  0  0  0  0  0  0
   -0.5387   -0.6383   -0.8935 H   0  0  0  0  0  0  0  0  0  0  0  0
    1.9399   -0.6275   -0.9618 H   0  0  0  0  0  0  0  0  0  0  0  0
    2.0438    0.8019    3.0945 H   0  0  0  0  0  0  0  0  0  0  0  0
   -0.4555    0.7937    3.1638 H   0  0  0  0  0  0  0  0  0  0  0  0
   -1.2654   -2.4240    0.7096 H   0  0  0  0  0  0  0  0  0  0  0  0
   -2.5576   -2.6852   -0.4734 H   0  0  0  0  0  0  0  0  0  0  0  0
   -2.6131   -4.4475    1.2701 H   0  0  0  0  0  0  0  0  0  0  0  0
   -2.7230   -3.2233    2.5437 H   0  0  0  0  0  0  0  0  0  0  0  0
   -4.8276   -3.7627    0.3705 H   0  0  0  0  0  0  0  0  0  0  0  0
   -4.9813   -4.1631    2.0864 H   0  0  0  0  0  0  0  0  0  0  0  0
   -6.1936   -2.0221    1.4849 H   0  0  0  0  0  0  0  0  0  0  0  0
   -4.9279   -1.7556    2.6940 H   0  0  0  0  0  0  0  0  0  0  0  0
   -4.6813   -1.2515   -0.3211 H   0  0  0  0  0  0  0  0  0  0  0  0
   -4.8338    0.0074    0.9094 H   0  0  0  0  0  0  0  0  0  0  0  0
   -3.9576    0.4757    3.2285 H   0  0  0  0  0  0  0  0  0  0  0  0
   -4.9095    2.6637    3.9767 H   0  0  0  0  0  0  0  0  0  0  0  0
   -2.6143    4.6960    0.9586 H   0  0  0  0  0  0  0  0  0  0  0  0
   -1.6582    2.5286    0.2258 H   0  0  0  0  0  0  0  0  0  0  0  0
   -4.5190    7.4590    3.7852 H   0  0  0  0  0  0  0  0  0  0  0  0
   -6.1395    6.7472    3.7188 H   0  0  0  0  0  0  0  0  0  0  0  0
   -5.6437    7.9383    2.4611 H   0  0  0  0  0  0  0  0  0  0  0  0
    5.9604    0.6253    0.3229 H   0  0  0  0  0  0  0  0  0  0  0  0
    6.4259   -1.1156    0.3021 H   0  0  0  0  0  0  0  0  0  0  0  0
    5.9773   -0.2897    1.8393 H   0  0  0  0  0  0  0  0  0  0  0  0
  1  2  2  0
  1  6  1  0
  1 28  1  0
  2  3  1  0
  2 29  1  0
  3  4  2  0
  3 24  1  0
  4  5  1  0
  4 30  1  0
  5  6  2  0
  5 31  1  0
  6  7  1  0
  7  8  2  3
  7 14  1  0
  8  9  1  0
  8 13  1  0
  9 10  1  0
  9 32  1  0
  9 33  1  0
 10 11  1  0
 10 34  1  0
 10 35  1  0
 11 12  1  0
 11 36  1  0
 11 37  1  0
 12 13  1  0
 12 38  1  0
 12 39  1  0
 13 40  1  0
 13 41  1  0
 14 15  2  0
 14 19  1  0
 15 16  1  0
 15 42  1  0
 16 17  2  0
 16 43  1  0
 17 18  1  0
 17 20  1  0
 18 19  2  0
 18 44  1  0
 19 45  1  0
 20 21  1  0
 21 22  2  0
 21 23  1  0
 23 46  1  0
 23 47  1  0
 23 48  1  0
 24 25  1  0
 25 26  2  0
 25 27  1  0
 27 49  1  0
 27 50  1  0
 27 51  1  0
M  END

