rmsd108.gzmat
 OpenBabel08211713373D

 51 53  0  0  0  0  0  0  0  0999 V2000
    0.0000    0.0000    0.0000 C   0  0  0  0  0  0  0  0  0  0  0  0
    1.3927    0.0000    0.0000 C   0  0  0  0  0  0  0  0  0  0  0  0
    2.0486    0.0000    1.2274 C   0  0  0  0  0  0  0  0  0  0  0  0
    1.3701   -0.0076    2.4481 C   0  0  0  0  0  0  0  0  0  0  0  0
   -0.0196    0.0008    2.4266 C   0  0  0  0  0  0  0  0  0  0  0  0
   -0.7045    0.0044    1.2065 C   0  0  0  0  0  0  0  0  0  0  0  0
   -2.1738    0.0443    1.2028 C   0  0  0  0  0  0  0  0  0  0  0  0
   -2.9424   -1.0246    0.9407 C   0  0  0  0  0  0  0  0  0  0  0  0
   -2.3798   -2.3802    0.6381 C   0  0  0  0  0  0  0  0  0  0  0  0
   -2.9330   -3.4052    1.6414 C   0  0  0  0  0  0  0  0  0  0  0  0
   -4.4671   -3.3999    1.6330 C   0  0  0  0  0  0  0  0  0  0  0  0
   -4.9994   -1.9939    1.9386 C   0  0  0  0  0  0  0  0  0  0  0  0
   -4.4403   -0.9723    0.9356 C   0  0  0  0  0  0  0  0  0  0  0  0
   -2.7165    1.3709    1.5273 C   0  0  0  0  0  0  0  0  0  0  0  0
   -3.3250    1.5885    2.7681 C   0  0  0  0  0  0  0  0  0  0  0  0
   -3.8336    2.8422    3.0873 C   0  0  0  0  0  0  0  0  0  0  0  0
   -3.7010    3.8670    2.1477 C   0  0  0  0  0  0  0  0  0  0  0  0
   -3.0937    3.6799    0.9092 C   0  0  0  0  0  0  0  0  0  0  0  0
   -2.6025    2.4135    0.6035 C   0  0  0  0  0  0  0  0  0  0  0  0
   -4.1319    5.0976    2.5932 O   0  0  0  0  0  0  0  0  0  0  0  0
   -4.7927    5.9516    1.7516 C   0  0  0  0  0  0  0  0  0  0  0  0
   -5.0450    5.6877    0.6102 O   0  0  0  0  0  0  0  0  0  0  0  0
   -5.1160    7.1916    2.5103 C   0  0  0  0  0  0  0  0  0  0  0  0
    3.4174    0.1116    1.3422 O   0  0  0  0  0  0  0  0  0  0  0  0
    4.2428   -0.6130    0.5252 C   0  0  0  0  0  0  0  0  0  0  0  0
    3.8401   -1.3660   -0.3158 O   0  0  0  0  0  0  0  0  0  0  0  0
    5.6514   -0.2991    0.8934 C   0  0  0  0  0  0  0  0  0  0  0  0
   -0.5429    0.0003   -0.9441 H   0  0  0  0  0  0  0  0  0  0  0  0
    1.9510   -0.0068   -0.9336 H   0  0  0  0  0  0  0  0  0  0  0  0
    1.9243   -0.0109    3.3822 H   0  0  0  0  0  0  0  0  0  0  0  0
   -0.5816    0.0079    3.3594 H   0  0  0  0  0  0  0  0  0  0  0  0
   -1.2713   -2.3849    0.6688 H   0  0  0  0  0  0  0  0  0  0  0  0
   -2.6485   -2.6763   -0.3964 H   0  0  0  0  0  0  0  0  0  0  0  0
   -2.5528   -4.4137    1.3990 H   0  0  0  0  0  0  0  0  0  0  0  0
   -2.5587   -3.1710    2.6561 H   0  0  0  0  0  0  0  0  0  0  0  0
   -4.8421   -3.7417    0.6507 H   0  0  0  0  0  0  0  0  0  0  0  0
   -4.8534   -4.1224    2.3743 H   0  0  0  0  0  0  0  0  0  0  0  0
   -6.1035   -1.9864    1.9090 H   0  0  0  0  0  0  0  0  0  0  0  0
   -4.7177   -1.6989    2.9671 H   0  0  0  0  0  0  0  0  0  0  0  0
   -4.8174   -1.1918   -0.0841 H   0  0  0  0  0  0  0  0  0  0  0  0
   -4.8215    0.0405    1.1770 H   0  0  0  0  0  0  0  0  0  0  0  0
   -3.4006    0.7692    3.4818 H   0  0  0  0  0  0  0  0  0  0  0  0
   -4.3184    3.0328    4.0403 H   0  0  0  0  0  0  0  0  0  0  0  0
   -3.0110    4.4971    0.1957 H   0  0  0  0  0  0  0  0  0  0  0  0
   -2.1227    2.2326   -0.3584 H   0  0  0  0  0  0  0  0  0  0  0  0
   -4.6816    7.1980    3.5233 H   0  0  0  0  0  0  0  0  0  0  0  0
   -6.2069    7.3080    2.6146 H   0  0  0  0  0  0  0  0  0  0  0  0
   -4.7403    8.0798    1.9770 H   0  0  0  0  0  0  0  0  0  0  0  0
    5.7473    0.6664    1.4166 H   0  0  0  0  0  0  0  0  0  0  0  0
    6.2922   -0.2686   -0.0020 H   0  0  0  0  0  0  0  0  0  0  0  0
    6.0556   -1.0756    1.5633 H   0  0  0  0  0  0  0  0  0  0  0  0
  1  2  2  0  0  0  0
  1  6  1  0  0  0  0
  2  3  1  0  0  0  0
  3 24  1  0  0  0  0
  3  4  2  0  0  0  0
  4 30  1  0  0  0  0
  5  4  1  0  0  0  0
  5 31  1  0  0  0  0
  6  5  2  0  0  0  0
  7  6  1  0  0  0  0
  7 14  1  0  0  0  0
  8  7  2  0  0  0  0
  9 32  1  0  0  0  0
  9  8  1  0  0  0  0
  9 10  1  0  0  0  0
 10 35  1  0  0  0  0
 11 10  1  0  0  0  0
 11 12  1  0  0  0  0
 11 37  1  0  0  0  0
 12 39  1  0  0  0  0
 13  8  1  0  0  0  0
 13 41  1  0  0  0  0
 13 12  1  0  0  0  0
 14 15  2  0  0  0  0
 15 16  1  0  0  0  0
 15 42  1  0  0  0  0
 16 43  1  0  0  0  0
 17 20  1  0  0  0  0
 17 16  2  0  0  0  0
 18 17  1  0  0  0  0
 19 18  2  0  0  0  0
 19 14  1  0  0  0  0
 21 23  1  0  0  0  0
 21 20  1  0  0  0  0
 22 21  2  0  0  0  0
 23 47  1  0  0  0  0
 23 46  1  0  0  0  0
 25 27  1  0  0  0  0
 25 24  1  0  0  0  0
 26 25  2  0  0  0  0
 27 49  1  0  0  0  0
 27 51  1  0  0  0  0
 28  1  1  0  0  0  0
 29  2  1  0  0  0  0
 33  9  1  0  0  0  0
 34 10  1  0  0  0  0
 36 11  1  0  0  0  0
 38 12  1  0  0  0  0
 40 13  1  0  0  0  0
 44 18  1  0  0  0  0
 45 19  1  0  0  0  0
 48 23  1  0  0  0  0
 50 27  1  0  0  0  0
M  END
$$$$
