51
rmsd138.gzmat
C          0.00000        0.00000        0.00000
C          1.39260        0.00000        0.00000
C          2.04910        0.00000        1.22740
C          1.37000       -0.00430        2.44740
C         -0.01990        0.00240        2.42630
C         -0.70530        0.00320        1.20650
C         -2.17500        0.03290        1.19960
C         -2.93190       -1.03500        0.90040
C         -2.35470       -2.37740        0.56710
C         -2.91160       -3.43520        1.53390
C         -4.44540       -3.44070        1.51310
C         -4.99080       -2.04680        1.84970
C         -4.42990       -0.99630        0.87870
C         -2.73300        1.34240        1.56460
C         -3.38200        1.50350        2.79200
C         -3.89720        2.74400        3.15830
C         -3.74560        3.80480        2.27020
C         -3.10590        3.67180        1.03580
C         -2.59260        2.42670        0.69190
O         -4.12710        5.09460        2.56920
C         -5.31020        5.34060        3.21260
O         -6.07270        4.47710        3.54450
C         -5.43950        6.81250        3.39810
O          3.41960        0.10420        1.33800
C          4.23400       -0.65200        0.53830
O          3.81770       -1.42420       -0.27860
C          5.64860       -0.33870        0.88170
H         -0.54360       -0.00130       -0.94380
H          1.95140       -0.00940       -0.93300
H          1.92270       -0.00400        3.38240
H         -0.58020        0.00850        3.36070
H         -1.24660       -2.37630        0.61480
H         -2.60700       -2.64490       -0.47890
H         -2.52050       -4.43320        1.26610
H         -2.54810       -3.22830        2.55850
H         -4.81060       -3.76110        0.52020
H         -4.83190       -4.18390        2.23370
H         -6.09480       -2.04660        1.80950
H         -4.71960       -1.77580        2.88800
H         -4.79140       -1.19440       -0.15100
H         -4.82590        0.00630        1.13880
H         -3.48640        0.65180        3.46360
H         -4.41310        2.87520        4.10720
H         -3.01190        4.52750        0.37300
H         -2.07700        2.29140       -0.25840
H         -4.67220        7.38100        2.84780
H         -5.34400        7.07600        4.46440
H         -6.42810        7.16090        3.05840
H          5.73870        0.44300        1.65360
H          6.19660        0.00590       -0.01030
H          6.16450       -1.23810        1.25580
