rmsd104.gzmat
 OpenBabel08211713373D

 51 53  0  0  0  0  0  0  0  0999 V2000
    0.0000    0.0000    0.0000 C   0  0  0  0  0  0  0  0  0  0  0  0
    1.3925    0.0000    0.0000 C   0  0  0  0  0  0  0  0  0  0  0  0
    2.0496    0.0000    1.2270 C   0  0  0  0  0  0  0  0  0  0  0  0
    1.3701   -0.0049    2.4474 C   0  0  0  0  0  0  0  0  0  0  0  0
   -0.0197    0.0032    2.4261 C   0  0  0  0  0  0  0  0  0  0  0  0
   -0.7054    0.0050    1.2061 C   0  0  0  0  0  0  0  0  0  0  0  0
   -2.1750    0.0479    1.1970 C   0  0  0  0  0  0  0  0  0  0  0  0
   -2.9424   -1.0067    0.8786 C   0  0  0  0  0  0  0  0  0  0  0  0
   -2.3764   -2.3490    0.5257 C   0  0  0  0  0  0  0  0  0  0  0  0
   -2.9550   -3.4188    1.4658 C   0  0  0  0  0  0  0  0  0  0  0  0
   -4.4882   -3.4107    1.4165 C   0  0  0  0  0  0  0  0  0  0  0  0
   -5.0262   -2.0207    1.7792 C   0  0  0  0  0  0  0  0  0  0  0  0
   -4.4397   -0.9508    0.8447 C   0  0  0  0  0  0  0  0  0  0  0  0
   -2.7136    1.3630    1.5709 C   0  0  0  0  0  0  0  0  0  0  0  0
   -3.3826    1.5269    2.7870 C   0  0  0  0  0  0  0  0  0  0  0  0
   -3.8716    2.7770    3.1580 C   0  0  0  0  0  0  0  0  0  0  0  0
   -3.6704    3.8446    2.2881 C   0  0  0  0  0  0  0  0  0  0  0  0
   -3.0085    3.7094    1.0656 C   0  0  0  0  0  0  0  0  0  0  0  0
   -2.5265    2.4540    0.7149 C   0  0  0  0  0  0  0  0  0  0  0  0
   -4.0137    5.1411    2.6050 O   0  0  0  0  0  0  0  0  0  0  0  0
   -5.2159    5.4134    3.2020 C   0  0  0  0  0  0  0  0  0  0  0  0
   -6.0274    4.5701    3.4596 O   0  0  0  0  0  0  0  0  0  0  0  0
   -5.2945    6.8825    3.4341 C   0  0  0  0  0  0  0  0  0  0  0  0
    3.4188    0.1048    1.3441 O   0  0  0  0  0  0  0  0  0  0  0  0
    4.2443   -0.5734    0.4878 C   0  0  0  0  0  0  0  0  0  0  0  0
    3.8432   -1.3060   -0.3721 O   0  0  0  0  0  0  0  0  0  0  0  0
    5.6532   -0.2308    0.8266 C   0  0  0  0  0  0  0  0  0  0  0  0
   -0.5426   -0.0013   -0.9444 H   0  0  0  0  0  0  0  0  0  0  0  0
    1.9487   -0.0080   -0.9348 H   0  0  0  0  0  0  0  0  0  0  0  0
    1.9237   -0.0044    3.3824 H   0  0  0  0  0  0  0  0  0  0  0  0
   -0.5818    0.0119    3.3595 H   0  0  0  0  0  0  0  0  0  0  0  0
   -1.2691   -2.3614    0.5827 H   0  0  0  0  0  0  0  0  0  0  0  0
   -2.6220   -2.5937   -0.5278 H   0  0  0  0  0  0  0  0  0  0  0  0
   -2.5667   -4.4149    1.1881 H   0  0  0  0  0  0  0  0  0  0  0  0
   -2.6085   -3.2311    2.4999 H   0  0  0  0  0  0  0  0  0  0  0  0
   -4.8357   -3.7008    0.4079 H   0  0  0  0  0  0  0  0  0  0  0  0
   -4.8957   -4.1691    2.1090 H   0  0  0  0  0  0  0  0  0  0  0  0
   -6.1295   -2.0093    1.7208 H   0  0  0  0  0  0  0  0  0  0  0  0
   -4.7713   -1.7788    2.8284 H   0  0  0  0  0  0  0  0  0  0  0  0
   -4.7924   -1.1165   -0.1939 H   0  0  0  0  0  0  0  0  0  0  0  0
   -4.8262    0.0490    1.1285 H   0  0  0  0  0  0  0  0  0  0  0  0
   -3.5210    0.6709    3.4464 H   0  0  0  0  0  0  0  0  0  0  0  0
   -4.4045    2.9116    4.0966 H   0  0  0  0  0  0  0  0  0  0  0  0
   -2.8713    4.5709    0.4180 H   0  0  0  0  0  0  0  0  0  0  0  0
   -1.9974    2.3147   -0.2273 H   0  0  0  0  0  0  0  0  0  0  0  0
   -5.3889    7.4308    2.4826 H   0  0  0  0  0  0  0  0  0  0  0  0
   -4.3902    7.2667    3.9335 H   0  0  0  0  0  0  0  0  0  0  0  0
   -6.1657    7.1352    4.0588 H   0  0  0  0  0  0  0  0  0  0  0  0
    5.7418    0.3385    1.7661 H   0  0  0  0  0  0  0  0  0  0  0  0
    6.1022    0.3791    0.0255 H   0  0  0  0  0  0  0  0  0  0  0  0
    6.2621   -1.1441    0.9247 H   0  0  0  0  0  0  0  0  0  0  0  0
  1  2  2  0  0  0  0
  1  6  1  0  0  0  0
  2  3  1  0  0  0  0
  3 24  1  0  0  0  0
  3  4  2  0  0  0  0
  4 30  1  0  0  0  0
  5  4  1  0  0  0  0
  5 31  1  0  0  0  0
  6  5  2  0  0  0  0
  7  6  1  0  0  0  0
  7 14  1  0  0  0  0
  8  7  2  0  0  0  0
  9 32  1  0  0  0  0
  9  8  1  0  0  0  0
  9 10  1  0  0  0  0
 10 35  1  0  0  0  0
 11 10  1  0  0  0  0
 11 12  1  0  0  0  0
 11 37  1  0  0  0  0
 12 39  1  0  0  0  0
 13  8  1  0  0  0  0
 13 41  1  0  0  0  0
 13 12  1  0  0  0  0
 14 15  2  0  0  0  0
 15 16  1  0  0  0  0
 15 42  1  0  0  0  0
 16 43  1  0  0  0  0
 17 20  1  0  0  0  0
 17 16  2  0  0  0  0
 18 17  1  0  0  0  0
 19 18  2  0  0  0  0
 19 14  1  0  0  0  0
 20 21  1  0  0  0  0
 21 23  1  0  0  0  0
 21 22  2  0  0  0  0
 23 47  1  0  0  0  0
 23 48  1  0  0  0  0
 25 27  1  0  0  0  0
 25 24  1  0  0  0  0
 26 25  2  0  0  0  0
 27 51  1  0  0  0  0
 27 49  1  0  0  0  0
 28  1  1  0  0  0  0
 29  2  1  0  0  0  0
 33  9  1  0  0  0  0
 34 10  1  0  0  0  0
 36 11  1  0  0  0  0
 38 12  1  0  0  0  0
 40 13  1  0  0  0  0
 44 18  1  0  0  0  0
 45 19  1  0  0  0  0
 46 23  1  0  0  0  0
 50 27  1  0  0  0  0
M  END
$$$$
