51

C          0.01970       -0.60150        0.06200
C          1.41230       -0.59710       -0.03340
C          2.15570        0.05730        0.95170
C          1.51420        0.71140        2.00650
C          0.12370        0.70490        2.08160
C         -0.65160        0.03040        1.12200
C         -2.14050        0.04280        1.21010
C         -2.89190       -1.08560        1.14240
C         -2.31640       -2.48380        1.17980
C         -2.93230       -3.28830        2.34180
C         -4.46120       -3.31020        2.27950
C         -5.03260       -1.89100        2.22140
C         -4.40230       -1.08840        1.07140
C         -2.73410        1.40160        1.37390
C         -3.61470        1.70000        2.42690
C         -4.15570        2.97590        2.59480
C         -3.80650        3.98260        1.69160
C         -2.91660        3.71990        0.64690
C         -2.37960        2.44370        0.49900
O         -4.24110        5.29550        1.80030
C         -5.51670        5.61990        2.16000
O         -6.37050        4.81890        2.42610
C         -5.67470        7.11800        2.16490
O          3.53820        0.16870        0.92010
C          4.34850       -0.86560        0.55170
O          3.95420       -1.94800        0.21390
C          5.78930       -0.43520        0.64040
H         -0.56430       -1.09960       -0.71440
H          1.91100       -1.09890       -0.85980
H          2.12080        1.22490        2.75460
H         -0.37520        1.22640        2.90120
H         -1.22400       -2.47060        1.27650
H         -2.55110       -3.00230        0.23070
H         -2.52940       -4.31450        2.33460
H         -2.61240       -2.82960        3.29440
H         -4.77970       -3.86450        1.37740
H         -4.87330       -3.85750        3.14360
H         -6.12860       -1.91770        2.10520
H         -4.82820       -1.37450        3.17630
H         -4.68370       -1.58070        0.12000
H         -4.81230       -0.07190        1.03140
H         -3.87290        0.91610        3.14150
H         -4.84140        3.18160        3.41380
H         -2.65250        4.52950       -0.03580
H         -1.67650        2.24420       -0.31230
H         -5.45550        7.52030        1.16410
H         -4.95000        7.56710        2.86110
H         -6.69730        7.37800        2.46170
H          5.95810        0.43830       -0.00780
H          6.43920       -1.26410        0.33700
H          6.02430       -0.12530        1.67010
