51
rmsd173.gzmat
C          0.00000        0.00000        0.00000
C          1.39270        0.00000        0.00000
C          2.04860        0.00000        1.22730
C          1.36870       -0.00820        2.44740
C         -0.02090       -0.00130        2.42590
C         -0.70520        0.00420        1.20580
C         -2.17420        0.04770        1.19960
C         -2.94680       -1.01900        0.94170
C         -2.38760       -2.37520        0.63540
C         -2.95370       -3.40710        1.62370
C         -4.48740       -3.39330        1.60320
C         -5.01070       -1.98860        1.92820
C         -4.44430       -0.95890        0.93790
C         -2.71160        1.38010        1.50950
C         -3.26540        1.63480        2.76690
C         -3.75480        2.90150        3.07480
C         -3.67620        3.88990        2.09800
C         -3.13020        3.66260        0.83320
C         -2.64030        2.39360        0.54780
O         -4.03740        5.19930        2.33320
C         -5.20070        5.48470        2.99650
O         -5.95170        4.64130        3.39810
C         -5.33100        6.96480        3.09250
O          3.41680        0.11030        1.34800
C          4.25000       -0.57840        0.50870
O          3.85680       -1.30420       -0.36010
C          5.65540       -0.26480        0.88920
H         -0.54290        0.00050       -0.94400
H          1.94900       -0.00730       -0.93470
H          1.92190       -0.00920        3.38250
H         -0.58290        0.00360        3.35910
H         -1.27940       -2.38580        0.67740
H         -2.64780       -2.65960       -0.40460
H         -2.57550       -4.41460        1.37500
H         -2.58730       -3.18360        2.64370
H         -4.85590       -3.71490        0.61180
H         -4.88430       -4.12580        2.32870
H         -6.11480       -1.97320        1.89930
H         -4.72630       -1.70790        2.96020
H         -4.82150       -1.16400       -0.08460
H         -4.82040        0.05280        1.19260
H         -3.31290        0.83770        3.50780
H         -4.19360        3.10920        4.04800
H         -3.08630        4.46550        0.10280
H         -2.19570        2.18450       -0.42450
H         -6.08640        7.33170        2.37840
H         -4.38790        7.49110        2.87250
H         -5.65940        7.26170        4.10140
H          5.74170        0.67820        1.45340
H          6.29320       -0.18770       -0.00570
H          6.07170       -1.06460        1.52360
