52
rmsd103.gzmat
C          0.00000        0.00000        0.00000
H          1.11480        0.00000        0.00000
N         -0.50290        0.00000       -1.39230
C          0.13200        0.60770       -2.43150
N          1.40390        1.06910       -2.34440
H          1.87730        1.48260       -3.13090
H          1.87360        1.17710       -1.42500
N         -0.54730        0.70990       -3.62770
C         -0.61280        1.18830        0.78770
H         -1.33090        1.73160        0.11820
C          0.37890        2.24700        1.34140
H         -0.14460        2.76000        2.20840
C          0.71030        3.35390        0.30900
C         -0.55510        4.06390       -0.22080
C         -1.60550        4.42910        0.82470
C          1.73490        4.37010        0.86130
C          1.42390        4.94570        2.23950
N          1.57630        1.62470        1.92360
C          2.72090        1.29330        1.24760
O          2.81860        1.41110        0.03030
C          3.87070        0.81070        2.07910
C         -1.45440        0.56030        1.92850
H         -2.36520        1.14930        2.16180
O         -0.63170        0.50090        3.06950
C         -1.76200       -0.89220        1.47410
H         -1.90570       -1.55730        2.36370
C         -2.99070       -0.90880        0.60740
O         -3.06420       -0.65850       -0.57620
O         -4.07960       -1.23090        1.31910
C         -0.52210       -1.29620        0.67220
H         -1.51130       -0.24660       -1.45960
H         -1.44780        0.26870       -3.73560
H         -0.06320        0.93630       -4.48070
H          1.20100        2.87540       -0.57470
H         -1.02420        3.44400       -1.00910
H         -0.23690        4.99230       -0.74460
H         -2.07620        3.55350        1.27830
H         -2.40890        5.02860        0.37310
H         -1.17760        5.03590        1.63460
H          1.83670        5.20140        0.13290
H          2.73540        3.88940        0.88510
H          0.46400        5.47550        2.25500
H          2.19370        5.67210        2.53680
H          1.39780        4.17380        3.01470
H          1.45160        1.33580        2.89190
H          3.61260       -0.04210        2.72080
H          4.26370        1.61300        2.72580
H          4.70660        0.49180        1.42880
H         -1.16390        0.37200        3.88530
H         -4.92560       -1.26190        0.78640
H          0.25740       -1.69720        1.35430
H         -0.71800       -2.10510       -0.05520
