rmsd82.gzmat
 OpenBabel08211713363D

 52 52  0  0  1  0  0  0  0  0999 V2000
    0.0000    0.0000    0.0000 C   0  0  1  0  0  0  0  0  0  0  0  0
    1.1147    0.0000    0.0000 H   0  0  0  0  0  0  0  0  0  0  0  0
   -0.4983    0.0000   -1.3932 N   0  0  0  0  0  0  0  0  0  0  0  0
    0.1523    0.5808   -2.4389 C   0  0  0  0  0  0  0  0  0  0  0  0
    1.3637    1.1762   -2.3159 N   0  0  0  0  0  0  0  0  0  0  0  0
    1.9187    1.4352   -3.1143 H   0  0  0  0  0  0  0  0  0  0  0  0
    1.8165    1.2914   -1.3876 H   0  0  0  0  0  0  0  0  0  0  0  0
   -0.4615    0.5420   -3.6694 N   0  0  0  0  0  0  0  0  0  0  0  0
   -0.6124    1.1839    0.7950 C   0  0  2  0  0  0  0  0  0  0  0  0
   -1.3119    1.7460    0.1216 H   0  0  0  0  0  0  0  0  0  0  0  0
    0.3817    2.2217    1.3843 C   0  0  2  0  0  0  0  0  0  0  0  0
   -0.1392    2.6996    2.2735 H   0  0  0  0  0  0  0  0  0  0  0  0
    0.6969    3.3768    0.3947 C   0  0  0  0  0  0  0  0  0  0  0  0
   -0.5922    4.1505    0.0383 C   0  0  0  0  0  0  0  0  0  0  0  0
   -1.0598    3.8781   -1.3910 C   0  0  0  0  0  0  0  0  0  0  0  0
    1.7453    4.3478    0.9786 C   0  0  0  0  0  0  0  0  0  0  0  0
    1.3706    4.9265    2.3407 C   0  0  0  0  0  0  0  0  0  0  0  0
    1.5811    1.5810    1.9393 N   0  0  0  0  0  0  0  0  0  0  0  0
    2.7212    1.2732    1.2450 C   0  0  0  0  0  0  0  0  0  0  0  0
    2.8091    1.4315    0.0315 O   0  0  0  0  0  0  0  0  0  0  0  0
    3.8772    0.7621    2.0502 C   0  0  0  0  0  0  0  0  0  0  0  0
   -1.4776    0.5499    1.9148 C   0  0  2  0  0  0  0  0  0  0  0  0
   -2.3940    1.1370    2.1305 H   0  0  0  0  0  0  0  0  0  0  0  0
   -0.6776    0.4920    3.0722 O   0  0  0  0  0  0  0  0  0  0  0  0
   -1.7730   -0.9026    1.4544 C   0  0  1  0  0  0  0  0  0  0  0  0
   -1.9218   -1.5694    2.3421 H   0  0  0  0  0  0  0  0  0  0  0  0
   -2.9947   -0.9276    0.5783 C   0  0  0  0  0  0  0  0  0  0  0  0
   -3.0588   -0.7055   -0.6113 O   0  0  0  0  0  0  0  0  0  0  0  0
   -4.0915   -1.2226    1.2905 O   0  0  0  0  0  0  0  0  0  0  0  0
   -0.5233   -1.2998    0.6653 C   0  0  0  0  0  0  0  0  0  0  0  0
   -1.5026   -0.2575   -1.4696 H   0  0  0  0  0  0  0  0  0  0  0  0
   -1.3414    0.0684   -3.7908 H   0  0  0  0  0  0  0  0  0  0  0  0
   -0.0026    0.8716   -4.4999 H   0  0  0  0  0  0  0  0  0  0  0  0
    1.1339    2.9503   -0.5364 H   0  0  0  0  0  0  0  0  0  0  0  0
   -0.4165    5.2428    0.1506 H   0  0  0  0  0  0  0  0  0  0  0  0
   -1.4029    3.9310    0.7563 H   0  0  0  0  0  0  0  0  0  0  0  0
   -0.3064    4.1968   -2.1221 H   0  0  0  0  0  0  0  0  0  0  0  0
   -1.9774    4.4405   -1.6150 H   0  0  0  0  0  0  0  0  0  0  0  0
   -1.2764    2.8227   -1.5688 H   0  0  0  0  0  0  0  0  0  0  0  0
    1.9054    5.1723    0.2528 H   0  0  0  0  0  0  0  0  0  0  0  0
    2.7274    3.8389    1.0446 H   0  0  0  0  0  0  0  0  0  0  0  0
    0.3694    5.3711    2.3375 H   0  0  0  0  0  0  0  0  0  0  0  0
    2.0742    5.7183    2.6338 H   0  0  0  0  0  0  0  0  0  0  0  0
    1.3985    4.1681    3.1300 H   0  0  0  0  0  0  0  0  0  0  0  0
    1.4634    1.2647    2.8999 H   0  0  0  0  0  0  0  0  0  0  0  0
    3.6160   -0.0874    2.6948 H   0  0  0  0  0  0  0  0  0  0  0  0
    4.2994    1.5546    2.6913 H   0  0  0  0  0  0  0  0  0  0  0  0
    4.6936    0.4304    1.3818 H   0  0  0  0  0  0  0  0  0  0  0  0
   -1.2233    0.3379    3.8745 H   0  0  0  0  0  0  0  0  0  0  0  0
   -4.9335   -1.2622    0.7526 H   0  0  0  0  0  0  0  0  0  0  0  0
    0.2506   -1.6986    1.3545 H   0  0  0  0  0  0  0  0  0  0  0  0
   -0.7093   -2.1079   -0.0658 H   0  0  0  0  0  0  0  0  0  0  0  0
  1  2  1  1  0  0  0
  1 30  1  0  0  0  0
  1  9  1  0  0  0  0
  3  1  1  0  0  0  0
  4  5  1  0  0  0  0
  4  3  1  0  0  0  0
  5  7  1  0  0  0  0
  6  5  1  0  0  0  0
  8  4  2  0  0  0  0
  9 11  1  0  0  0  0
  9 22  1  0  0  0  0
  9 10  1  6  0  0  0
 11 18  1  0  0  0  0
 11 12  1  1  0  0  0
 13 16  1  0  0  0  0
 13 11  1  0  0  0  0
 14 35  1  0  0  0  0
 14 13  1  0  0  0  0
 14 36  1  0  0  0  0
 15 14  1  0  0  0  0
 16 41  1  0  0  0  0
 16 17  1  0  0  0  0
 17 43  1  0  0  0  0
 17 44  1  0  0  0  0
 18 45  1  0  0  0  0
 19 18  1  0  0  0  0
 19 21  1  0  0  0  0
 20 19  2  0  0  0  0
 21 47  1  0  0  0  0
 21 46  1  0  0  0  0
 22 25  1  0  0  0  0
 22 23  1  1  0  0  0
 22 24  1  0  0  0  0
 24 49  1  0  0  0  0
 25 26  1  1  0  0  0
 27 29  1  0  0  0  0
 27 25  1  0  0  0  0
 28 27  2  0  0  0  0
 30 51  1  0  0  0  0
 30 25  1  0  0  0  0
 31  3  1  0  0  0  0
 32  8  1  0  0  0  0
 33  8  1  0  0  0  0
 34 13  1  0  0  0  0
 37 15  1  0  0  0  0
 38 15  1  0  0  0  0
 39 15  1  0  0  0  0
 40 16  1  0  0  0  0
 42 17  1  0  0  0  0
 48 21  1  0  0  0  0
 50 29  1  0  0  0  0
 52 30  1  0  0  0  0
M  END
$$$$
