52
rmsd215.gzmat
C          0.00000        0.00000        0.00000
H          1.11490        0.00000        0.00000
N         -0.49640        0.00000       -1.39480
C          0.12610        0.65130       -2.41800
N          1.32900        1.25940       -2.27920
H          1.86890        1.56820       -3.07050
H          1.79880        1.32140       -1.35300
N         -0.50960        0.67660       -3.63820
C         -0.61730        1.18250        0.79190
H         -1.35410        1.70870        0.12840
C          0.35730        2.25900        1.34310
H         -0.18880        2.75710        2.20600
C          0.71020        3.39950        0.34710
C         -0.50730        3.87180       -0.47300
C         -1.66320        4.39530        0.37660
C          1.30010        4.61400        1.10200
C          2.79390        4.48090        1.39040
N          1.55210        1.64630        1.94210
C          2.69080        1.27390        1.27750
O          2.80230        1.36330        0.05820
C          3.81940        0.76410        2.12290
C         -1.44750        0.54460        1.93720
H         -2.35720        1.13080        2.18200
O         -0.61700        0.47950        3.07190
C         -1.75670       -0.90420        1.47350
H         -1.89870       -1.57620        2.35800
C         -2.98730       -0.91550        0.60940
O         -3.06140       -0.67090       -0.57510
O         -4.07680       -1.22550        1.32610
C         -0.51920       -1.30130        0.66500
H         -1.50080       -0.25850       -1.46840
H         -1.38130        0.19020       -3.77210
H         -0.04800        1.01250       -4.46510
H          1.48270        3.03900       -0.37260
H         -0.85910        3.06460       -1.14100
H         -0.17250        4.67630       -1.16430
H         -2.05450        3.64380        1.06720
H         -2.49840        4.72430       -0.25650
H         -1.35960        5.26360        0.97730
H          0.74800        4.78750        2.04470
H          1.13790        5.52970        0.49500
H          2.99110        3.79470        2.21950
H          3.22830        5.45150        1.66510
H          3.34670        4.11390        0.51680
H          1.41810        1.36810        2.91320
H          3.53790       -0.10340        2.73500
H          4.20620        1.54380        2.79940
H          4.66630        0.45270        1.48280
H         -1.14060        0.31620        3.88710
H         -4.92410       -1.25490        0.79570
H          0.26270       -1.70680        1.34140
H         -0.71740       -2.10490       -0.06780
