rmsd97.gzmat
 OpenBabel08211713363D

 52 52  0  0  1  0  0  0  0  0999 V2000
    0.0000    0.0000    0.0000 C   0  0  1  0  0  0  0  0  0  0  0  0
    1.1163    0.0000    0.0000 H   0  0  0  0  0  0  0  0  0  0  0  0
   -0.4786    0.0000   -1.4058 N   0  0  0  0  0  0  0  0  0  0  0  0
   -0.1328    0.9122   -2.3553 C   0  0  0  0  0  0  0  0  0  0  0  0
   -0.6447    0.7288   -3.6178 N   0  0  0  0  0  0  0  0  0  0  0  0
   -0.4531    1.3705   -4.3663 H   0  0  0  0  0  0  0  0  0  0  0  0
   -1.3143   -0.0014   -3.8004 H   0  0  0  0  0  0  0  0  0  0  0  0
    0.6620    1.9888   -2.1121 N   0  0  0  0  0  0  0  0  0  0  0  0
   -0.6222    1.1627    0.8142 C   0  0  2  0  0  0  0  0  0  0  0  0
   -0.6435    2.1025    0.2174 H   0  0  0  0  0  0  0  0  0  0  0  0
    0.0723    1.4575    2.1677 C   0  0  2  0  0  0  0  0  0  0  0  0
   -0.3392    0.7141    2.9194 H   0  0  0  0  0  0  0  0  0  0  0  0
   -0.3079    2.8900    2.6642 C   0  0  0  0  0  0  0  0  0  0  0  0
    0.1102    3.0454    4.1405 C   0  0  0  0  0  0  0  0  0  0  0  0
   -0.5431    4.2679    4.7846 C   0  0  0  0  0  0  0  0  0  0  0  0
    0.2779    4.0119    1.7899 C   0  0  0  0  0  0  0  0  0  0  0  0
   -0.7978    5.0100    1.3595 C   0  0  0  0  0  0  0  0  0  0  0  0
    1.5356    1.2525    2.2267 N   0  0  0  0  0  0  0  0  0  0  0  0
    2.4607    1.6618    1.2925 C   0  0  0  0  0  0  0  0  0  0  0  0
    2.1435    1.9465    0.1476 O   0  0  0  0  0  0  0  0  0  0  0  0
    3.8965    1.6645    1.7233 C   0  0  0  0  0  0  0  0  0  0  0  0
   -2.0766    0.6550    1.0686 C   0  0  2  0  0  0  0  0  0  0  0  0
   -2.7730    1.0511    0.2994 H   0  0  0  0  0  0  0  0  0  0  0  0
   -2.4820    1.0976    2.3328 O   0  0  0  0  0  0  0  0  0  0  0  0
   -2.0133   -0.9073    1.0684 C   0  0  1  0  0  0  0  0  0  0  0  0
   -2.2466   -1.2877    2.0977 H   0  0  0  0  0  0  0  0  0  0  0  0
   -2.9941   -1.4489    0.0684 C   0  0  0  0  0  0  0  0  0  0  0  0
   -2.8920   -1.3932   -1.1399 O   0  0  0  0  0  0  0  0  0  0  0  0
   -4.0592   -2.0035    0.6584 O   0  0  0  0  0  0  0  0  0  0  0  0
   -0.5780   -1.2724    0.6631 C   0  0  0  0  0  0  0  0  0  0  0  0
   -1.3176   -0.5964   -1.5671 H   0  0  0  0  0  0  0  0  0  0  0  0
    1.1302    2.0919   -1.1978 H   0  0  0  0  0  0  0  0  0  0  0  0
    1.0938    2.4992   -2.8674 H   0  0  0  0  0  0  0  0  0  0  0  0
   -1.4279    2.9560    2.6247 H   0  0  0  0  0  0  0  0  0  0  0  0
    1.2090    3.1270    4.2264 H   0  0  0  0  0  0  0  0  0  0  0  0
   -0.1824    2.1415    4.7115 H   0  0  0  0  0  0  0  0  0  0  0  0
   -0.2355    5.1994    4.2946 H   0  0  0  0  0  0  0  0  0  0  0  0
   -0.2679    4.3511    5.8441 H   0  0  0  0  0  0  0  0  0  0  0  0
   -1.6371    4.2150    4.7353 H   0  0  0  0  0  0  0  0  0  0  0  0
    0.7721    3.6040    0.8893 H   0  0  0  0  0  0  0  0  0  0  0  0
    1.0803    4.5471    2.3355 H   0  0  0  0  0  0  0  0  0  0  0  0
   -1.5632    4.5401    0.7346 H   0  0  0  0  0  0  0  0  0  0  0  0
   -0.3620    5.8358    0.7833 H   0  0  0  0  0  0  0  0  0  0  0  0
   -1.3061    5.4516    2.2268 H   0  0  0  0  0  0  0  0  0  0  0  0
    1.8609    1.1570    3.1921 H   0  0  0  0  0  0  0  0  0  0  0  0
    4.2110    0.7173    2.1843 H   0  0  0  0  0  0  0  0  0  0  0  0
    4.1064    2.4771    2.4373 H   0  0  0  0  0  0  0  0  0  0  0  0
    4.5595    1.8357    0.8547 H   0  0  0  0  0  0  0  0  0  0  0  0
   -3.4448    0.9510    2.4736 H   0  0  0  0  0  0  0  0  0  0  0  0
   -4.7336   -2.3812    0.0221 H   0  0  0  0  0  0  0  0  0  0  0  0
    0.0317   -1.5303    1.5539 H   0  0  0  0  0  0  0  0  0  0  0  0
   -0.5180   -2.1620    0.0092 H   0  0  0  0  0  0  0  0  0  0  0  0
  1 30  1  0  0  0  0
  1  9  1  0  0  0  0
  1  2  1  1  0  0  0
  3  1  1  0  0  0  0
  4  8  1  0  0  0  0
  4  3  1  0  0  0  0
  5  4  2  0  0  0  0
  6  5  1  0  0  0  0
  7  5  1  0  0  0  0
  8 32  1  0  0  0  0
  9 22  1  0  0  0  0
  9 11  1  0  0  0  0
  9 10  1  6  0  0  0
 11 18  1  0  0  0  0
 11 13  1  0  0  0  0
 11 12  1  1  0  0  0
 13 14  1  0  0  0  0
 14 35  1  0  0  0  0
 14 36  1  0  0  0  0
 14 15  1  0  0  0  0
 15 38  1  0  0  0  0
 16 41  1  0  0  0  0
 16 13  1  0  0  0  0
 17 16  1  0  0  0  0
 17 44  1  0  0  0  0
 18 45  1  0  0  0  0
 19 21  1  0  0  0  0
 19 18  1  0  0  0  0
 20 19  2  0  0  0  0
 21 46  1  0  0  0  0
 21 47  1  0  0  0  0
 22 25  1  0  0  0  0
 22 24  1  0  0  0  0
 22 23  1  6  0  0  0
 24 49  1  0  0  0  0
 25 26  1  1  0  0  0
 27 29  1  0  0  0  0
 27 25  1  0  0  0  0
 28 27  2  0  0  0  0
 30 25  1  0  0  0  0
 30 51  1  0  0  0  0
 31  3  1  0  0  0  0
 33  8  1  0  0  0  0
 34 13  1  0  0  0  0
 37 15  1  0  0  0  0
 39 15  1  0  0  0  0
 40 16  1  0  0  0  0
 42 17  1  0  0  0  0
 43 17  1  0  0  0  0
 48 21  1  0  0  0  0
 50 29  1  0  0  0  0
 52 30  1  0  0  0  0
M  END
$$$$
