52
rmsd82.gzmat
C          0.00000        0.00000        0.00000
H          1.11470        0.00000        0.00000
N         -0.49830        0.00000       -1.39320
C          0.15230        0.58080       -2.43890
N          1.36370        1.17620       -2.31590
H          1.91870        1.43520       -3.11430
H          1.81650        1.29140       -1.38760
N         -0.46150        0.54200       -3.66940
C         -0.61240        1.18390        0.79500
H         -1.31190        1.74600        0.12160
C          0.38170        2.22170        1.38430
H         -0.13920        2.69960        2.27350
C          0.69690        3.37680        0.39470
C         -0.59220        4.15050        0.03830
C         -1.05980        3.87810       -1.39100
C          1.74530        4.34780        0.97860
C          1.37060        4.92650        2.34070
N          1.58110        1.58100        1.93930
C          2.72120        1.27320        1.24500
O          2.80910        1.43150        0.03150
C          3.87720        0.76210        2.05020
C         -1.47760        0.54990        1.91480
H         -2.39400        1.13700        2.13050
O         -0.67760        0.49200        3.07220
C         -1.77300       -0.90260        1.45440
H         -1.92180       -1.56940        2.34210
C         -2.99470       -0.92760        0.57830
O         -3.05880       -0.70550       -0.61130
O         -4.09150       -1.22260        1.29050
C         -0.52330       -1.29980        0.66530
H         -1.50260       -0.25750       -1.46960
H         -1.34140        0.06840       -3.79080
H         -0.00260        0.87160       -4.49990
H          1.13390        2.95030       -0.53640
H         -0.41650        5.24280        0.15060
H         -1.40290        3.93100        0.75630
H         -0.30640        4.19680       -2.12210
H         -1.97740        4.44050       -1.61500
H         -1.27640        2.82270       -1.56880
H          1.90540        5.17230        0.25280
H          2.72740        3.83890        1.04460
H          0.36940        5.37110        2.33750
H          2.07420        5.71830        2.63380
H          1.39850        4.16810        3.13000
H          1.46340        1.26470        2.89990
H          3.61600       -0.08740        2.69480
H          4.29940        1.55460        2.69130
H          4.69360        0.43040        1.38180
H         -1.22330        0.33790        3.87450
H         -4.93350       -1.26220        0.75260
H          0.25060       -1.69860        1.35450
H         -0.70930       -2.10790       -0.06580
