rmsd171.gzmat
 OpenBabel08211713363D

 52 52  0  0  1  0  0  0  0  0999 V2000
    0.0000    0.0000    0.0000 C   0  0  1  0  0  0  0  0  0  0  0  0
    1.1162    0.0000    0.0000 H   0  0  0  0  0  0  0  0  0  0  0  0
   -0.4590    0.0000   -1.4117 N   0  0  0  0  0  0  0  0  0  0  0  0
   -0.0986    0.9556   -2.3172 C   0  0  0  0  0  0  0  0  0  0  0  0
   -0.6686    0.8921   -3.5646 N   0  0  0  0  0  0  0  0  0  0  0  0
   -0.3844    1.5004   -4.3112 H   0  0  0  0  0  0  0  0  0  0  0  0
   -1.3472    0.1806   -3.7852 H   0  0  0  0  0  0  0  0  0  0  0  0
    0.7740    1.9551   -2.0284 N   0  0  0  0  0  0  0  0  0  0  0  0
   -0.6299    1.1749    0.7904 C   0  0  2  0  0  0  0  0  0  0  0  0
   -0.7128    2.0746    0.1359 H   0  0  0  0  0  0  0  0  0  0  0  0
    0.1380    1.6000    2.0751 C   0  0  2  0  0  0  0  0  0  0  0  0
   -0.3890    1.1545    2.9706 H   0  0  0  0  0  0  0  0  0  0  0  0
    0.1522    3.1513    2.2467 C   0  0  0  0  0  0  0  0  0  0  0  0
   -1.2751    3.7255    2.1983 C   0  0  0  0  0  0  0  0  0  0  0  0
   -1.2563    5.2485    2.0725 C   0  0  0  0  0  0  0  0  0  0  0  0
    0.8246    3.5272    3.5877 C   0  0  0  0  0  0  0  0  0  0  0  0
    2.1396    4.2756    3.3773 C   0  0  0  0  0  0  0  0  0  0  0  0
    1.5181    1.0750    2.1304 N   0  0  0  0  0  0  0  0  0  0  0  0
    2.5360    1.5008    1.3033 C   0  0  0  0  0  0  0  0  0  0  0  0
    2.3052    2.0836    0.2533 O   0  0  0  0  0  0  0  0  0  0  0  0
    3.9345    1.1719    1.7282 C   0  0  0  0  0  0  0  0  0  0  0  0
   -2.0587    0.6514    1.1290 C   0  0  2  0  0  0  0  0  0  0  0  0
   -2.8074    1.0558    0.4133 H   0  0  0  0  0  0  0  0  0  0  0  0
   -2.3890    1.0842    2.4190 O   0  0  0  0  0  0  0  0  0  0  0  0
   -1.9968   -0.9081    1.0976 C   0  0  1  0  0  0  0  0  0  0  0  0
   -2.2231   -1.3122    2.1190 H   0  0  0  0  0  0  0  0  0  0  0  0
   -2.9836   -1.4288    0.0917 C   0  0  0  0  0  0  0  0  0  0  0  0
   -2.8917   -1.3491   -1.1158 O   0  0  0  0  0  0  0  0  0  0  0  0
   -4.0434   -1.9956    0.6798 O   0  0  0  0  0  0  0  0  0  0  0  0
   -0.5669   -1.2683    0.6738 C   0  0  0  0  0  0  0  0  0  0  0  0
   -1.3237   -0.5555   -1.5785 H   0  0  0  0  0  0  0  0  0  0  0  0
    1.2297    2.0091   -1.0999 H   0  0  0  0  0  0  0  0  0  0  0  0
    1.1994    2.5135   -2.7514 H   0  0  0  0  0  0  0  0  0  0  0  0
    0.7395    3.5888    1.4031 H   0  0  0  0  0  0  0  0  0  0  0  0
   -1.8376    3.4176    3.1026 H   0  0  0  0  0  0  0  0  0  0  0  0
   -1.8463    3.3057    1.3507 H   0  0  0  0  0  0  0  0  0  0  0  0
   -0.7453    5.7224    2.9199 H   0  0  0  0  0  0  0  0  0  0  0  0
   -2.2756    5.6533    2.0400 H   0  0  0  0  0  0  0  0  0  0  0  0
   -0.7429    5.5726    1.1606 H   0  0  0  0  0  0  0  0  0  0  0  0
    0.9914    2.6353    4.2166 H   0  0  0  0  0  0  0  0  0  0  0  0
    0.1411    4.1613    4.1912 H   0  0  0  0  0  0  0  0  0  0  0  0
    2.8596    3.6910    2.7980 H   0  0  0  0  0  0  0  0  0  0  0  0
    2.6092    4.5293    4.3368 H   0  0  0  0  0  0  0  0  0  0  0  0
    1.9790    5.2179    2.8368 H   0  0  0  0  0  0  0  0  0  0  0  0
    1.7561    0.6219    3.0080 H   0  0  0  0  0  0  0  0  0  0  0  0
    4.0352    0.1936    2.2161 H   0  0  0  0  0  0  0  0  0  0  0  0
    4.3228    1.9358    2.4251 H   0  0  0  0  0  0  0  0  0  0  0  0
    4.6165    1.1779    0.8585 H   0  0  0  0  0  0  0  0  0  0  0  0
   -3.3272    0.8810    2.6359 H   0  0  0  0  0  0  0  0  0  0  0  0
   -4.7202   -2.3672    0.0428 H   0  0  0  0  0  0  0  0  0  0  0  0
    0.0528   -1.5189    1.5602 H   0  0  0  0  0  0  0  0  0  0  0  0
   -0.5129   -2.1607    0.0232 H   0  0  0  0  0  0  0  0  0  0  0  0
  1 30  1  0  0  0  0
  1  9  1  0  0  0  0
  1  2  1  1  0  0  0
  3  1  1  0  0  0  0
  4  8  1  0  0  0  0
  4  3  1  0  0  0  0
  5  4  2  0  0  0  0
  6  5  1  0  0  0  0
  7  5  1  0  0  0  0
  8 32  1  0  0  0  0
  9 22  1  0  0  0  0
  9 11  1  0  0  0  0
  9 10  1  6  0  0  0
 11 18  1  0  0  0  0
 11 13  1  0  0  0  0
 11 12  1  1  0  0  0
 13 16  1  0  0  0  0
 14 13  1  0  0  0  0
 14 35  1  0  0  0  0
 15 14  1  0  0  0  0
 15 37  1  0  0  0  0
 16 41  1  0  0  0  0
 16 40  1  0  0  0  0
 17 16  1  0  0  0  0
 17 43  1  0  0  0  0
 18 45  1  0  0  0  0
 19 21  1  0  0  0  0
 19 18  1  0  0  0  0
 20 19  2  0  0  0  0
 21 46  1  0  0  0  0
 21 47  1  0  0  0  0
 22 25  1  0  0  0  0
 22 24  1  0  0  0  0
 22 23  1  6  0  0  0
 24 49  1  0  0  0  0
 25 26  1  1  0  0  0
 27 29  1  0  0  0  0
 27 25  1  0  0  0  0
 28 27  2  0  0  0  0
 30 25  1  0  0  0  0
 30 51  1  0  0  0  0
 31  3  1  0  0  0  0
 33  8  1  0  0  0  0
 34 13  1  0  0  0  0
 36 14  1  0  0  0  0
 38 15  1  0  0  0  0
 39 15  1  0  0  0  0
 42 17  1  0  0  0  0
 44 17  1  0  0  0  0
 48 21  1  0  0  0  0
 50 29  1  0  0  0  0
 52 30  1  0  0  0  0
M  END
$$$$
