rmsd7.gzmat
 OpenBabel08211713433D

 25 26  0  0  0  0  0  0  0  0999 V2000
    0.0000    0.0000    0.0000 O   0  0  0  0  0  0  0  0  0  0  0  0
    1.3838    0.0000    0.0000 C   0  0  0  0  0  0  0  0  0  0  0  0
    2.0461    0.0000    1.2943 C   0  0  0  0  0  0  0  0  0  0  0  0
    3.2332   -0.0680    1.4950 O   0  0  0  0  0  0  0  0  0  0  0  0
    1.1586    0.0866    2.3141 O   0  0  0  0  0  0  0  0  0  0  0  0
    1.8750    0.0020   -1.2849 C   0  0  0  0  0  0  0  0  0  0  0  0
    0.7338    0.0060   -2.1493 C   0  0  0  0  0  0  0  0  0  0  0  0
   -0.3738    0.0071   -1.3291 C   0  0  0  0  0  0  0  0  0  0  0  0
   -1.8007    0.0061   -1.5622 C   0  0  0  0  0  0  0  0  0  0  0  0
   -2.6978    0.6803   -0.7226 C   0  0  0  0  0  0  0  0  0  0  0  0
   -4.0685    0.6102   -0.9634 C   0  0  0  0  0  0  0  0  0  0  0  0
   -4.5470   -0.1043   -2.0607 C   0  0  0  0  0  0  0  0  0  0  0  0
   -3.6580   -0.7514   -2.9160 C   0  0  0  0  0  0  0  0  0  0  0  0
   -2.2895   -0.7026   -2.6662 C   0  0  0  0  0  0  0  0  0  0  0  0
   -2.1839    1.4893    0.4382 C   0  0  0  0  0  0  0  0  0  0  0  0
   -3.0534    2.3712    0.9338 F   0  0  0  0  0  0  0  0  0  0  0  0
   -1.8242    0.7526    1.4872 F   0  0  0  0  0  0  0  0  0  0  0  0
   -1.1158    2.2308    0.1453 F   0  0  0  0  0  0  0  0  0  0  0  0
    1.5964    0.1003    3.2057 H   0  0  0  0  0  0  0  0  0  0  0  0
    2.9039    0.0019   -1.5938 H   0  0  0  0  0  0  0  0  0  0  0  0
    0.7595    0.0193   -3.2194 H   0  0  0  0  0  0  0  0  0  0  0  0
   -4.7851    1.1069   -0.3049 H   0  0  0  0  0  0  0  0  0  0  0  0
   -5.6195   -0.1542   -2.2483 H   0  0  0  0  0  0  0  0  0  0  0  0
   -4.0338   -1.3022   -3.7787 H   0  0  0  0  0  0  0  0  0  0  0  0
   -1.5948   -1.2226   -3.3266 H   0  0  0  0  0  0  0  0  0  0  0  0
  1  2  1  0  0  0  0
  2  3  1  0  0  0  0
  3  4  2  0  0  0  0
  3  5  1  0  0  0  0
  5 19  1  0  0  0  0
  6  2  2  0  0  0  0
  7  8  2  0  0  0  0
  7  6  1  0  0  0  0
  8  1  1  0  0  0  0
  9  8  1  0  0  0  0
  9 10  2  0  0  0  0
 10 15  1  0  0  0  0
 11 10  1  0  0  0  0
 11 22  1  0  0  0  0
 12 11  2  0  0  0  0
 13 14  2  0  0  0  0
 13 12  1  0  0  0  0
 14  9  1  0  0  0  0
 15 16  1  0  0  0  0
 15 17  1  0  0  0  0
 18 15  1  0  0  0  0
 20  6  1  0  0  0  0
 21  7  1  0  0  0  0
 23 12  1  0  0  0  0
 24 13  1  0  0  0  0
 25 14  1  0  0  0  0
M  END
$$$$
