25
rmsd13.gzmat
O          0.00000        0.00000        0.00000
C          1.38410        0.00000        0.00000
C          2.04680        0.00000        1.29390
O          3.23300        0.07400        1.49620
O          1.16030       -0.10860        2.31270
C          1.87600       -0.00490       -1.28470
C          0.73490       -0.01330       -2.14920
C         -0.37260       -0.00480       -1.32880
C         -1.79970       -0.00870       -1.56350
C         -2.69590        0.71150       -0.76270
C         -4.06510        0.64790       -1.01390
C         -4.54270       -0.11660       -2.07780
C         -3.65430       -0.82100       -2.88760
C         -2.28740       -0.77180       -2.63030
C         -2.18050        1.55070        0.37540
F         -3.04060        2.45760        0.83940
F         -1.83750        0.83960        1.44730
F         -1.09800        2.26650        0.07130
H          1.59640       -0.10070        3.20500
H          2.90510       -0.00050       -1.59250
H          0.76180       -0.01190       -3.21910
H         -4.78040        1.18720       -0.38840
H         -5.61370       -0.16260       -2.27390
H         -4.02730       -1.41700       -3.72060
H         -1.59180       -1.33470       -3.25370
