
     RDKit          3D

 25 26  0  0  0  0  0  0  0  0999 V2000
    0.1010   -0.0153    0.0389 O   0  0  0  0  0  0  0  0  0  0  0  0
    1.4571    0.0130    0.0062 C   0  0  0  0  0  0  0  0  0  0  0  0
    2.1616   -0.0194    1.2924 C   0  0  0  0  0  0  0  0  0  0  0  0
    1.6402   -0.0608    2.3789 O   0  0  0  0  0  0  0  0  0  0  0  0
    3.5015    0.0047    1.1070 O   0  0  0  0  0  0  0  0  0  0  0  0
    1.8923    0.0786   -1.2976 C   0  0  0  0  0  0  0  0  0  0  0  0
    0.7210    0.0872   -2.1042 C   0  0  0  0  0  0  0  0  0  0  0  0
   -0.3504    0.0204   -1.2344 C   0  0  0  0  0  0  0  0  0  0  0  0
   -1.7938    0.0026   -1.4822 C   0  0  0  0  0  0  0  0  0  0  0  0
   -2.7250   -0.7555   -0.7312 C   0  0  0  0  0  0  0  0  0  0  0  0
   -4.0840   -0.7005   -1.0561 C   0  0  0  0  0  0  0  0  0  0  0  0
   -4.5408    0.0777   -2.1203 C   0  0  0  0  0  0  0  0  0  0  0  0
   -3.6279    0.8101   -2.8797 C   0  0  0  0  0  0  0  0  0  0  0  0
   -2.2731    0.7724   -2.5581 C   0  0  0  0  0  0  0  0  0  0  0  0
   -2.3057   -1.6640    0.4099 C   0  0  0  0  0  0  0  0  0  0  0  0
   -2.0153   -0.9828    1.5248 F   0  0  0  0  0  0  0  0  0  0  0  0
   -3.2920   -2.5267    0.7273 F   0  0  0  0  0  0  0  0  0  0  0  0
   -1.2330   -2.4072    0.0861 F   0  0  0  0  0  0  0  0  0  0  0  0
    3.8985   -0.0202    1.9936 H   0  0  0  0  0  0  0  0  0  0  0  0
    2.9298    0.1085   -1.6195 H   0  0  0  0  0  0  0  0  0  0  0  0
    0.6651    0.1074   -3.1896 H   0  0  0  0  0  0  0  0  0  0  0  0
   -4.7898   -1.2924   -0.4738 H   0  0  0  0  0  0  0  0  0  0  0  0
   -5.6067    0.1049   -2.3557 H   0  0  0  0  0  0  0  0  0  0  0  0
   -3.9700    1.4227   -3.7166 H   0  0  0  0  0  0  0  0  0  0  0  0
   -1.5617    1.3694   -3.1311 H   0  0  0  0  0  0  0  0  0  0  0  0
  1  2  1  0
  1  8  1  0
  2  3  1  0
  2  6  2  0
  3  4  2  0
  3  5  1  0
  5 19  1  0
  6  7  1  0
  6 20  1  0
  7  8  2  0
  7 21  1  0
  8  9  1  0
  9 10  2  0
  9 14  1  0
 10 11  1  0
 10 15  1  0
 11 12  2  0
 11 22  1  0
 12 13  1  0
 12 23  1  0
 13 14  2  0
 13 24  1  0
 14 25  1  0
 15 16  1  0
 15 17  1  0
 15 18  1  0
M  END

