25
rmsd10.gzmat
O          0.00000        0.00000        0.00000
C          1.38410        0.00000        0.00000
C          2.05100        0.00000        1.29150
O          3.24110        0.00660        1.48510
O          1.16700       -0.00090        2.31810
C          1.87610        0.00020       -1.28440
C          0.73530        0.00850       -2.15000
C         -0.37170        0.00260       -1.33060
C         -1.80000       -0.02320       -1.55830
C         -2.64980       -0.84490       -0.80580
C         -4.02280       -0.83480       -1.03980
C         -4.54970       -0.01520       -2.03730
C         -3.70800        0.79530       -2.79590
C         -2.33610        0.79490       -2.55740
C         -2.07650       -1.73290        0.26490
F         -1.79560       -1.08530        1.39400
F         -2.86770       -2.73760        0.64250
F         -0.93970       -2.33710       -0.08100
H          1.60970       -0.01670        3.20720
H          2.90530       -0.01070       -1.59220
H          0.76270        0.00280       -3.21970
H         -4.70200       -1.45840       -0.45370
H         -5.62360       -0.01090       -2.22090
H         -4.12320        1.43500       -3.57510
H         -1.67860        1.43840       -3.14270
