rmsd2.gzmat
 OpenBabel08211713433D

 25 26  0  0  0  0  0  0  0  0999 V2000
    0.0000    0.0000    0.0000 O   0  0  0  0  0  0  0  0  0  0  0  0
    1.3839    0.0000    0.0000 C   0  0  0  0  0  0  0  0  0  0  0  0
    2.0412    0.0000    1.2966 C   0  0  0  0  0  0  0  0  0  0  0  0
    3.2274   -0.0510    1.5047 O   0  0  0  0  0  0  0  0  0  0  0  0
    1.1463    0.0813    2.3110 O   0  0  0  0  0  0  0  0  0  0  0  0
    1.8752    0.0087   -1.2845 C   0  0  0  0  0  0  0  0  0  0  0  0
    0.7334    0.0233   -2.1492 C   0  0  0  0  0  0  0  0  0  0  0  0
   -0.3734    0.0108   -1.3291 C   0  0  0  0  0  0  0  0  0  0  0  0
   -1.8023    0.0037   -1.5525 C   0  0  0  0  0  0  0  0  0  0  0  0
   -2.6724   -0.7629   -0.7656 C   0  0  0  0  0  0  0  0  0  0  0  0
   -4.0465   -0.7127   -0.9898 C   0  0  0  0  0  0  0  0  0  0  0  0
   -4.5543    0.0853   -2.0143 C   0  0  0  0  0  0  0  0  0  0  0  0
   -3.6919    0.8333   -2.8129 C   0  0  0  0  0  0  0  0  0  0  0  0
   -2.3195    0.7967   -2.5823 C   0  0  0  0  0  0  0  0  0  0  0  0
   -2.1224   -1.6407    0.3261 C   0  0  0  0  0  0  0  0  0  0  0  0
   -1.7971   -0.9753    1.4323 F   0  0  0  0  0  0  0  0  0  0  0  0
   -2.9510   -2.5986    0.7434 F   0  0  0  0  0  0  0  0  0  0  0  0
   -1.0186   -2.3045   -0.0170 F   0  0  0  0  0  0  0  0  0  0  0  0
    1.5763    0.0780    3.2058 H   0  0  0  0  0  0  0  0  0  0  0  0
    2.9039    0.0014   -1.5934 H   0  0  0  0  0  0  0  0  0  0  0  0
    0.7603    0.0284   -3.2190 H   0  0  0  0  0  0  0  0  0  0  0  0
   -4.7420   -1.2886   -0.3745 H   0  0  0  0  0  0  0  0  0  0  0  0
   -5.6293    0.1213   -2.1890 H   0  0  0  0  0  0  0  0  0  0  0  0
   -4.0908    1.4525   -3.6165 H   0  0  0  0  0  0  0  0  0  0  0  0
   -1.6445    1.3921   -3.1979 H   0  0  0  0  0  0  0  0  0  0  0  0
  1  2  1  0  0  0  0
  2  3  1  0  0  0  0
  3  4  2  0  0  0  0
  3  5  1  0  0  0  0
  5 19  1  0  0  0  0
  6  2  2  0  0  0  0
  7  8  2  0  0  0  0
  7  6  1  0  0  0  0
  8  1  1  0  0  0  0
  9  8  1  0  0  0  0
  9 10  2  0  0  0  0
 10 15  1  0  0  0  0
 11 10  1  0  0  0  0
 11 22  1  0  0  0  0
 12 11  2  0  0  0  0
 13 14  2  0  0  0  0
 13 12  1  0  0  0  0
 14  9  1  0  0  0  0
 15 17  1  0  0  0  0
 15 16  1  0  0  0  0
 18 15  1  0  0  0  0
 20  6  1  0  0  0  0
 21  7  1  0  0  0  0
 23 12  1  0  0  0  0
 24 13  1  0  0  0  0
 25 14  1  0  0  0  0
M  END
$$$$
