rmsd3.gzmat
 OpenBabel08211713433D

 25 26  0  0  0  0  0  0  0  0999 V2000
    0.0000    0.0000    0.0000 O   0  0  0  0  0  0  0  0  0  0  0  0
    1.3838    0.0000    0.0000 C   0  0  0  0  0  0  0  0  0  0  0  0
    2.0427    0.0000    1.2959 C   0  0  0  0  0  0  0  0  0  0  0  0
    3.2278    0.0800    1.5020 O   0  0  0  0  0  0  0  0  0  0  0  0
    1.1528   -0.1110    2.3116 O   0  0  0  0  0  0  0  0  0  0  0  0
    1.8751    0.0081   -1.2845 C   0  0  0  0  0  0  0  0  0  0  0  0
    0.7336    0.0145   -2.1490 C   0  0  0  0  0  0  0  0  0  0  0  0
   -0.3734    0.0151   -1.3290 C   0  0  0  0  0  0  0  0  0  0  0  0
   -1.8014    0.0255   -1.5559 C   0  0  0  0  0  0  0  0  0  0  0  0
   -2.6822    0.7406   -0.7329 C   0  0  0  0  0  0  0  0  0  0  0  0
   -4.0553    0.6823   -0.9621 C   0  0  0  0  0  0  0  0  0  0  0  0
   -4.5507   -0.0665   -2.0289 C   0  0  0  0  0  0  0  0  0  0  0  0
   -3.6774   -0.7565   -2.8665 C   0  0  0  0  0  0  0  0  0  0  0  0
   -2.3063   -0.7160   -2.6296 C   0  0  0  0  0  0  0  0  0  0  0  0
   -2.1484    1.5694    0.4047 C   0  0  0  0  0  0  0  0  0  0  0  0
   -2.9894    2.4959    0.8665 F   0  0  0  0  0  0  0  0  0  0  0  0
   -1.8216    0.8522    1.4777 F   0  0  0  0  0  0  0  0  0  0  0  0
   -1.0516    2.2640    0.1017 F   0  0  0  0  0  0  0  0  0  0  0  0
    1.5853   -0.0965    3.2055 H   0  0  0  0  0  0  0  0  0  0  0  0
    2.9034    0.0118   -1.5946 H   0  0  0  0  0  0  0  0  0  0  0  0
    0.7599    0.0330   -3.2186 H   0  0  0  0  0  0  0  0  0  0  0  0
   -4.7602    1.2132   -0.3179 H   0  0  0  0  0  0  0  0  0  0  0  0
   -5.6248   -0.1107   -2.2061 H   0  0  0  0  0  0  0  0  0  0  0  0
   -4.0675   -1.3339   -3.7050 H   0  0  0  0  0  0  0  0  0  0  0  0
   -1.6233   -1.2693   -3.2751 H   0  0  0  0  0  0  0  0  0  0  0  0
  1  2  1  0  0  0  0
  2  3  1  0  0  0  0
  3  4  2  0  0  0  0
  3  5  1  0  0  0  0
  5 19  1  0  0  0  0
  6  2  2  0  0  0  0
  7  8  2  0  0  0  0
  7  6  1  0  0  0  0
  8  1  1  0  0  0  0
  9  8  1  0  0  0  0
  9 10  2  0  0  0  0
 10 15  1  0  0  0  0
 11 10  1  0  0  0  0
 11 22  1  0  0  0  0
 12 11  2  0  0  0  0
 13 14  2  0  0  0  0
 13 12  1  0  0  0  0
 14  9  1  0  0  0  0
 15 16  1  0  0  0  0
 15 17  1  0  0  0  0
 18 15  1  0  0  0  0
 20  6  1  0  0  0  0
 21  7  1  0  0  0  0
 23 12  1  0  0  0  0
 24 13  1  0  0  0  0
 25 14  1  0  0  0  0
M  END
$$$$
