rmsd12.gzmat
 OpenBabel08211713433D

 25 26  0  0  0  0  0  0  0  0999 V2000
    0.0000    0.0000    0.0000 O   0  0  0  0  0  0  0  0  0  0  0  0
    1.3840    0.0000    0.0000 C   0  0  0  0  0  0  0  0  0  0  0  0
    2.0441    0.0000    1.2954 C   0  0  0  0  0  0  0  0  0  0  0  0
    3.2295    0.0761    1.5005 O   0  0  0  0  0  0  0  0  0  0  0  0
    1.1542   -0.1062    2.3115 O   0  0  0  0  0  0  0  0  0  0  0  0
    1.8754    0.0031   -1.2847 C   0  0  0  0  0  0  0  0  0  0  0  0
    0.7340    0.0016   -2.1492 C   0  0  0  0  0  0  0  0  0  0  0  0
   -0.3734    0.0056   -1.3292 C   0  0  0  0  0  0  0  0  0  0  0  0
   -1.8013    0.0057   -1.5579 C   0  0  0  0  0  0  0  0  0  0  0  0
   -2.6899    0.7174   -0.7407 C   0  0  0  0  0  0  0  0  0  0  0  0
   -4.0622    0.6472   -0.9721 C   0  0  0  0  0  0  0  0  0  0  0  0
   -4.5503   -0.1122   -2.0349 C   0  0  0  0  0  0  0  0  0  0  0  0
   -3.6693   -0.8022   -2.8649 C   0  0  0  0  0  0  0  0  0  0  0  0
   -2.2989   -0.7470   -2.6276 C   0  0  0  0  0  0  0  0  0  0  0  0
   -2.1636    1.5567    0.3924 C   0  0  0  0  0  0  0  0  0  0  0  0
   -3.0170    2.4693    0.8579 F   0  0  0  0  0  0  0  0  0  0  0  0
   -1.8191    0.8480    1.4655 F   0  0  0  0  0  0  0  0  0  0  0  0
   -1.0800    2.2673    0.0806 F   0  0  0  0  0  0  0  0  0  0  0  0
    1.5852   -0.0842    3.2061 H   0  0  0  0  0  0  0  0  0  0  0  0
    2.9039    0.0091   -1.5941 H   0  0  0  0  0  0  0  0  0  0  0  0
    0.7601    0.0111   -3.2191 H   0  0  0  0  0  0  0  0  0  0  0  0
   -4.7711    1.1761   -0.3306 H   0  0  0  0  0  0  0  0  0  0  0  0
   -5.6238   -0.1654   -2.2147 H   0  0  0  0  0  0  0  0  0  0  0  0
   -4.0518   -1.3932   -3.6973 H   0  0  0  0  0  0  0  0  0  0  0  0
   -1.6097   -1.2982   -3.2685 H   0  0  0  0  0  0  0  0  0  0  0  0
  1  2  1  0  0  0  0
  2  3  1  0  0  0  0
  3  4  2  0  0  0  0
  3  5  1  0  0  0  0
  5 19  1  0  0  0  0
  6  2  2  0  0  0  0
  7  8  2  0  0  0  0
  7  6  1  0  0  0  0
  8  1  1  0  0  0  0
  9  8  1  0  0  0  0
  9 10  2  0  0  0  0
 10 15  1  0  0  0  0
 11 10  1  0  0  0  0
 11 22  1  0  0  0  0
 12 11  2  0  0  0  0
 13 14  2  0  0  0  0
 13 12  1  0  0  0  0
 14  9  1  0  0  0  0
 15 16  1  0  0  0  0
 15 17  1  0  0  0  0
 18 15  1  0  0  0  0
 20  6  1  0  0  0  0
 21  7  1  0  0  0  0
 23 12  1  0  0  0  0
 24 13  1  0  0  0  0
 25 14  1  0  0  0  0
M  END
$$$$
