25
rmsd12.gzmat
O          0.00000        0.00000        0.00000
C          1.38400        0.00000        0.00000
C          2.04410        0.00000        1.29540
O          3.22950        0.07610        1.50050
O          1.15420       -0.10620        2.31150
C          1.87540        0.00310       -1.28470
C          0.73400        0.00160       -2.14920
C         -0.37340        0.00560       -1.32920
C         -1.80130        0.00570       -1.55790
C         -2.68990        0.71740       -0.74070
C         -4.06220        0.64720       -0.97210
C         -4.55030       -0.11220       -2.03490
C         -3.66930       -0.80220       -2.86490
C         -2.29890       -0.74700       -2.62760
C         -2.16360        1.55670        0.39240
F         -3.01700        2.46930        0.85790
F         -1.81910        0.84800        1.46550
F         -1.08000        2.26730        0.08060
H          1.58520       -0.08420        3.20610
H          2.90390        0.00910       -1.59410
H          0.76010        0.01110       -3.21910
H         -4.77110        1.17610       -0.33060
H         -5.62380       -0.16540       -2.21470
H         -4.05180       -1.39320       -3.69730
H         -1.60970       -1.29820       -3.26850
