rmsd150.gzmat
 OpenBabel08211713403D

 31 32  0  0  0  0  0  0  0  0999 V2000
    0.0000    0.0000    0.0000 C   0  0  0  0  0  0  0  0  0  0  0  0
    1.3934    0.0000    0.0000 C   0  0  0  0  0  0  0  0  0  0  0  0
    2.0907    0.0000    1.2077 C   0  0  0  0  0  0  0  0  0  0  0  0
    1.3977    0.0015    2.4176 C   0  0  0  0  0  0  0  0  0  0  0  0
    0.0046   -0.0063    2.4235 C   0  0  0  0  0  0  0  0  0  0  0  0
   -0.6875   -0.0135    1.2127 C   0  0  0  0  0  0  0  0  0  0  0  0
   -2.1695    0.0070    1.2081 C   0  0  0  0  0  0  0  0  0  0  0  0
   -2.8013    0.8806    0.6718 O   0  0  0  0  0  0  0  0  0  0  0  0
   -2.8481   -1.1453    1.9190 C   0  0  0  0  0  0  0  0  0  0  0  0
   -4.2401   -0.9239    2.1052 O   0  0  0  0  0  0  0  0  0  0  0  0
   -4.5665    0.2430    2.7343 C   0  0  0  0  0  0  0  0  0  0  0  0
   -5.6947    0.8495    2.3056 C   0  0  0  0  0  0  0  0  0  0  0  0
   -6.2325    1.9445    2.9193 O   0  0  0  0  0  0  0  0  0  0  0  0
   -5.5513    2.4818    3.9697 C   0  0  0  0  0  0  0  0  0  0  0  0
   -4.4067    1.9749    4.4600 C   0  0  0  0  0  0  0  0  0  0  0  0
   -3.7995    0.7865    3.8740 C   0  0  0  0  0  0  0  0  0  0  0  0
   -2.7646    0.2985    4.2744 O   0  0  0  0  0  0  0  0  0  0  0  0
   -6.2930    3.6893    4.4654 C   0  0  0  0  0  0  0  0  0  0  0  0
   -5.9653    3.9516    5.8075 O   0  0  0  0  0  0  0  0  0  0  0  0
   -0.5506    0.0184   -0.9406 H   0  0  0  0  0  0  0  0  0  0  0  0
    1.9363    0.0082   -0.9429 H   0  0  0  0  0  0  0  0  0  0  0  0
    3.1792    0.0035    1.2058 H   0  0  0  0  0  0  0  0  0  0  0  0
    1.9437    0.0130    3.3592 H   0  0  0  0  0  0  0  0  0  0  0  0
   -0.5407    0.0100    3.3721 H   0  0  0  0  0  0  0  0  0  0  0  0
   -2.3757   -1.3809    2.8948 H   0  0  0  0  0  0  0  0  0  0  0  0
   -2.8516   -2.0580    1.2875 H   0  0  0  0  0  0  0  0  0  0  0  0
   -6.3311    0.5791    1.4712 H   0  0  0  0  0  0  0  0  0  0  0  0
   -3.8790    2.4381    5.2954 H   0  0  0  0  0  0  0  0  0  0  0  0
   -7.3908    3.5877    4.3512 H   0  0  0  0  0  0  0  0  0  0  0  0
   -5.9577    4.6107    3.9360 H   0  0  0  0  0  0  0  0  0  0  0  0
   -6.2445    3.2085    6.3879 H   0  0  0  0  0  0  0  0  0  0  0  0
  1  6  1  0  0  0  0
  2  1  2  0  0  0  0
  2  3  1  0  0  0  0
  3  4  2  0  0  0  0
  4  5  1  0  0  0  0
  4 23  1  0  0  0  0
  5 24  1  0  0  0  0
  6  5  2  0  0  0  0
  7  6  1  0  0  0  0
  7  9  1  0  0  0  0
  8  7  2  0  0  0  0
  9 10  1  0  0  0  0
  9 25  1  0  0  0  0
 10 11  1  0  0  0  0
 11 16  1  0  0  0  0
 12 11  2  0  0  0  0
 12 13  1  0  0  0  0
 13 14  1  0  0  0  0
 14 15  2  0  0  0  0
 14 18  1  0  0  0  0
 15 28  1  0  0  0  0
 16 17  2  0  0  0  0
 16 15  1  0  0  0  0
 18 19  1  0  0  0  0
 19 31  1  0  0  0  0
 20  1  1  0  0  0  0
 21  2  1  0  0  0  0
 22  3  1  0  0  0  0
 26  9  1  0  0  0  0
 27 12  1  0  0  0  0
 29 18  1  0  0  0  0
 30 18  1  0  0  0  0
M  END
$$$$
