31

C          0.26520       -1.06720        0.33560
C          1.63880       -1.22730        0.52560
C          2.30070       -0.48620        1.50840
C          1.58680        0.41800        2.30350
C          0.21620        0.57760        2.11540
C         -0.45820       -0.16310        1.13080
C         -1.93140        0.04640        0.98620
O         -2.53570        0.84350        1.67430
C         -2.66710       -0.78790       -0.05690
O         -4.04610       -0.48560       -0.13300
C         -4.47500        0.77800       -0.35890
C         -5.73700        1.07740        0.04410
O         -6.32380        2.28060       -0.17190
C         -5.63710        3.24740       -0.80600
C         -4.37230        3.05540       -1.25240
C         -3.67310        1.78770       -1.08330
O         -2.53870        1.57320       -1.50740
C         -6.43950        4.51550       -0.95530
O         -5.67150        5.61130       -1.36720
H         -0.23320       -1.64710       -0.44260
H          2.19550       -1.93030       -0.09830
H          3.37640       -0.61190        1.65420
H          2.10470        0.99880        3.07040
H         -0.36560        1.27560        2.71990
H         -2.61910       -1.84850        0.23880
H         -2.17420       -0.66480       -1.03030
H         -6.37900        0.37650        0.57540
H         -3.86210        3.85930       -1.78220
H         -6.98070        4.69080       -0.00350
H         -7.21370        4.35660       -1.72580
H         -5.02210        5.80350       -0.67690
