rmsd65.gzmat
 OpenBabel08211713403D

 31 32  0  0  0  0  0  0  0  0999 V2000
    0.0000    0.0000    0.0000 C   0  0  0  0  0  0  0  0  0  0  0  0
    1.3929    0.0000    0.0000 C   0  0  0  0  0  0  0  0  0  0  0  0
    2.0875    0.0000    1.2089 C   0  0  0  0  0  0  0  0  0  0  0  0
    1.3919    0.0093    2.4176 C   0  0  0  0  0  0  0  0  0  0  0  0
   -0.0013    0.0009    2.4218 C   0  0  0  0  0  0  0  0  0  0  0  0
   -0.6932   -0.0170    1.2113 C   0  0  0  0  0  0  0  0  0  0  0  0
   -2.1745   -0.0450    1.1666 C   0  0  0  0  0  0  0  0  0  0  0  0
   -2.8013    0.6082    0.3711 O   0  0  0  0  0  0  0  0  0  0  0  0
   -2.8598   -0.9683    2.1504 C   0  0  0  0  0  0  0  0  0  0  0  0
   -4.1879   -1.2764    1.7542 O   0  0  0  0  0  0  0  0  0  0  0  0
   -5.0271   -0.2054    1.6290 C   0  0  0  0  0  0  0  0  0  0  0  0
   -5.8505   -0.2164    0.5594 C   0  0  0  0  0  0  0  0  0  0  0  0
   -6.8462    0.7000    0.3769 O   0  0  0  0  0  0  0  0  0  0  0  0
   -6.9512    1.7118    1.2844 C   0  0  0  0  0  0  0  0  0  0  0  0
   -6.1682    1.8310    2.3701 C   0  0  0  0  0  0  0  0  0  0  0  0
   -5.1173    0.8577    2.6509 C   0  0  0  0  0  0  0  0  0  0  0  0
   -4.3963    0.9130    3.6228 O   0  0  0  0  0  0  0  0  0  0  0  0
   -8.0723    2.6196    0.8676 C   0  0  0  0  0  0  0  0  0  0  0  0
   -8.5636    3.3379    1.9726 O   0  0  0  0  0  0  0  0  0  0  0  0
   -0.5527    0.0202   -0.9410 H   0  0  0  0  0  0  0  0  0  0  0  0
    1.9377    0.0056   -0.9421 H   0  0  0  0  0  0  0  0  0  0  0  0
    3.1762   -0.0026    1.2077 H   0  0  0  0  0  0  0  0  0  0  0  0
    1.9371    0.0235    3.3595 H   0  0  0  0  0  0  0  0  0  0  0  0
   -0.5396    0.0219    3.3694 H   0  0  0  0  0  0  0  0  0  0  0  0
   -2.8517   -0.5473    3.1787 H   0  0  0  0  0  0  0  0  0  0  0  0
   -2.4021   -1.9785    2.1647 H   0  0  0  0  0  0  0  0  0  0  0  0
   -5.8749   -0.9158   -0.2675 H   0  0  0  0  0  0  0  0  0  0  0  0
   -6.2701    2.6608    3.0705 H   0  0  0  0  0  0  0  0  0  0  0  0
   -8.8981    2.0694    0.3733 H   0  0  0  0  0  0  0  0  0  0  0  0
   -7.7075    3.4201    0.1837 H   0  0  0  0  0  0  0  0  0  0  0  0
   -8.9188    2.7269    2.6554 H   0  0  0  0  0  0  0  0  0  0  0  0
  1  6  1  0  0  0  0
  2  1  2  0  0  0  0
  2  3  1  0  0  0  0
  3  4  2  0  0  0  0
  4  5  1  0  0  0  0
  4 23  1  0  0  0  0
  5 24  1  0  0  0  0
  6  5  2  0  0  0  0
  7  6  1  0  0  0  0
  7  9  1  0  0  0  0
  8  7  2  0  0  0  0
  9 26  1  0  0  0  0
  9 25  1  0  0  0  0
 10  9  1  0  0  0  0
 11 10  1  0  0  0  0
 11 16  1  0  0  0  0
 12 11  2  0  0  0  0
 13 12  1  0  0  0  0
 13 14  1  0  0  0  0
 14 15  2  0  0  0  0
 15 16  1  0  0  0  0
 15 28  1  0  0  0  0
 16 17  2  0  0  0  0
 18 14  1  0  0  0  0
 18 19  1  0  0  0  0
 19 31  1  0  0  0  0
 20  1  1  0  0  0  0
 21  2  1  0  0  0  0
 22  3  1  0  0  0  0
 27 12  1  0  0  0  0
 29 18  1  0  0  0  0
 30 18  1  0  0  0  0
M  END
$$$$
