
     RDKit          3D

 31 32  0  0  0  0  0  0  0  0999 V2000
   -0.0821    0.5638    0.2080 C   0  0  0  0  0  0  0  0  0  0  0  0
    1.2802    0.8319    0.3164 C   0  0  0  0  0  0  0  0  0  0  0  0
    1.9966    0.3729    1.4279 C   0  0  0  0  0  0  0  0  0  0  0  0
    1.3451   -0.3526    2.4291 C   0  0  0  0  0  0  0  0  0  0  0  0
   -0.0206   -0.6206    2.3220 C   0  0  0  0  0  0  0  0  0  0  0  0
   -0.7457   -0.1651    1.2087 C   0  0  0  0  0  0  0  0  0  0  0  0
   -2.2061   -0.4284    1.0282 C   0  0  0  0  0  0  0  0  0  0  0  0
   -2.8172   -0.0174    0.0632 O   0  0  0  0  0  0  0  0  0  0  0  0
   -2.9170   -1.2471    2.1005 C   0  0  0  0  0  0  0  0  0  0  0  0
   -4.2992   -1.4050    1.8481 O   0  0  0  0  0  0  0  0  0  0  0  0
   -5.1040   -0.3327    1.6628 C   0  0  0  0  0  0  0  0  0  0  0  0
   -6.2551   -0.5427    0.9733 C   0  0  0  0  0  0  0  0  0  0  0  0
   -7.1936    0.4164    0.7777 O   0  0  0  0  0  0  0  0  0  0  0  0
   -6.9785    1.6582    1.2476 C   0  0  0  0  0  0  0  0  0  0  0  0
   -5.8586    1.9802    1.9388 C   0  0  0  0  0  0  0  0  0  0  0  0
   -4.8234    0.9993    2.2407 C   0  0  0  0  0  0  0  0  0  0  0  0
   -3.8215    1.2497    2.9088 O   0  0  0  0  0  0  0  0  0  0  0  0
   -8.1034    2.6018    0.9043 C   0  0  0  0  0  0  0  0  0  0  0  0
   -8.0397    3.8167    1.5978 O   0  0  0  0  0  0  0  0  0  0  0  0
   -0.6660    0.9099   -0.6466 H   0  0  0  0  0  0  0  0  0  0  0  0
    1.7891    1.4010   -0.4652 H   0  0  0  0  0  0  0  0  0  0  0  0
    3.0654    0.5834    1.5147 H   0  0  0  0  0  0  0  0  0  0  0  0
    1.9022   -0.7078    3.2990 H   0  0  0  0  0  0  0  0  0  0  0  0
   -0.5147   -1.1803    3.1177 H   0  0  0  0  0  0  0  0  0  0  0  0
   -2.7375   -0.7896    3.0823 H   0  0  0  0  0  0  0  0  0  0  0  0
   -2.5038   -2.2690    2.0990 H   0  0  0  0  0  0  0  0  0  0  0  0
   -6.5223   -1.5005    0.5296 H   0  0  0  0  0  0  0  0  0  0  0  0
   -5.7209    3.0015    2.2927 H   0  0  0  0  0  0  0  0  0  0  0  0
   -9.0607    2.0619    1.0510 H   0  0  0  0  0  0  0  0  0  0  0  0
   -8.0459    2.8416   -0.1715 H   0  0  0  0  0  0  0  0  0  0  0  0
   -8.1437    3.6337    2.5416 H   0  0  0  0  0  0  0  0  0  0  0  0
  1  2  2  0
  1  6  1  0
  1 20  1  0
  2  3  1  0
  2 21  1  0
  3  4  2  0
  3 22  1  0
  4  5  1  0
  4 23  1  0
  5  6  2  0
  5 24  1  0
  6  7  1  0
  7  8  2  0
  7  9  1  0
  9 10  1  0
  9 25  1  0
  9 26  1  0
 10 11  1  0
 11 12  2  0
 11 16  1  0
 12 13  1  0
 12 27  1  0
 13 14  1  0
 14 15  2  0
 14 18  1  0
 15 16  1  0
 15 28  1  0
 16 17  2  0
 18 19  1  0
 18 29  1  0
 18 30  1  0
 19 31  1  0
M  END

