
     RDKit          3D

 31 32  0  0  0  0  0  0  0  0999 V2000
    0.0916    0.0178    0.0537 C   0  0  0  0  0  0  0  0  0  0  0  0
    1.4098    0.4570   -0.0850 C   0  0  0  0  0  0  0  0  0  0  0  0
    2.1453    0.8396    1.0409 C   0  0  0  0  0  0  0  0  0  0  0  0
    1.5569    0.7936    2.3100 C   0  0  0  0  0  0  0  0  0  0  0  0
    0.2385    0.3662    2.4493 C   0  0  0  0  0  0  0  0  0  0  0  0
   -0.5047   -0.0334    1.3257 C   0  0  0  0  0  0  0  0  0  0  0  0
   -1.9222   -0.4630    1.5482 C   0  0  0  0  0  0  0  0  0  0  0  0
   -2.4822   -0.2657    2.6081 O   0  0  0  0  0  0  0  0  0  0  0  0
   -2.6873   -1.1557    0.4173 C   0  0  0  0  0  0  0  0  0  0  0  0
   -1.9063   -2.1333   -0.2737 O   0  0  0  0  0  0  0  0  0  0  0  0
   -1.5447   -3.2263    0.4493 C   0  0  0  0  0  0  0  0  0  0  0  0
   -0.2278   -3.5338    0.5456 C   0  0  0  0  0  0  0  0  0  0  0  0
    0.2295   -4.6412    1.1750 O   0  0  0  0  0  0  0  0  0  0  0  0
   -0.6510   -5.4815    1.7627 C   0  0  0  0  0  0  0  0  0  0  0  0
   -1.9860   -5.2621    1.7385 C   0  0  0  0  0  0  0  0  0  0  0  0
   -2.5694   -4.1025    1.0642 C   0  0  0  0  0  0  0  0  0  0  0  0
   -3.7712   -3.8743    1.0000 O   0  0  0  0  0  0  0  0  0  0  0  0
    0.0379   -6.6541    2.4144 C   0  0  0  0  0  0  0  0  0  0  0  0
   -0.8109   -7.4142    3.2264 O   0  0  0  0  0  0  0  0  0  0  0  0
   -0.4671   -0.2963   -0.8274 H   0  0  0  0  0  0  0  0  0  0  0  0
    1.8657    0.5006   -1.0769 H   0  0  0  0  0  0  0  0  0  0  0  0
    3.1786    1.1773    0.9289 H   0  0  0  0  0  0  0  0  0  0  0  0
    2.1295    1.0963    3.1899 H   0  0  0  0  0  0  0  0  0  0  0  0
   -0.2490    0.3326    3.4254 H   0  0  0  0  0  0  0  0  0  0  0  0
   -2.9669   -0.4099   -0.3431 H   0  0  0  0  0  0  0  0  0  0  0  0
   -3.5965   -1.6030    0.8386 H   0  0  0  0  0  0  0  0  0  0  0  0
    0.5682   -2.9259    0.1174 H   0  0  0  0  0  0  0  0  0  0  0  0
   -2.6550   -5.9833    2.2074 H   0  0  0  0  0  0  0  0  0  0  0  0
    0.9318   -6.2717    2.9475 H   0  0  0  0  0  0  0  0  0  0  0  0
    0.4150   -7.3244    1.6227 H   0  0  0  0  0  0  0  0  0  0  0  0
   -1.0903   -6.8672    3.9733 H   0  0  0  0  0  0  0  0  0  0  0  0
  1  2  2  0
  1  6  1  0
  1 20  1  0
  2  3  1  0
  2 21  1  0
  3  4  2  0
  3 22  1  0
  4  5  1  0
  4 23  1  0
  5  6  2  0
  5 24  1  0
  6  7  1  0
  7  8  2  0
  7  9  1  0
  9 10  1  0
  9 25  1  0
  9 26  1  0
 10 11  1  0
 11 12  2  0
 11 16  1  0
 12 13  1  0
 12 27  1  0
 13 14  1  0
 14 15  2  0
 14 18  1  0
 15 16  1  0
 15 28  1  0
 16 17  2  0
 18 19  1  0
 18 29  1  0
 18 30  1  0
 19 31  1  0
M  END

