31
rmsd228.gzmat
C          0.00000        0.00000        0.00000
C          1.39310        0.00000        0.00000
C          2.09100        0.00000        1.20730
C          1.39860        0.01200        2.41740
C          0.00540        0.02090        2.42220
C         -0.69000        0.00100        1.21280
C         -2.17130       -0.00910        1.24060
O         -2.80080        0.73390        1.95180
C         -2.89380       -0.99770        0.34700
O         -2.00040       -1.95280       -0.20920
C         -1.63690       -2.96330        0.63880
C         -0.31640       -3.20230        0.78100
O          0.17970       -4.26290        1.47780
C         -0.71590       -5.12380        2.04720
C         -2.04790       -4.97790        1.96710
C         -2.64530       -3.84840        1.25620
O         -3.83690       -3.65530        1.18730
C          0.03740       -6.20720        2.76270
O         -0.73570       -6.72110        3.81940
H         -0.54720       -0.00410       -0.94360
H          1.93630        0.00430       -0.94310
H          3.18000       -0.00250        1.20410
H          1.94520        0.02170        3.35840
H         -0.54350        0.05000        3.36490
H         -3.29560       -0.50070       -0.56090
H         -3.74500       -1.47750        0.87500
H          0.51970       -2.63310        0.38350
H         -2.73710       -5.69610        2.41530
H          1.02070       -5.86140        3.14010
H          0.19370       -7.09340        2.10680
H         -0.92440       -6.02320        4.48550
