53
rmsd25.gzmat
S          0.00000        0.00000        0.00000
N          1.73620        0.00000        0.00000
C          2.16390        0.00000        1.23090
C          1.08000       -0.02370        2.24030
N         -0.11860       -0.01990        1.73010
C          1.35750        0.01160        3.71260
O          1.76330        1.04020        4.22040
N          1.06290       -1.10220        4.46080
C          0.87750       -2.43350        3.86420
C          2.18080       -3.25000        3.91220
C          2.70830       -3.33500        5.34840
C          2.87880       -1.93000        5.93880
C          1.55870       -1.14300        5.84900
C          3.60350       -0.20240        1.61190
O          3.88910       -1.36810        1.84260
N          4.49440        0.82920        1.77460
C          4.23410        2.16640        1.16090
C          5.26420        3.23970        1.59980
C          6.69550        2.72450        1.55050
C          6.78730        1.60280        2.57430
C          5.86810        0.40700        2.22040
C          5.74100       -0.42390        3.51840
C          6.53270       -0.42730        1.10880
C          4.28540        2.03720       -0.37450
C          2.86190        2.70410        1.61700
H          0.50780       -2.34980        2.82090
H          0.07260       -2.94930        4.43840
H          2.01040       -4.25810        3.49650
H          2.94560       -2.78250        3.25400
H          2.01970       -3.93200        5.97320
H          3.67540       -3.87110        5.36190
H          3.21220       -1.98670        6.98920
H          3.67470       -1.38620        5.39120
H          0.77200       -1.61830        6.47620
H          1.69530       -0.10300        6.22910
H          5.14570        4.12930        0.95360
H          5.02920        3.57940        2.62980
H          6.96570        2.37140        0.53870
H          7.41190        3.53260        1.78680
H          7.82760        1.23860        2.66310
H          6.51900        1.99490        3.57660
H          5.00360        0.01940        4.19790
H          6.69800       -0.48550        4.04380
H          5.42180       -1.45650        3.31880
H          6.62750        0.14180        0.18020
H          5.94720       -1.33040        0.87990
H          7.52920       -0.76160        1.41040
H          5.28250        1.74700       -0.72080
H          4.02340        2.98440       -0.85540
H          3.58840        1.28010       -0.75510
H          2.61480        2.36600        2.63740
H          2.04600        2.42000        0.95150
H          2.84790        3.79950        1.65000
