rmsd20.gzmat
 OpenBabel08211713383D

 53 55  0  0  0  0  0  0  0  0999 V2000
    0.0000    0.0000    0.0000 S   0  0  0  0  0  0  0  0  0  0  0  0
    1.7368    0.0000    0.0000 N   0  0  0  0  0  0  0  0  0  0  0  0
    2.1631    0.0000    1.2310 C   0  0  0  0  0  0  0  0  0  0  0  0
    1.0787    0.0213    2.2405 C   0  0  0  0  0  0  0  0  0  0  0  0
   -0.1196    0.0180    1.7303 N   0  0  0  0  0  0  0  0  0  0  0  0
    1.3622   -0.0210    3.7116 C   0  0  0  0  0  0  0  0  0  0  0  0
    1.7658   -1.0545    4.2111 O   0  0  0  0  0  0  0  0  0  0  0  0
    1.0815    1.0901    4.4689 N   0  0  0  0  0  0  0  0  0  0  0  0
    1.6101    1.1300    5.8451 C   0  0  0  0  0  0  0  0  0  0  0  0
    2.9186    1.9382    5.9072 C   0  0  0  0  0  0  0  0  0  0  0  0
    2.7027    3.3458    5.3385 C   0  0  0  0  0  0  0  0  0  0  0  0
    2.1524    3.2618    3.9105 C   0  0  0  0  0  0  0  0  0  0  0  0
    0.8640    2.4204    3.8821 C   0  0  0  0  0  0  0  0  0  0  0  0
    3.6003    0.2036    1.6193 C   0  0  0  0  0  0  0  0  0  0  0  0
    3.8885    1.3705    1.8391 O   0  0  0  0  0  0  0  0  0  0  0  0
    4.4819   -0.8318    1.8113 N   0  0  0  0  0  0  0  0  0  0  0  0
    5.8453   -0.4126    2.2909 C   0  0  0  0  0  0  0  0  0  0  0  0
    6.7396   -1.6123    2.6896 C   0  0  0  0  0  0  0  0  0  0  0  0
    6.6854   -2.7362    1.6653 C   0  0  0  0  0  0  0  0  0  0  0  0
    5.2502   -3.2422    1.6506 C   0  0  0  0  0  0  0  0  0  0  0  0
    4.2438   -2.1630    1.1748 C   0  0  0  0  0  0  0  0  0  0  0  0
    2.8515   -2.7039    1.5615 C   0  0  0  0  0  0  0  0  0  0  0  0
    4.3571   -2.0142   -0.3558 C   0  0  0  0  0  0  0  0  0  0  0  0
    6.5499    0.4033    1.1904 C   0  0  0  0  0  0  0  0  0  0  0  0
    5.6857    0.4351    3.5746 C   0  0  0  0  0  0  0  0  0  0  0  0
    1.7720    0.0910    6.2166 H   0  0  0  0  0  0  0  0  0  0  0  0
    0.8330    1.5899    6.4950 H   0  0  0  0  0  0  0  0  0  0  0  0
    3.2814    1.9882    6.9480 H   0  0  0  0  0  0  0  0  0  0  0  0
    3.7091    1.4171    5.3305 H   0  0  0  0  0  0  0  0  0  0  0  0
    2.0091    3.9160    5.9833 H   0  0  0  0  0  0  0  0  0  0  0  0
    3.6554    3.9067    5.3424 H   0  0  0  0  0  0  0  0  0  0  0  0
    1.9529    4.2698    3.5076 H   0  0  0  0  0  0  0  0  0  0  0  0
    2.9142    2.8158    3.2341 H   0  0  0  0  0  0  0  0  0  0  0  0
    0.0614    2.9198    4.4738 H   0  0  0  0  0  0  0  0  0  0  0  0
    0.4752    2.3350    2.8456 H   0  0  0  0  0  0  0  0  0  0  0  0
    7.7771   -1.2545    2.8245 H   0  0  0  0  0  0  0  0  0  0  0  0
    6.4224   -1.9988    3.6801 H   0  0  0  0  0  0  0  0  0  0  0  0
    7.0034   -2.3880    0.6657 H   0  0  0  0  0  0  0  0  0  0  0  0
    7.3843   -3.5494    1.9354 H   0  0  0  0  0  0  0  0  0  0  0  0
    5.1560   -4.1285    0.9959 H   0  0  0  0  0  0  0  0  0  0  0  0
    4.9696   -3.5837    2.6691 H   0  0  0  0  0  0  0  0  0  0  0  0
    2.8375   -3.7998    1.5930 H   0  0  0  0  0  0  0  0  0  0  0  0
    2.0714   -2.4229    0.8525 H   0  0  0  0  0  0  0  0  0  0  0  0
    2.5530   -2.3671    2.5684 H   0  0  0  0  0  0  0  0  0  0  0  0
    5.3734   -1.7439   -0.6599 H   0  0  0  0  0  0  0  0  0  0  0  0
    3.6915   -1.2336   -0.7473 H   0  0  0  0  0  0  0  0  0  0  0  0
    4.0899   -2.9471   -0.8617 H   0  0  0  0  0  0  0  0  0  0  0  0
    6.6502   -0.1697    0.2647 H   0  0  0  0  0  0  0  0  0  0  0  0
    7.5480    0.7157    1.5096 H   0  0  0  0  0  0  0  0  0  0  0  0
    5.9888    1.3186    0.9488 H   0  0  0  0  0  0  0  0  0  0  0  0
    4.9168    0.0094    4.2306 H   0  0  0  0  0  0  0  0  0  0  0  0
    5.3931    1.4708    3.3518 H   0  0  0  0  0  0  0  0  0  0  0  0
    6.6223    0.4859    4.1359 H   0  0  0  0  0  0  0  0  0  0  0  0
  1  5  1  0  0  0  0
  2  1  1  0  0  0  0
  2  3  2  0  0  0  0
  3 14  1  0  0  0  0
  3  4  1  0  0  0  0
  4  6  1  0  0  0  0
  5  4  2  0  0  0  0
  6  7  2  0  0  0  0
  6  8  1  0  0  0  0
  8  9  1  0  0  0  0
  9 10  1  0  0  0  0
  9 26  1  0  0  0  0
  9 27  1  0  0  0  0
 10 28  1  0  0  0  0
 11 31  1  0  0  0  0
 11 10  1  0  0  0  0
 11 30  1  0  0  0  0
 12 11  1  0  0  0  0
 13 12  1  0  0  0  0
 13  8  1  0  0  0  0
 13 34  1  0  0  0  0
 14 16  1  0  0  0  0
 14 15  2  0  0  0  0
 16 17  1  0  0  0  0
 17 18  1  0  0  0  0
 17 25  1  0  0  0  0
 18 36  1  0  0  0  0
 18 37  1  0  0  0  0
 19 39  1  0  0  0  0
 19 18  1  0  0  0  0
 20 19  1  0  0  0  0
 20 41  1  0  0  0  0
 21 22  1  0  0  0  0
 21 20  1  0  0  0  0
 21 16  1  0  0  0  0
 22 42  1  0  0  0  0
 22 44  1  0  0  0  0
 23 21  1  0  0  0  0
 24 49  1  0  0  0  0
 24 17  1  0  0  0  0
 25 53  1  0  0  0  0
 25 51  1  0  0  0  0
 29 10  1  0  0  0  0
 32 12  1  0  0  0  0
 33 12  1  0  0  0  0
 35 13  1  0  0  0  0
 38 19  1  0  0  0  0
 40 20  1  0  0  0  0
 43 22  1  0  0  0  0
 45 23  1  0  0  0  0
 46 23  1  0  0  0  0
 47 23  1  0  0  0  0
 48 24  1  0  0  0  0
 50 24  1  0  0  0  0
 52 25  1  0  0  0  0
M  END
$$$$
