53
rmsd4.gzmat
S          0.00000        0.00000        0.00000
N          1.73650        0.00000        0.00000
C          2.16310        0.00000        1.23110
C          1.07910       -0.02170        2.24060
N         -0.11940       -0.01770        1.73040
C          1.36010        0.01770        3.71220
O          1.75660        1.05140        4.21680
N          1.08120       -1.09760        4.46340
C          0.87570       -2.42700        3.87040
C          2.17170       -3.25590        3.89920
C          2.71570       -3.34680        5.32920
C          2.90960       -1.94360        5.91620
C          1.59810       -1.14070        5.84370
C          3.60160       -0.20430        1.61380
O          3.89210       -1.37220        1.82300
N          4.48400        0.83040        1.80640
C          4.24080        2.16460        1.17780
C          5.25330        3.24170        1.64720
C          6.68780        2.73310        1.65080
C          6.74650        1.60730        2.67250
C          5.85150        0.40830        2.27160
C          5.70570       -0.45030        3.54940
C          6.54780       -0.39720        1.15830
C          4.33830        2.02560       -0.35460
C          2.85230        2.70470        1.57990
H          0.48990       -2.34120        2.83310
H          0.07560       -2.93580        4.45750
H          1.98570       -4.26190        3.48550
H          2.93160       -2.79600        3.23010
H          2.02800       -3.93490        5.96370
H          3.67670       -3.89410        5.33260
H          3.25450       -2.00340        6.96260
H          3.70550       -1.40970        5.35930
H          0.81610       -1.60480        6.48470
H          1.75330       -0.10200        6.22010
H          5.15550        4.12880        0.99400
H          4.98100        3.58210        2.66800
H          6.99820        2.38590        0.64840
H          7.39100        3.54370        1.91680
H          7.78450        1.25030        2.80390
H          6.43180        1.99030        3.66500
H          4.95320       -0.02530        4.22400
H          6.65250       -0.51650        4.09180
H          5.39920       -1.48090        3.32220
H          6.64960        0.18760        0.24020
H          5.97950       -1.30520        0.90550
H          7.54460       -0.72080        1.47010
H          5.34840        1.74710       -0.67030
H          4.07740        2.96570       -0.84990
H          3.66030        1.25660       -0.74650
H          2.56330        2.36670        2.58870
H          2.06430        2.42490        0.87920
H          2.83940        3.80020        1.61240
