53
rmsd8.gzmat
S          0.00000        0.00000        0.00000
N          1.73690        0.00000        0.00000
C          2.16130        0.00000        1.23170
C          1.07800        0.00400        2.24020
N         -0.12090       -0.00290        1.73060
C          1.31510        0.08480        3.71830
O          1.20380        1.14750        4.29470
N          1.78720       -1.04570        4.35120
C          1.68720       -1.08770        5.82180
C          0.36830       -1.75330        6.25960
C          0.21400       -3.13870        5.61800
C          0.35680       -3.05090        4.09290
C          1.68980       -2.37460        3.72830
C          3.59180       -0.24840        1.61860
O          3.87600       -1.43110        1.71700
N          4.45860        0.76810        1.94870
C          4.25130        2.14260        1.40060
C          5.25070        3.17940        1.97820
C          6.67860        2.65620        2.03440
C          6.66830        1.46530        2.98250
C          5.80370        0.30350        2.43720
C          5.59640       -0.66730        3.62210
C          6.56130       -0.40170        1.29620
C          4.39820        2.10000       -0.13360
C          2.85430        2.67350        1.78690
H          1.75700       -0.05270        6.23120
H          2.56480       -1.65130        6.20790
H          0.33450       -1.83160        7.36040
H         -0.48500       -1.10700        5.97270
H          0.96890       -3.83510        6.02880
H         -0.77040       -3.56800        5.88140
H          0.30490       -4.05580        3.63810
H         -0.48760       -2.47720        3.66320
H          2.55380       -2.98050        4.08980
H          1.82170       -2.30610        2.62560
H          5.19680        4.10100        1.36870
H          4.92800        3.47120        2.99990
H          7.04600        2.37140        1.03170
H          7.37000        3.44060        2.39350
H          7.69470        1.09550        3.16090
H          6.28480        1.78090        3.97420
H          4.78810       -0.32500        4.27930
H          6.50640       -0.76290        4.21960
H          5.32870       -1.67820        3.28430
H          6.71980        0.26230        0.44270
H          6.00640       -1.27880        0.93080
H          7.53640       -0.76090        1.63630
H          5.41290        1.81870       -0.43250
H          4.17430        3.07460       -0.57820
H          3.71700        1.37270       -0.59420
H          2.55010        2.32630        2.78620
H          2.07640        2.40180        1.07170
H          2.83960        3.76940        1.82810
