53

S          0.60760        0.56300        0.18810
N          2.23530        0.19750        0.13240
C          2.70600        0.27070        1.35350
C          1.71830        0.68060        2.33030
N          0.51960        0.86080        1.82270
C          2.02590        0.74950        3.80150
O          2.67710       -0.17140        4.28840
N          1.56360        1.80550        4.51680
C          0.86830        2.97610        3.98830
C         -0.54030        3.06810        4.57830
C         -0.48900        3.05570        6.11060
C          0.31830        1.85920        6.62800
C          1.70090        1.79570        5.97160
C          4.17740        0.24170        1.69650
O          4.62340        1.37610        1.84420
N          4.87590       -0.91360        1.87200
C          6.32020       -0.72040        2.30640
C          6.97200       -2.05030        2.73380
C          6.65600       -3.22490        1.83150
C          5.15530       -3.42090        1.89350
C          4.33030       -2.23200        1.35830
C          2.88890       -2.49480        1.85490
C          4.38590       -2.23180       -0.18050
C          7.12330       -0.11050        1.14330
C          6.38760        0.18410        3.55650
H          0.83820        2.93270        2.89650
H          1.45260        3.87120        4.27250
H         -1.03380        3.98290        4.21140
H         -1.12440        2.20940        4.20660
H         -0.01490        3.99060        6.46240
H         -1.50730        3.04470        6.53160
H          0.43460        1.91060        7.72290
H         -0.21940        0.92180        6.40370
H          2.30620        2.67010        6.27390
H          2.24890        0.88870        6.25090
H          8.05480       -1.86420        2.80170
H          6.63270       -2.30060        3.75310
H          6.99680       -3.04540        0.79890
H          7.17620       -4.13090        2.18150
H          4.83460       -4.30660        1.32400
H          4.87240       -3.60320        2.94410
H          2.71130       -3.58080        1.85230
H          2.11930       -2.05550        1.21250
H          2.76050       -2.11860        2.87890
H          5.42060       -2.15520       -0.54490
H          3.80990       -1.39460       -0.59550
H          3.95660       -3.16840       -0.57030
H          7.18440       -0.80320        0.29060
H          8.14990        0.10790        1.47610
H          6.66480        0.82660        0.80550
H          5.61640       -0.12360        4.27880
H          6.23780        1.24030        3.32080
H          7.37570        0.05940        4.02650
