rmsd26.gzmat
 OpenBabel08211713383D

 53 55  0  0  0  0  0  0  0  0999 V2000
    0.0000    0.0000    0.0000 S   0  0  0  0  0  0  0  0  0  0  0  0
    1.7366    0.0000    0.0000 N   0  0  0  0  0  0  0  0  0  0  0  0
    2.1633    0.0000    1.2308 C   0  0  0  0  0  0  0  0  0  0  0  0
    1.0794   -0.0225    2.2406 C   0  0  0  0  0  0  0  0  0  0  0  0
   -0.1191   -0.0187    1.7308 N   0  0  0  0  0  0  0  0  0  0  0  0
    1.3647    0.0131    3.7117 C   0  0  0  0  0  0  0  0  0  0  0  0
    1.7707    1.0431    4.2162 O   0  0  0  0  0  0  0  0  0  0  0  0
    1.0824   -1.1021    4.4614 N   0  0  0  0  0  0  0  0  0  0  0  0
    0.8650   -2.4288    3.8660 C   0  0  0  0  0  0  0  0  0  0  0  0
    2.1525   -3.2708    3.8981 C   0  0  0  0  0  0  0  0  0  0  0  0
    2.6885   -3.3700    5.3304 C   0  0  0  0  0  0  0  0  0  0  0  0
    2.9032   -1.9676    5.9128 C   0  0  0  0  0  0  0  0  0  0  0  0
    1.5997   -1.1510    5.8414 C   0  0  0  0  0  0  0  0  0  0  0  0
    3.6007   -0.2065    1.6170 C   0  0  0  0  0  0  0  0  0  0  0  0
    3.8836   -1.3742    1.8410 O   0  0  0  0  0  0  0  0  0  0  0  0
    4.4899    0.8239    1.7975 N   0  0  0  0  0  0  0  0  0  0  0  0
    4.2489    2.1582    1.1693 C   0  0  0  0  0  0  0  0  0  0  0  0
    5.2712    3.2297    1.6304 C   0  0  0  0  0  0  0  0  0  0  0  0
    6.7029    2.7132    1.6140 C   0  0  0  0  0  0  0  0  0  0  0  0
    6.7696    1.5913    2.6397 C   0  0  0  0  0  0  0  0  0  0  0  0
    5.8543    0.3983    2.2685 C   0  0  0  0  0  0  0  0  0  0  0  0
    5.6992   -0.4291    3.5659 C   0  0  0  0  0  0  0  0  0  0  0  0
    6.5387   -0.4390    1.1714 C   0  0  0  0  0  0  0  0  0  0  0  0
    4.3371    2.0145   -0.3632 C   0  0  0  0  0  0  0  0  0  0  0  0
    2.8666    2.7050    1.5827 C   0  0  0  0  0  0  0  0  0  0  0  0
    0.4845   -2.3372    2.8272 H   0  0  0  0  0  0  0  0  0  0  0  0
    0.0573   -2.9302    4.4491 H   0  0  0  0  0  0  0  0  0  0  0  0
    1.9584   -4.2740    3.4808 H   0  0  0  0  0  0  0  0  0  0  0  0
    2.9208   -2.8157    3.2348 H   0  0  0  0  0  0  0  0  0  0  0  0
    1.9874   -3.9451    5.9624 H   0  0  0  0  0  0  0  0  0  0  0  0
    3.6393   -3.9346    5.3382 H   0  0  0  0  0  0  0  0  0  0  0  0
    3.2530   -2.0276    6.9576 H   0  0  0  0  0  0  0  0  0  0  0  0
    3.7024   -1.4457    5.3487 H   0  0  0  0  0  0  0  0  0  0  0  0
    0.8131   -1.6080    6.4819 H   0  0  0  0  0  0  0  0  0  0  0  0
    1.7655   -0.1142    6.2180 H   0  0  0  0  0  0  0  0  0  0  0  0
    5.1692    4.1199    0.9822 H   0  0  0  0  0  0  0  0  0  0  0  0
    5.0131    3.5683    2.6556 H   0  0  0  0  0  0  0  0  0  0  0  0
    6.9964    2.3617    0.6081 H   0  0  0  0  0  0  0  0  0  0  0  0
    7.4151    3.5201    1.8682 H   0  0  0  0  0  0  0  0  0  0  0  0
    7.8064    1.2231    2.7500 H   0  0  0  0  0  0  0  0  0  0  0  0
    6.4829    1.9842    3.6368 H   0  0  0  0  0  0  0  0  0  0  0  0
    4.9619    0.0294    4.2360 H   0  0  0  0  0  0  0  0  0  0  0  0
    6.6489   -0.5057    4.1021 H   0  0  0  0  0  0  0  0  0  0  0  0
    5.3652   -1.4564    3.3638 H   0  0  0  0  0  0  0  0  0  0  0  0
    6.6536    0.1288    0.2445 H   0  0  0  0  0  0  0  0  0  0  0  0
    5.9564   -1.3415    0.9321 H   0  0  0  0  0  0  0  0  0  0  0  0
    7.5286   -0.7748    1.4925 H   0  0  0  0  0  0  0  0  0  0  0  0
    5.3404    1.7130   -0.6808 H   0  0  0  0  0  0  0  0  0  0  0  0
    4.0942    2.9584   -0.8608 H   0  0  0  0  0  0  0  0  0  0  0  0
    3.6421    1.2592   -0.7525 H   0  0  0  0  0  0  0  0  0  0  0  0
    2.5859    2.3702    2.5955 H   0  0  0  0  0  0  0  0  0  0  0  0
    2.0702    2.4247    0.8918 H   0  0  0  0  0  0  0  0  0  0  0  0
    2.8582    3.8007    1.6113 H   0  0  0  0  0  0  0  0  0  0  0  0
  1  5  1  0  0  0  0
  2  1  1  0  0  0  0
  2  3  2  0  0  0  0
  3 14  1  0  0  0  0
  3  4  1  0  0  0  0
  4  6  1  0  0  0  0
  5  4  2  0  0  0  0
  6  7  2  0  0  0  0
  6  8  1  0  0  0  0
  8 13  1  0  0  0  0
  9 10  1  0  0  0  0
  9 27  1  0  0  0  0
  9  8  1  0  0  0  0
 10 11  1  0  0  0  0
 11 31  1  0  0  0  0
 11 12  1  0  0  0  0
 11 30  1  0  0  0  0
 12 32  1  0  0  0  0
 13 12  1  0  0  0  0
 13 35  1  0  0  0  0
 13 34  1  0  0  0  0
 14 16  1  0  0  0  0
 14 15  2  0  0  0  0
 16 21  1  0  0  0  0
 17 25  1  0  0  0  0
 17 18  1  0  0  0  0
 17 16  1  0  0  0  0
 18 37  1  0  0  0  0
 19 18  1  0  0  0  0
 19 39  1  0  0  0  0
 19 20  1  0  0  0  0
 20 40  1  0  0  0  0
 20 41  1  0  0  0  0
 21 20  1  0  0  0  0
 21 22  1  0  0  0  0
 22 43  1  0  0  0  0
 22 42  1  0  0  0  0
 23 47  1  0  0  0  0
 23 21  1  0  0  0  0
 24 17  1  0  0  0  0
 25 53  1  0  0  0  0
 25 51  1  0  0  0  0
 26  9  1  0  0  0  0
 28 10  1  0  0  0  0
 29 10  1  0  0  0  0
 33 12  1  0  0  0  0
 36 18  1  0  0  0  0
 38 19  1  0  0  0  0
 44 22  1  0  0  0  0
 45 23  1  0  0  0  0
 46 23  1  0  0  0  0
 48 24  1  0  0  0  0
 49 24  1  0  0  0  0
 50 24  1  0  0  0  0
 52 25  1  0  0  0  0
M  END
$$$$
