
     RDKit          3D

 53 55  0  0  0  0  0  0  0  0999 V2000
    0.1143    0.0317    0.1337 S   0  0  0  0  0  0  0  0  0  0  0  0
    1.7812   -0.0379    0.0709 N   0  0  0  0  0  0  0  0  0  0  0  0
    2.2266   -0.0287    1.3028 C   0  0  0  0  0  0  0  0  0  0  0  0
    1.1813    0.0837    2.2973 C   0  0  0  0  0  0  0  0  0  0  0  0
   -0.0288    0.1165    1.7925 N   0  0  0  0  0  0  0  0  0  0  0  0
    1.5068    0.0760    3.7680 C   0  0  0  0  0  0  0  0  0  0  0  0
    2.1275   -0.8864    4.2113 O   0  0  0  0  0  0  0  0  0  0  0  0
    1.1431    1.1538    4.5065 N   0  0  0  0  0  0  0  0  0  0  0  0
    1.6539    1.2554    5.8738 C   0  0  0  0  0  0  0  0  0  0  0  0
    2.8497    2.2133    5.9145 C   0  0  0  0  0  0  0  0  0  0  0  0
    2.4830    3.5775    5.3168 C   0  0  0  0  0  0  0  0  0  0  0  0
    1.8732    3.4244    3.9180 C   0  0  0  0  0  0  0  0  0  0  0  0
    0.7071    2.4308    3.9385 C   0  0  0  0  0  0  0  0  0  0  0  0
    3.6725    0.1459    1.7020 C   0  0  0  0  0  0  0  0  0  0  0  0
    3.9210    1.3088    2.0208 O   0  0  0  0  0  0  0  0  0  0  0  0
    4.5490   -0.8903    1.7770 N   0  0  0  0  0  0  0  0  0  0  0  0
    5.9242   -0.5221    2.3138 C   0  0  0  0  0  0  0  0  0  0  0  0
    6.7769   -1.7718    2.6080 C   0  0  0  0  0  0  0  0  0  0  0  0
    6.6958   -2.8517    1.5491 C   0  0  0  0  0  0  0  0  0  0  0  0
    5.2499   -3.3011    1.5074 C   0  0  0  0  0  0  0  0  0  0  0  0
    4.2482   -2.2073    1.0825 C   0  0  0  0  0  0  0  0  0  0  0  0
    2.8601   -2.7660    1.4757 C   0  0  0  0  0  0  0  0  0  0  0  0
    4.3441   -1.9978   -0.4395 C   0  0  0  0  0  0  0  0  0  0  0  0
    6.6523    0.3584    1.2823 C   0  0  0  0  0  0  0  0  0  0  0  0
    5.7925    0.2079    3.6692 C   0  0  0  0  0  0  0  0  0  0  0  0
    1.9299    0.2490    6.2082 H   0  0  0  0  0  0  0  0  0  0  0  0
    0.8380    1.6297    6.5166 H   0  0  0  0  0  0  0  0  0  0  0  0
    3.2006    2.3220    6.9539 H   0  0  0  0  0  0  0  0  0  0  0  0
    3.6738    1.7627    5.3370 H   0  0  0  0  0  0  0  0  0  0  0  0
    1.7540    4.0795    5.9802 H   0  0  0  0  0  0  0  0  0  0  0  0
    3.3706    4.2293    5.2779 H   0  0  0  0  0  0  0  0  0  0  0  0
    1.5193    4.3972    3.5383 H   0  0  0  0  0  0  0  0  0  0  0  0
    2.6309    3.0452    3.2129 H   0  0  0  0  0  0  0  0  0  0  0  0
   -0.1157    2.8128    4.5683 H   0  0  0  0  0  0  0  0  0  0  0  0
    0.2952    2.2682    2.9377 H   0  0  0  0  0  0  0  0  0  0  0  0
    7.8092   -1.4210    2.7593 H   0  0  0  0  0  0  0  0  0  0  0  0
    6.4504   -2.2077    3.5671 H   0  0  0  0  0  0  0  0  0  0  0  0
    7.0325   -2.4822    0.5669 H   0  0  0  0  0  0  0  0  0  0  0  0
    7.3528   -3.6967    1.8097 H   0  0  0  0  0  0  0  0  0  0  0  0
    5.1033   -4.1445    0.8156 H   0  0  0  0  0  0  0  0  0  0  0  0
    4.9712   -3.6656    2.5105 H   0  0  0  0  0  0  0  0  0  0  0  0
    2.8733   -3.8578    1.3403 H   0  0  0  0  0  0  0  0  0  0  0  0
    2.0452   -2.3879    0.8509 H   0  0  0  0  0  0  0  0  0  0  0  0
    2.6366   -2.5453    2.5286 H   0  0  0  0  0  0  0  0  0  0  0  0
    5.3595   -1.7014   -0.7406 H   0  0  0  0  0  0  0  0  0  0  0  0
    3.6422   -1.2239   -0.7763 H   0  0  0  0  0  0  0  0  0  0  0  0
    4.0943   -2.9349   -0.9616 H   0  0  0  0  0  0  0  0  0  0  0  0
    6.8596   -0.1979    0.3561 H   0  0  0  0  0  0  0  0  0  0  0  0
    7.6149    0.6953    1.6975 H   0  0  0  0  0  0  0  0  0  0  0  0
    6.0550    1.2445    1.0365 H   0  0  0  0  0  0  0  0  0  0  0  0
    5.0457   -0.3038    4.2951 H   0  0  0  0  0  0  0  0  0  0  0  0
    5.4963    1.2537    3.5575 H   0  0  0  0  0  0  0  0  0  0  0  0
    6.7641    0.1677    4.1856 H   0  0  0  0  0  0  0  0  0  0  0  0
  1  2  1  0
  1  5  1  0
  2  3  2  0
  3  4  1  0
  3 14  1  0
  4  5  2  0
  4  6  1  0
  6  7  2  0
  6  8  1  0
  8  9  1  0
  8 13  1  0
  9 10  1  0
  9 26  1  0
  9 27  1  0
 10 11  1  0
 10 28  1  0
 10 29  1  0
 11 12  1  0
 11 30  1  0
 11 31  1  0
 12 13  1  0
 12 32  1  0
 12 33  1  0
 13 34  1  0
 13 35  1  0
 14 15  2  0
 14 16  1  0
 16 17  1  0
 16 21  1  0
 17 18  1  0
 17 24  1  0
 17 25  1  0
 18 19  1  0
 18 36  1  0
 18 37  1  0
 19 20  1  0
 19 38  1  0
 19 39  1  0
 20 21  1  0
 20 40  1  0
 20 41  1  0
 21 22  1  0
 21 23  1  0
 22 42  1  0
 22 43  1  0
 22 44  1  0
 23 45  1  0
 23 46  1  0
 23 47  1  0
 24 48  1  0
 24 49  1  0
 24 50  1  0
 25 51  1  0
 25 52  1  0
 25 53  1  0
M  END

