53
rmsd21.gzmat
S          0.00000        0.00000        0.00000
N          1.73750        0.00000        0.00000
C          2.15980        0.00000        1.23190
C          1.07510        0.00730        2.24060
N         -0.12300       -0.00160        1.73070
C          1.32490        0.10350        3.71540
O          1.17590        1.16360        4.28830
N          1.86490       -0.99830        4.34050
C          1.89780       -1.00280        5.81400
C          0.66690       -1.72910        6.38900
C          0.54900       -3.14170        5.80190
C          0.53940       -3.09000        4.26830
C          1.78440       -2.34490        3.75550
C          3.58550       -0.25500        1.62980
O          3.86750       -1.43840        1.72320
N          4.44560        0.75840        1.98810
C          4.27330        2.12680        1.41330
C          5.26090        3.15980        2.01580
C          6.67980        2.62120        2.12760
C          6.62310        1.44520        3.09280
C          5.76620        0.28490        2.53130
C          5.49700       -0.66760        3.71910
C          6.56240       -0.44420        1.43220
C          4.47710        2.05850       -0.11350
C          2.86680        2.67760        1.73180
H          1.94540        0.04600        6.19030
H          2.83760       -1.50880        6.12980
H          0.73620       -1.77110        7.48980
H         -0.24810       -1.14650        6.16330
H          1.38660       -3.77180        6.15540
H         -0.37290       -3.62860        6.17040
H          0.50990       -4.10950        3.84460
H         -0.37770       -2.58350        3.90980
H          2.71720       -2.89110        4.03340
H          1.79490       -2.29660        2.64430
H          5.23890        4.07570        1.39630
H          4.90460        3.46430        3.02260
H          7.07560        2.31560        1.14180
H          7.36940        3.40270        2.49600
H          7.63870        1.06850        3.31270
H          6.20660        1.77820        4.06520
H          4.67000       -0.30270        4.34060
H          6.38150       -0.77250        4.35150
H          5.22320       -1.67750        3.38300
H          6.75840        0.20400        0.57430
H          6.01760       -1.32420        1.05850
H          7.52130       -0.80260        1.81700
H          5.48580        1.71970       -0.36920
H          4.32350        3.03830       -0.57580
H          3.77440        1.36300       -0.59140
H          2.12240        2.41370        0.97820
H          2.86540        3.77380        1.76880
H          2.50970        2.33780        2.71560
