rmsd8.gzmat
 OpenBabel08211713383D

 53 55  0  0  0  0  0  0  0  0999 V2000
    0.0000    0.0000    0.0000 S   0  0  0  0  0  0  0  0  0  0  0  0
    1.7369    0.0000    0.0000 N   0  0  0  0  0  0  0  0  0  0  0  0
    2.1613    0.0000    1.2317 C   0  0  0  0  0  0  0  0  0  0  0  0
    1.0780    0.0040    2.2402 C   0  0  0  0  0  0  0  0  0  0  0  0
   -0.1209   -0.0029    1.7306 N   0  0  0  0  0  0  0  0  0  0  0  0
    1.3151    0.0848    3.7183 C   0  0  0  0  0  0  0  0  0  0  0  0
    1.2038    1.1475    4.2947 O   0  0  0  0  0  0  0  0  0  0  0  0
    1.7872   -1.0457    4.3512 N   0  0  0  0  0  0  0  0  0  0  0  0
    1.6872   -1.0877    5.8218 C   0  0  0  0  0  0  0  0  0  0  0  0
    0.3683   -1.7533    6.2596 C   0  0  0  0  0  0  0  0  0  0  0  0
    0.2140   -3.1387    5.6180 C   0  0  0  0  0  0  0  0  0  0  0  0
    0.3568   -3.0509    4.0929 C   0  0  0  0  0  0  0  0  0  0  0  0
    1.6898   -2.3746    3.7283 C   0  0  0  0  0  0  0  0  0  0  0  0
    3.5918   -0.2484    1.6186 C   0  0  0  0  0  0  0  0  0  0  0  0
    3.8760   -1.4311    1.7170 O   0  0  0  0  0  0  0  0  0  0  0  0
    4.4586    0.7681    1.9487 N   0  0  0  0  0  0  0  0  0  0  0  0
    4.2513    2.1426    1.4006 C   0  0  0  0  0  0  0  0  0  0  0  0
    5.2507    3.1794    1.9782 C   0  0  0  0  0  0  0  0  0  0  0  0
    6.6786    2.6562    2.0344 C   0  0  0  0  0  0  0  0  0  0  0  0
    6.6683    1.4653    2.9825 C   0  0  0  0  0  0  0  0  0  0  0  0
    5.8037    0.3035    2.4372 C   0  0  0  0  0  0  0  0  0  0  0  0
    5.5964   -0.6673    3.6221 C   0  0  0  0  0  0  0  0  0  0  0  0
    6.5613   -0.4017    1.2962 C   0  0  0  0  0  0  0  0  0  0  0  0
    4.3982    2.1000   -0.1336 C   0  0  0  0  0  0  0  0  0  0  0  0
    2.8543    2.6735    1.7869 C   0  0  0  0  0  0  0  0  0  0  0  0
    1.7570   -0.0527    6.2312 H   0  0  0  0  0  0  0  0  0  0  0  0
    2.5648   -1.6513    6.2079 H   0  0  0  0  0  0  0  0  0  0  0  0
    0.3345   -1.8316    7.3604 H   0  0  0  0  0  0  0  0  0  0  0  0
   -0.4850   -1.1070    5.9727 H   0  0  0  0  0  0  0  0  0  0  0  0
    0.9689   -3.8351    6.0288 H   0  0  0  0  0  0  0  0  0  0  0  0
   -0.7704   -3.5680    5.8814 H   0  0  0  0  0  0  0  0  0  0  0  0
    0.3049   -4.0558    3.6381 H   0  0  0  0  0  0  0  0  0  0  0  0
   -0.4876   -2.4772    3.6632 H   0  0  0  0  0  0  0  0  0  0  0  0
    2.5538   -2.9805    4.0898 H   0  0  0  0  0  0  0  0  0  0  0  0
    1.8217   -2.3061    2.6256 H   0  0  0  0  0  0  0  0  0  0  0  0
    5.1968    4.1010    1.3687 H   0  0  0  0  0  0  0  0  0  0  0  0
    4.9280    3.4712    2.9999 H   0  0  0  0  0  0  0  0  0  0  0  0
    7.0460    2.3714    1.0317 H   0  0  0  0  0  0  0  0  0  0  0  0
    7.3700    3.4406    2.3935 H   0  0  0  0  0  0  0  0  0  0  0  0
    7.6947    1.0955    3.1609 H   0  0  0  0  0  0  0  0  0  0  0  0
    6.2848    1.7809    3.9742 H   0  0  0  0  0  0  0  0  0  0  0  0
    4.7881   -0.3250    4.2793 H   0  0  0  0  0  0  0  0  0  0  0  0
    6.5064   -0.7629    4.2196 H   0  0  0  0  0  0  0  0  0  0  0  0
    5.3287   -1.6782    3.2843 H   0  0  0  0  0  0  0  0  0  0  0  0
    6.7198    0.2623    0.4427 H   0  0  0  0  0  0  0  0  0  0  0  0
    6.0064   -1.2788    0.9308 H   0  0  0  0  0  0  0  0  0  0  0  0
    7.5364   -0.7609    1.6363 H   0  0  0  0  0  0  0  0  0  0  0  0
    5.4129    1.8187   -0.4325 H   0  0  0  0  0  0  0  0  0  0  0  0
    4.1743    3.0746   -0.5782 H   0  0  0  0  0  0  0  0  0  0  0  0
    3.7170    1.3727   -0.5942 H   0  0  0  0  0  0  0  0  0  0  0  0
    2.5501    2.3263    2.7862 H   0  0  0  0  0  0  0  0  0  0  0  0
    2.0764    2.4018    1.0717 H   0  0  0  0  0  0  0  0  0  0  0  0
    2.8396    3.7694    1.8281 H   0  0  0  0  0  0  0  0  0  0  0  0
  1  5  1  0  0  0  0
  2  1  1  0  0  0  0
  2  3  2  0  0  0  0
  3 14  1  0  0  0  0
  3  4  1  0  0  0  0
  4  6  1  0  0  0  0
  5  4  2  0  0  0  0
  6  7  2  0  0  0  0
  6  8  1  0  0  0  0
  8  9  1  0  0  0  0
  9 27  1  0  0  0  0
  9 26  1  0  0  0  0
  9 10  1  0  0  0  0
 10 28  1  0  0  0  0
 11 31  1  0  0  0  0
 11 30  1  0  0  0  0
 11 10  1  0  0  0  0
 12 11  1  0  0  0  0
 13 34  1  0  0  0  0
 13 12  1  0  0  0  0
 13  8  1  0  0  0  0
 14 15  2  0  0  0  0
 14 16  1  0  0  0  0
 16 21  1  0  0  0  0
 17 25  1  0  0  0  0
 17 16  1  0  0  0  0
 17 18  1  0  0  0  0
 18 19  1  0  0  0  0
 18 37  1  0  0  0  0
 19 39  1  0  0  0  0
 19 20  1  0  0  0  0
 20 40  1  0  0  0  0
 20 41  1  0  0  0  0
 21 20  1  0  0  0  0
 21 22  1  0  0  0  0
 22 43  1  0  0  0  0
 22 42  1  0  0  0  0
 23 47  1  0  0  0  0
 23 21  1  0  0  0  0
 24 17  1  0  0  0  0
 25 53  1  0  0  0  0
 25 51  1  0  0  0  0
 29 10  1  0  0  0  0
 32 12  1  0  0  0  0
 33 12  1  0  0  0  0
 35 13  1  0  0  0  0
 36 18  1  0  0  0  0
 38 19  1  0  0  0  0
 44 22  1  0  0  0  0
 45 23  1  0  0  0  0
 46 23  1  0  0  0  0
 48 24  1  0  0  0  0
 49 24  1  0  0  0  0
 50 24  1  0  0  0  0
 52 25  1  0  0  0  0
M  END
$$$$
