53
rmsd20.gzmat
S          0.00000        0.00000        0.00000
N          1.73680        0.00000        0.00000
C          2.16310        0.00000        1.23100
C          1.07870        0.02130        2.24050
N         -0.11960        0.01800        1.73030
C          1.36220       -0.02100        3.71160
O          1.76580       -1.05450        4.21110
N          1.08150        1.09010        4.46890
C          1.61010        1.13000        5.84510
C          2.91860        1.93820        5.90720
C          2.70270        3.34580        5.33850
C          2.15240        3.26180        3.91050
C          0.86400        2.42040        3.88210
C          3.60030        0.20360        1.61930
O          3.88850        1.37050        1.83910
N          4.48190       -0.83180        1.81130
C          5.84530       -0.41260        2.29090
C          6.73960       -1.61230        2.68960
C          6.68540       -2.73620        1.66530
C          5.25020       -3.24220        1.65060
C          4.24380       -2.16300        1.17480
C          2.85150       -2.70390        1.56150
C          4.35710       -2.01420       -0.35580
C          6.54990        0.40330        1.19040
C          5.68570        0.43510        3.57460
H          1.77200        0.09100        6.21660
H          0.83300        1.58990        6.49500
H          3.28140        1.98820        6.94800
H          3.70910        1.41710        5.33050
H          2.00910        3.91600        5.98330
H          3.65540        3.90670        5.34240
H          1.95290        4.26980        3.50760
H          2.91420        2.81580        3.23410
H          0.06140        2.91980        4.47380
H          0.47520        2.33500        2.84560
H          7.77710       -1.25450        2.82450
H          6.42240       -1.99880        3.68010
H          7.00340       -2.38800        0.66570
H          7.38430       -3.54940        1.93540
H          5.15600       -4.12850        0.99590
H          4.96960       -3.58370        2.66910
H          2.83750       -3.79980        1.59300
H          2.07140       -2.42290        0.85250
H          2.55300       -2.36710        2.56840
H          5.37340       -1.74390       -0.65990
H          3.69150       -1.23360       -0.74730
H          4.08990       -2.94710       -0.86170
H          6.65020       -0.16970        0.26470
H          7.54800        0.71570        1.50960
H          5.98880        1.31860        0.94880
H          4.91680        0.00940        4.23060
H          5.39310        1.47080        3.35180
H          6.62230        0.48590        4.13590
