
     RDKit          3D

 53 55  0  0  0  0  0  0  0  0999 V2000
    0.6076    0.5630    0.1881 S   0  0  0  0  0  0  0  0  0  0  0  0
    2.2353    0.1975    0.1324 N   0  0  0  0  0  0  0  0  0  0  0  0
    2.7060    0.2707    1.3535 C   0  0  0  0  0  0  0  0  0  0  0  0
    1.7183    0.6806    2.3303 C   0  0  0  0  0  0  0  0  0  0  0  0
    0.5196    0.8608    1.8227 N   0  0  0  0  0  0  0  0  0  0  0  0
    2.0259    0.7495    3.8015 C   0  0  0  0  0  0  0  0  0  0  0  0
    2.6771   -0.1714    4.2884 O   0  0  0  0  0  0  0  0  0  0  0  0
    1.5636    1.8055    4.5168 N   0  0  0  0  0  0  0  0  0  0  0  0
    0.8683    2.9761    3.9883 C   0  0  0  0  0  0  0  0  0  0  0  0
   -0.5403    3.0681    4.5783 C   0  0  0  0  0  0  0  0  0  0  0  0
   -0.4890    3.0557    6.1106 C   0  0  0  0  0  0  0  0  0  0  0  0
    0.3183    1.8592    6.6280 C   0  0  0  0  0  0  0  0  0  0  0  0
    1.7009    1.7957    5.9716 C   0  0  0  0  0  0  0  0  0  0  0  0
    4.1774    0.2417    1.6965 C   0  0  0  0  0  0  0  0  0  0  0  0
    4.6234    1.3761    1.8442 O   0  0  0  0  0  0  0  0  0  0  0  0
    4.8759   -0.9136    1.8720 N   0  0  0  0  0  0  0  0  0  0  0  0
    6.3202   -0.7204    2.3064 C   0  0  0  0  0  0  0  0  0  0  0  0
    6.9720   -2.0503    2.7338 C   0  0  0  0  0  0  0  0  0  0  0  0
    6.6560   -3.2249    1.8315 C   0  0  0  0  0  0  0  0  0  0  0  0
    5.1553   -3.4209    1.8935 C   0  0  0  0  0  0  0  0  0  0  0  0
    4.3303   -2.2320    1.3583 C   0  0  0  0  0  0  0  0  0  0  0  0
    2.8889   -2.4948    1.8549 C   0  0  0  0  0  0  0  0  0  0  0  0
    4.3859   -2.2318   -0.1805 C   0  0  0  0  0  0  0  0  0  0  0  0
    7.1233   -0.1105    1.1433 C   0  0  0  0  0  0  0  0  0  0  0  0
    6.3876    0.1841    3.5565 C   0  0  0  0  0  0  0  0  0  0  0  0
    0.8382    2.9327    2.8965 H   0  0  0  0  0  0  0  0  0  0  0  0
    1.4526    3.8712    4.2725 H   0  0  0  0  0  0  0  0  0  0  0  0
   -1.0338    3.9829    4.2114 H   0  0  0  0  0  0  0  0  0  0  0  0
   -1.1244    2.2094    4.2066 H   0  0  0  0  0  0  0  0  0  0  0  0
   -0.0149    3.9906    6.4624 H   0  0  0  0  0  0  0  0  0  0  0  0
   -1.5073    3.0447    6.5316 H   0  0  0  0  0  0  0  0  0  0  0  0
    0.4346    1.9106    7.7229 H   0  0  0  0  0  0  0  0  0  0  0  0
   -0.2194    0.9218    6.4037 H   0  0  0  0  0  0  0  0  0  0  0  0
    2.3062    2.6701    6.2739 H   0  0  0  0  0  0  0  0  0  0  0  0
    2.2489    0.8887    6.2509 H   0  0  0  0  0  0  0  0  0  0  0  0
    8.0548   -1.8642    2.8017 H   0  0  0  0  0  0  0  0  0  0  0  0
    6.6327   -2.3006    3.7531 H   0  0  0  0  0  0  0  0  0  0  0  0
    6.9968   -3.0454    0.7989 H   0  0  0  0  0  0  0  0  0  0  0  0
    7.1762   -4.1309    2.1815 H   0  0  0  0  0  0  0  0  0  0  0  0
    4.8346   -4.3066    1.3240 H   0  0  0  0  0  0  0  0  0  0  0  0
    4.8724   -3.6032    2.9441 H   0  0  0  0  0  0  0  0  0  0  0  0
    2.7113   -3.5808    1.8523 H   0  0  0  0  0  0  0  0  0  0  0  0
    2.1193   -2.0555    1.2125 H   0  0  0  0  0  0  0  0  0  0  0  0
    2.7605   -2.1186    2.8789 H   0  0  0  0  0  0  0  0  0  0  0  0
    5.4206   -2.1552   -0.5449 H   0  0  0  0  0  0  0  0  0  0  0  0
    3.8099   -1.3946   -0.5955 H   0  0  0  0  0  0  0  0  0  0  0  0
    3.9566   -3.1684   -0.5703 H   0  0  0  0  0  0  0  0  0  0  0  0
    7.1844   -0.8032    0.2906 H   0  0  0  0  0  0  0  0  0  0  0  0
    8.1499    0.1079    1.4761 H   0  0  0  0  0  0  0  0  0  0  0  0
    6.6648    0.8266    0.8055 H   0  0  0  0  0  0  0  0  0  0  0  0
    5.6164   -0.1236    4.2788 H   0  0  0  0  0  0  0  0  0  0  0  0
    6.2378    1.2403    3.3208 H   0  0  0  0  0  0  0  0  0  0  0  0
    7.3757    0.0594    4.0265 H   0  0  0  0  0  0  0  0  0  0  0  0
  1  2  1  0
  1  5  1  0
  2  3  2  0
  3  4  1  0
  3 14  1  0
  4  5  2  0
  4  6  1  0
  6  7  2  0
  6  8  1  0
  8  9  1  0
  8 13  1  0
  9 10  1  0
  9 26  1  0
  9 27  1  0
 10 11  1  0
 10 28  1  0
 10 29  1  0
 11 12  1  0
 11 30  1  0
 11 31  1  0
 12 13  1  0
 12 32  1  0
 12 33  1  0
 13 34  1  0
 13 35  1  0
 14 15  2  0
 14 16  1  0
 16 17  1  0
 16 21  1  0
 17 18  1  0
 17 24  1  0
 17 25  1  0
 18 19  1  0
 18 36  1  0
 18 37  1  0
 19 20  1  0
 19 38  1  0
 19 39  1  0
 20 21  1  0
 20 40  1  0
 20 41  1  0
 21 22  1  0
 21 23  1  0
 22 42  1  0
 22 43  1  0
 22 44  1  0
 23 45  1  0
 23 46  1  0
 23 47  1  0
 24 48  1  0
 24 49  1  0
 24 50  1  0
 25 51  1  0
 25 52  1  0
 25 53  1  0
M  END

