53
rmsd3.gzmat
S          0.00000        0.00000        0.00000
N          1.73650        0.00000        0.00000
C          2.16350        0.00000        1.23090
C          1.07930       -0.02390        2.24030
N         -0.11920       -0.01950        1.73060
C          1.36660        0.00910        3.71070
O          1.78880        1.03390        4.21180
N          1.06950       -1.10060        4.46440
C          0.82480       -2.42330        3.86990
C          2.10480       -3.27740        3.86550
C          2.67680       -3.38670        5.28320
C          2.91930       -1.98750        5.86220
C          1.61920       -1.16270        5.83160
C          3.60250       -0.20360        1.61370
O          3.88550       -1.36950        1.84590
N          4.49400        0.82750        1.77810
C          4.24160        2.16140        1.15240
C          5.26250        3.23510        1.61060
C          6.69680        2.72770        1.56460
C          6.78870        1.59610        2.57720
C          5.87180        0.40230        2.21100
C          5.75950       -0.44390        3.50000
C          6.52880       -0.41550        1.08270
C          4.32090        2.02290       -0.38110
C          2.86020        2.70230        1.57620
H          0.41700       -2.32480        2.84200
H          0.02790       -2.91920        4.47260
H          1.89100       -4.27650        3.44900
H          2.86040       -2.82470        3.18630
H          1.98740       -3.95600        5.93290
H          3.62220       -3.95980        5.26540
H          3.29930       -2.05250        6.89570
H          3.70510       -1.46940        5.27550
H          0.84640       -1.62010        6.48810
H          1.79920       -0.12990        6.21210
H          5.14430        4.13180        0.97450
H          5.01800        3.55950        2.64370
H          6.97420        2.38620        0.55080
H          7.40820        3.53700        1.81250
H          7.82920        1.23250        2.66460
H          6.51830        1.97800        3.58320
H          5.04110       -0.00010        4.19900
H          6.72610       -0.52300        4.00520
H          5.42630       -1.47080        3.29570
H          6.60320        0.16160        0.15720
H          5.94840       -1.32230        0.85580
H          7.53360       -0.74160        1.36370
H          5.32150        1.72190       -0.70700
H          4.07760        2.96900       -0.87450
H          3.62320        1.26950       -0.76870
H          2.58960        2.36850        2.59200
H          2.05970        2.41910        0.89140
H          2.84660        3.79800        1.60350
