49
rmsd188.gzmat
S          0.00000        0.00000        0.00000
O          1.48300        0.00000        0.00000
C         -0.47330        0.00000       -1.71590
O         -1.84170       -0.07660       -1.92330
C         -2.01360       -0.18300       -3.30120
N         -3.32570       -0.33570       -3.72240
C         -3.76790        0.63220       -4.74140
C         -4.27400       -0.80440       -2.77490
C         -5.57890       -0.29800       -2.72160
C         -6.49610       -0.85500       -1.83230
C         -6.12570       -1.90020       -0.99220
C         -4.82480       -2.40360       -1.04770
C         -3.90060       -1.87020       -1.93430
C         -0.79030       -0.14590       -3.94420
C          0.20050       -0.01380       -2.90030
C         -0.51650       -0.24190       -5.35950
C         -1.24160       -1.12900       -6.16390
C         -0.97910       -1.20710       -7.52850
C          0.00890       -0.40570       -8.09820
C          0.73800        0.47370       -7.29870
C          0.47900        0.55690       -5.93370
C         -0.49820        1.68640        0.35140
C         -1.84940        2.01640        0.38810
C         -2.23420        3.31530        0.71470
C         -1.26720        4.28230        1.00260
C          0.08840        3.94250        0.95560
C          0.47170        2.64500        0.62790
C         -1.66240        5.67510        1.35710
H         -2.96310        0.78300       -5.48810
H         -4.03230        1.61460       -4.31620
H         -4.63920        0.21920       -5.28160
H         -5.88860        0.52700       -3.35630
H         -7.51150       -0.46170       -1.79480
H         -6.84420       -2.32430       -0.29610
H         -4.53220       -3.22260       -0.39110
H         -2.89130       -2.27900       -1.98400
H          1.26140        0.03770       -3.06460
H         -2.00650       -1.76270       -5.71550
H         -1.54530       -1.89780       -8.15020
H          0.21300       -0.46760       -9.16400
H          1.51150        1.09710       -7.74240
H          1.04530        1.24650       -5.30960
H         -2.62070        1.27810        0.15780
H         -3.28950        3.57410        0.74410
H          0.84480        4.69280        1.17380
H          1.53760        2.38960        0.58800
H         -1.25920        5.96900        2.33820
H         -2.75030        5.81370        1.40290
H         -1.27740        6.39690        0.62010
