49
rmsd213.gzmat
S          0.00000        0.00000        0.00000
O          1.48040        0.00000        0.00000
C         -0.58420        0.00000       -1.66260
O         -0.13370        1.02230       -2.49050
C         -0.78130        0.84660       -3.70050
N         -0.53620        1.82410       -4.64260
C          0.43950        2.86210       -4.25840
C         -0.47040        1.40400       -6.01460
C         -0.98240        2.27940       -6.98020
C         -1.01150        1.87670       -8.31190
C         -0.53500        0.61920       -8.68050
C         -0.01300       -0.24010       -7.71540
C          0.02880        0.14830       -6.37980
C         -1.61720       -0.26250       -3.64940
C         -1.46010       -0.80990       -2.32830
C         -2.49430       -0.77160       -4.67780
C         -2.51620       -2.14050       -4.96630
C         -3.34990       -2.62740       -5.96890
C         -4.16580       -1.75500       -6.68710
C         -4.15100       -0.39130       -6.39820
C         -3.32080        0.10050       -5.39570
C         -0.49160        1.68220        0.39640
C          0.46510        2.59720        0.81960
C          0.07850        3.88470        1.18900
C         -1.26590        4.25580        1.12870
C         -2.22030        3.33220        0.68930
C         -1.83350        2.04650        0.32340
C         -1.69480        5.62820        1.52120
H          0.13050        3.31860       -3.29890
H          0.45320        3.65540       -5.02520
H          1.46230        2.46540       -4.13840
H         -1.37140        3.25200       -6.68490
H         -1.41820        2.54570       -9.06850
H         -0.57370        0.30670       -9.72150
H          0.35850       -1.22340       -8.00250
H          0.42840       -0.52810       -5.62500
H         -1.97150       -1.68470       -1.97550
H         -1.87130       -2.81820       -4.41160
H         -3.36170       -3.69150       -6.19380
H         -4.81280       -2.13680       -7.47230
H         -4.78580        0.29170       -6.95810
H         -3.30480        1.16570       -5.16880
H          1.52520        2.31850        0.86220
H          0.82790        4.59750        1.52370
H         -3.26670        3.62100        0.63070
H         -2.59400        1.34500       -0.02580
H         -2.49660        5.60080        2.27340
H         -2.08310        6.18490        0.65470
H         -0.87720        6.22520        1.94710
