49

S          0.55740        0.62860       -0.14740
O          1.77020        1.45330       -0.51770
C         -0.46070        0.52630       -1.61150
O         -0.86680        1.69250       -2.17970
C         -1.30270        1.41140       -3.43960
N         -1.79820        2.45640       -4.18950
C         -3.13540        2.33460       -4.75290
C         -1.05130        3.63530       -4.39020
C          0.27860        3.74950       -3.93030
C          1.00440        4.91410       -4.16630
C          0.44060        5.99150       -4.85820
C         -0.87340        5.88270       -5.31160
C         -1.61710        4.72190       -5.08400
C         -1.20660        0.05050       -3.68270
C         -0.66470       -0.51490       -2.47540
C         -1.53400       -0.66450       -4.92550
C         -1.99510       -1.99260       -4.88450
C         -2.29600       -2.68200       -6.06020
C         -2.14400       -2.05710       -7.30080
C         -1.68140       -0.73840       -7.35530
C         -1.37650       -0.04900       -6.18200
C         -0.54610        1.74050        0.78510
C         -1.70200        1.25270        1.39710
C         -2.50320        2.13210        2.12280
C         -2.15740        3.48950        2.25300
C         -0.98370        3.94200        1.63380
C         -0.16910        3.07270        0.90330
C         -3.02730        4.42250        3.05620
H         -3.53590        1.34510       -4.50760
H         -3.12470        2.43950       -5.84980
H         -3.81190        3.09960       -4.33430
H          0.74350        2.94320       -3.36500
H          2.03080        4.97660       -3.79650
H          1.01780        6.90090       -5.03690
H         -1.33780        6.71050       -5.85350
H         -2.63980        4.67270       -5.45400
H         -0.39490       -1.55470       -2.30580
H         -2.13220       -2.48340       -3.91820
H         -2.65610       -3.71220       -6.00630
H         -2.38080       -2.59580       -8.22120
H         -1.54680       -0.24530       -8.32110
H         -0.99260        0.97120       -6.23420
H         -1.98060        0.19980        1.29860
H         -3.41380        1.76120        2.60150
H         -0.70090        4.99420        1.72440
H          0.75240        3.40080        0.41730
H         -4.08220        4.35310        2.74540
H         -2.70740        5.46850        2.94540
H         -2.99070        4.17250        4.13020
