rmsd189.gzmat
 OpenBabel08211713383D

 49 52  0  0  0  0  0  0  0  0999 V2000
    0.0000    0.0000    0.0000 S   0  0  2  0  0  0  0  0  0  0  0  0
    1.4827    0.0000    0.0000 O   0  0  0  0  0  0  0  0  0  0  0  0
   -0.4717    0.0000   -1.7171 C   0  0  0  0  0  0  0  0  0  0  0  0
   -1.8406    0.0710   -1.9223 O   0  0  0  0  0  0  0  0  0  0  0  0
   -2.0237    0.0094   -3.3003 C   0  0  0  0  0  0  0  0  0  0  0  0
   -3.3462    0.0281   -3.7197 N   0  0  0  0  0  0  0  0  0  0  0  0
   -3.6565    1.0767   -4.7085 C   0  0  0  0  0  0  0  0  0  0  0  0
   -4.3458   -0.3220   -2.7723 C   0  0  0  0  0  0  0  0  0  0  0  0
   -5.5686    0.3584   -2.7029 C   0  0  0  0  0  0  0  0  0  0  0  0
   -6.5552   -0.0880   -1.8261 C   0  0  0  0  0  0  0  0  0  0  0  0
   -6.3349   -1.1955   -1.0133 C   0  0  0  0  0  0  0  0  0  0  0  0
   -5.1147   -1.8701   -1.0812 C   0  0  0  0  0  0  0  0  0  0  0  0
   -4.1226   -1.4451   -1.9534 C   0  0  0  0  0  0  0  0  0  0  0  0
   -0.8044   -0.0795   -3.9461 C   0  0  0  0  0  0  0  0  0  0  0  0
    0.1958   -0.0750   -2.9024 C   0  0  0  0  0  0  0  0  0  0  0  0
   -0.5415   -0.1665   -5.3642 C   0  0  0  0  0  0  0  0  0  0  0  0
   -1.3659   -0.9334   -6.1960 C   0  0  0  0  0  0  0  0  0  0  0  0
   -1.1085   -1.0013   -7.5624 C   0  0  0  0  0  0  0  0  0  0  0  0
   -0.0270   -0.3103   -8.1065 C   0  0  0  0  0  0  0  0  0  0  0  0
    0.7994    0.4503   -7.2803 C   0  0  0  0  0  0  0  0  0  0  0  0
    0.5453    0.5241   -5.9141 C   0  0  0  0  0  0  0  0  0  0  0  0
   -0.5027    1.6931    0.3159 C   0  0  0  0  0  0  0  0  0  0  0  0
   -1.8550    2.0063    0.4134 C   0  0  0  0  0  0  0  0  0  0  0  0
   -2.2413    3.3171    0.6843 C   0  0  0  0  0  0  0  0  0  0  0  0
   -1.2751    4.3129    0.8563 C   0  0  0  0  0  0  0  0  0  0  0  0
    0.0803    3.9888    0.7523 C   0  0  0  0  0  0  0  0  0  0  0  0
    0.4652    2.6785    0.4805 C   0  0  0  0  0  0  0  0  0  0  0  0
   -1.6803    5.7207    1.1317 C   0  0  0  0  0  0  0  0  0  0  0  0
   -2.8394    1.1400   -5.4546 H   0  0  0  0  0  0  0  0  0  0  0  0
   -3.7840    2.0731   -4.2536 H   0  0  0  0  0  0  0  0  0  0  0  0
   -4.5761    0.8002   -5.2548 H   0  0  0  0  0  0  0  0  0  0  0  0
   -5.7601    1.2343   -3.3160 H   0  0  0  0  0  0  0  0  0  0  0  0
   -7.5072    0.4402   -1.7782 H   0  0  0  0  0  0  0  0  0  0  0  0
   -7.1087   -1.5358   -0.3304 H   0  0  0  0  0  0  0  0  0  0  0  0
   -4.9414   -2.7393   -0.4476 H   0  0  0  0  0  0  0  0  0  0  0  0
   -3.1766   -1.9835   -2.0104 H   0  0  0  0  0  0  0  0  0  0  0  0
    1.2562   -0.1363   -3.0670 H   0  0  0  0  0  0  0  0  0  0  0  0
   -2.2039   -1.4829   -5.7678 H   0  0  0  0  0  0  0  0  0  0  0  0
   -1.7515   -1.5990   -8.2052 H   0  0  0  0  0  0  0  0  0  0  0  0
    0.1742   -0.3665   -9.1733 H   0  0  0  0  0  0  0  0  0  0  0  0
    1.6460    0.9880   -7.7027 H   0  0  0  0  0  0  0  0  0  0  0  0
    1.1867    1.1228   -5.2694 H   0  0  0  0  0  0  0  0  0  0  0  0
   -2.6267    1.2462    0.2719 H   0  0  0  0  0  0  0  0  0  0  0  0
   -3.2974    3.5641    0.7592 H   0  0  0  0  0  0  0  0  0  0  0  0
    0.8365    4.7597    0.8790 H   0  0  0  0  0  0  0  0  0  0  0  0
    1.5310    2.4355    0.3941 H   0  0  0  0  0  0  0  0  0  0  0  0
   -1.0086    6.2105    1.8515 H   0  0  0  0  0  0  0  0  0  0  0  0
   -2.6967    5.7983    1.5396 H   0  0  0  0  0  0  0  0  0  0  0  0
   -1.6552    6.3199    0.2075 H   0  0  0  0  0  0  0  0  0  0  0  0
  1  2  2  6  0  0  0
  1 22  1  0  0  0  0
  3  1  1  0  0  0  0
  4  3  1  0  0  0  0
  5  4  1  0  0  0  0
  6  5  1  0  0  0  0
  6  8  1  0  0  0  0
  7 30  1  0  0  0  0
  7  6  1  0  0  0  0
  8  9  2  0  0  0  0
  8 13  1  0  0  0  0
  9 10  1  0  0  0  0
 10 33  1  0  0  0  0
 10 11  2  0  0  0  0
 11 34  1  0  0  0  0
 12 11  1  0  0  0  0
 12 35  1  0  0  0  0
 13 12  2  0  0  0  0
 14  5  2  0  0  0  0
 14 15  1  0  0  0  0
 15  3  2  0  0  0  0
 16 14  1  0  0  0  0
 17 38  1  0  0  0  0
 17 16  2  0  0  0  0
 18 17  1  0  0  0  0
 19 18  2  0  0  0  0
 19 20  1  0  0  0  0
 20 21  2  0  0  0  0
 21 16  1  0  0  0  0
 21 42  1  0  0  0  0
 22 23  2  0  0  0  0
 22 27  1  0  0  0  0
 23 24  1  0  0  0  0
 24 44  1  0  0  0  0
 24 25  2  0  0  0  0
 25 28  1  0  0  0  0
 26 25  1  0  0  0  0
 26 45  1  0  0  0  0
 27 26  2  0  0  0  0
 28 48  1  0  0  0  0
 28 47  1  0  0  0  0
 29  7  1  0  0  0  0
 31  7  1  0  0  0  0
 32  9  1  0  0  0  0
 36 13  1  0  0  0  0
 37 15  1  0  0  0  0
 39 18  1  0  0  0  0
 40 19  1  0  0  0  0
 41 20  1  0  0  0  0
 43 23  1  0  0  0  0
 46 27  1  0  0  0  0
 49 28  1  0  0  0  0
M  END
$$$$
