49
rmsd225.gzmat
S          0.00000        0.00000        0.00000
O          1.48000        0.00000        0.00000
C         -0.55840        0.00000       -1.67950
O         -0.95240        1.23740       -2.17300
C         -1.34610        1.02710       -3.48440
N         -1.72870        2.17120       -4.16110
C         -2.96160        2.05430       -4.95850
C         -1.49170        3.41540       -3.49440
C         -0.16400        3.71960       -3.15190
C          0.12810        4.94650       -2.57060
C         -0.88820        5.87270       -2.32970
C         -2.20300        5.56320       -2.66440
C         -2.51550        4.33460       -3.24310
C         -1.21380       -0.31220       -3.81690
C         -0.71190       -0.96480       -2.63230
C         -1.47110       -0.95870       -5.08290
C         -0.97120       -0.41040       -6.26990
C         -1.21870       -1.04010       -7.48620
C         -1.96390       -2.21750       -7.52670
C         -2.46170       -2.76670       -6.34610
C         -2.21610       -2.14260       -5.12640
C         -0.50440        1.68480        0.36950
C          0.45880        2.66070        0.59750
C          0.06750        3.96810        0.88020
C         -1.28820        4.29740        0.92780
C         -2.25110        3.30610        0.71070
C         -1.85910        2.00030        0.43170
C         -1.72060        5.70040        1.18610
H         -2.89640        1.15830       -5.60750
H         -3.04890        2.93590       -5.61950
H         -3.87210        1.96840       -4.34370
H          0.62690        2.99240       -3.33870
H          1.15650        5.18430       -2.29980
H         -0.64950        6.83290       -1.87930
H         -2.99780        6.28200       -2.47160
H         -3.54910        4.09970       -3.48060
H         -0.49410       -2.01360       -2.56940
H         -0.37960        0.50480       -6.23240
H         -0.82520       -0.61360       -8.40690
H         -2.15360       -2.70950       -8.47700
H         -3.04300       -3.68570       -6.37720
H         -2.60420       -2.56910       -4.20450
H          1.52650        2.41490        0.54850
H          0.82160        4.73180        1.05340
H         -3.30700        3.55990        0.74810
H         -2.62570        1.24570        0.25290
H         -2.46000        5.75540        1.99720
H         -2.18810        6.13250        0.28640
H         -0.88690        6.35890        1.46340
