rmsd213.gzmat
 OpenBabel08211713383D

 49 51  0  0  0  0  0  0  0  0999 V2000
    0.0000    0.0000    0.0000 S   0  0  0  0  0  0  0  0  0  0  0  0
    1.4804    0.0000    0.0000 O   0  0  0  0  0  0  0  0  0  0  0  0
   -0.5842    0.0000   -1.6626 C   0  0  0  0  0  0  0  0  0  0  0  0
   -0.1337    1.0223   -2.4905 O   0  0  0  0  0  0  0  0  0  0  0  0
   -0.7813    0.8466   -3.7005 C   0  0  0  0  0  0  0  0  0  0  0  0
   -0.5362    1.8241   -4.6426 N   0  0  0  0  0  0  0  0  0  0  0  0
    0.4395    2.8621   -4.2584 C   0  0  0  0  0  0  0  0  0  0  0  0
   -0.4704    1.4040   -6.0146 C   0  0  0  0  0  0  0  0  0  0  0  0
   -0.9824    2.2794   -6.9802 C   0  0  0  0  0  0  0  0  0  0  0  0
   -1.0115    1.8767   -8.3119 C   0  0  0  0  0  0  0  0  0  0  0  0
   -0.5350    0.6192   -8.6805 C   0  0  0  0  0  0  0  0  0  0  0  0
   -0.0130   -0.2401   -7.7154 C   0  0  0  0  0  0  0  0  0  0  0  0
    0.0288    0.1483   -6.3798 C   0  0  0  0  0  0  0  0  0  0  0  0
   -1.6172   -0.2625   -3.6494 C   0  0  0  0  0  0  0  0  0  0  0  0
   -1.4601   -0.8099   -2.3283 C   0  0  0  0  0  0  0  0  0  0  0  0
   -2.4943   -0.7716   -4.6778 C   0  0  0  0  0  0  0  0  0  0  0  0
   -2.5162   -2.1405   -4.9663 C   0  0  0  0  0  0  0  0  0  0  0  0
   -3.3499   -2.6274   -5.9689 C   0  0  0  0  0  0  0  0  0  0  0  0
   -4.1658   -1.7550   -6.6871 C   0  0  0  0  0  0  0  0  0  0  0  0
   -4.1510   -0.3913   -6.3982 C   0  0  0  0  0  0  0  0  0  0  0  0
   -3.3208    0.1005   -5.3957 C   0  0  0  0  0  0  0  0  0  0  0  0
   -0.4916    1.6822    0.3964 C   0  0  0  0  0  0  0  0  0  0  0  0
    0.4651    2.5972    0.8196 C   0  0  0  0  0  0  0  0  0  0  0  0
    0.0785    3.8847    1.1890 C   0  0  0  0  0  0  0  0  0  0  0  0
   -1.2659    4.2558    1.1287 C   0  0  0  0  0  0  0  0  0  0  0  0
   -2.2203    3.3322    0.6893 C   0  0  0  0  0  0  0  0  0  0  0  0
   -1.8335    2.0465    0.3234 C   0  0  0  0  0  0  0  0  0  0  0  0
   -1.6948    5.6282    1.5212 C   0  0  0  0  0  0  0  0  0  0  0  0
    0.1305    3.3186   -3.2989 H   0  0  0  0  0  0  0  0  0  0  0  0
    0.4532    3.6554   -5.0252 H   0  0  0  0  0  0  0  0  0  0  0  0
    1.4623    2.4654   -4.1384 H   0  0  0  0  0  0  0  0  0  0  0  0
   -1.3714    3.2520   -6.6849 H   0  0  0  0  0  0  0  0  0  0  0  0
   -1.4182    2.5457   -9.0685 H   0  0  0  0  0  0  0  0  0  0  0  0
   -0.5737    0.3067   -9.7215 H   0  0  0  0  0  0  0  0  0  0  0  0
    0.3585   -1.2234   -8.0025 H   0  0  0  0  0  0  0  0  0  0  0  0
    0.4284   -0.5281   -5.6250 H   0  0  0  0  0  0  0  0  0  0  0  0
   -1.9715   -1.6847   -1.9755 H   0  0  0  0  0  0  0  0  0  0  0  0
   -1.8713   -2.8182   -4.4116 H   0  0  0  0  0  0  0  0  0  0  0  0
   -3.3617   -3.6915   -6.1938 H   0  0  0  0  0  0  0  0  0  0  0  0
   -4.8128   -2.1368   -7.4723 H   0  0  0  0  0  0  0  0  0  0  0  0
   -4.7858    0.2917   -6.9581 H   0  0  0  0  0  0  0  0  0  0  0  0
   -3.3048    1.1657   -5.1688 H   0  0  0  0  0  0  0  0  0  0  0  0
    1.5252    2.3185    0.8622 H   0  0  0  0  0  0  0  0  0  0  0  0
    0.8279    4.5975    1.5237 H   0  0  0  0  0  0  0  0  0  0  0  0
   -3.2667    3.6210    0.6307 H   0  0  0  0  0  0  0  0  0  0  0  0
   -2.5940    1.3450   -0.0258 H   0  0  0  0  0  0  0  0  0  0  0  0
   -2.4966    5.6008    2.2734 H   0  0  0  0  0  0  0  0  0  0  0  0
   -2.0831    6.1849    0.6547 H   0  0  0  0  0  0  0  0  0  0  0  0
   -0.8772    6.2252    1.9471 H   0  0  0  0  0  0  0  0  0  0  0  0
  1  2  2  0  0  0  0
  1 22  1  0  0  0  0
  4  3  1  0  0  0  0
  5 14  2  0  0  0  0
  5  4  1  0  0  0  0
  6  7  1  0  0  0  0
  6  5  1  0  0  0  0
  7 31  1  0  0  0  0
  7 29  1  0  0  0  0
  8  6  1  0  0  0  0
  9 32  1  0  0  0  0
  9  8  2  0  0  0  0
 10  9  1  0  0  0  0
 11 10  2  0  0  0  0
 11 12  1  0  0  0  0
 12 13  2  0  0  0  0
 13  8  1  0  0  0  0
 13 36  1  0  0  0  0
 14 15  1  0  0  0  0
 15 37  1  0  0  0  0
 15  3  2  0  0  0  0
 16 14  1  0  0  0  0
 17 16  1  0  0  0  0
 17 38  1  0  0  0  0
 18 17  2  0  0  0  0
 19 20  2  0  0  0  0
 19 18  1  0  0  0  0
 20 21  1  0  0  0  0
 21 42  1  0  0  0  0
 21 16  2  0  0  0  0
 22 23  1  0  0  0  0
 23 43  1  0  0  0  0
 23 24  2  0  0  0  0
 24 44  1  0  0  0  0
 25 24  1  0  0  0  0
 25 28  1  0  0  0  0
 26 25  2  0  0  0  0
 27 22  2  0  0  0  0
 27 26  1  0  0  0  0
 28 49  1  0  0  0  0
 28 47  1  0  0  0  0
 30  7  1  0  0  0  0
 33 10  1  0  0  0  0
 34 11  1  0  0  0  0
 35 12  1  0  0  0  0
 39 18  1  0  0  0  0
 40 19  1  0  0  0  0
 41 20  1  0  0  0  0
 45 26  1  0  0  0  0
 46 27  1  0  0  0  0
 48 28  1  0  0  0  0
M  RAD  1   3   2
M  END
$$$$
