49

S          0.45820        0.54590       -0.08910
O          1.70940        1.32310       -0.43300
C         -0.52980        0.47850       -1.57580
O         -0.87830        1.65760       -2.15520
C         -1.29730        1.38970       -3.42370
N         -1.73590        2.45070       -4.18650
C         -3.06520        2.37990       -4.77650
C         -0.93880        3.59820       -4.37530
C          0.38520        3.66080       -3.88920
C          1.16150        4.79460       -4.11360
C          0.65510        5.89130       -4.81940
C         -0.65290        5.83370       -5.29860
C         -1.44680        4.70430       -5.08300
C         -1.24840        0.02540       -3.66170
C         -0.75480       -0.55670       -2.44170
C         -1.57640       -0.68010       -4.90970
C         -1.36930       -0.07430       -6.16380
C         -1.67530       -0.75490       -7.34200
C         -2.18860       -2.05500       -7.29470
C         -2.39020       -2.67030       -6.05640
C         -2.08820       -1.98960       -4.87590
C         -0.62350        1.70120        0.81590
C         -0.19960        3.01870        0.93960
C         -0.99750        3.92010        1.64930
C         -2.20120        3.51380        2.24250
C         -2.59440        2.16980        2.10770
C         -1.81040        1.25870        1.40250
C         -3.05440        4.48130        3.02240
H         -3.50910        1.40750       -4.53740
H         -3.02830        2.48110       -5.87320
H         -3.71950        3.17210       -4.37340
H          0.80600        2.83840       -3.31270
H          2.18200        4.81740       -3.72350
H          1.27170        6.77640       -4.98880
H         -1.07300        6.67760       -5.85180
H         -2.46320        4.69470       -5.47320
H         -0.52910       -1.60560       -2.26390
H         -0.94600        0.93040       -6.20990
H         -1.50190       -0.26990       -8.30570
H         -2.42620       -2.58680       -8.21890
H         -2.79020       -3.68600       -6.00810
H         -2.26410       -2.47230       -3.91190
H          0.74440        3.31050        0.47410
H         -0.67760        4.96130        1.74410
H         -3.52890        1.83470        2.56640
H         -2.12590        0.21670        1.30020
H         -3.06340        4.22620        4.09560
H         -4.10090        4.45960        2.67760
H         -2.68560        5.51270        2.92670
