49
rmsd205.gzmat
S          0.00000        0.00000        0.00000
O          1.48370        0.00000        0.00000
C         -0.46460        0.00000       -1.71700
O         -1.82130       -0.18300       -1.94130
C         -1.96570       -0.30620       -3.32060
N         -3.25500       -0.55740       -3.75950
C         -3.72750        0.31660       -4.84670
C         -4.20130       -1.03050       -2.81100
C         -5.51830       -0.55500       -2.77690
C         -6.42880       -1.11930       -1.88550
C         -6.04040       -2.14300       -1.02700
C         -4.72670       -2.61370       -1.06150
C         -3.80730       -2.07020       -1.94720
C         -0.73990       -0.17820       -3.94810
C          0.22280        0.03710       -2.89330
C         -0.42900       -0.28220       -5.35560
C          0.44350        0.63600       -5.95060
C          0.75080        0.52830       -7.30400
C          0.19230       -0.49360       -8.07040
C         -0.67610       -1.41070       -7.48060
C         -0.98730       -1.30800       -6.12780
C         -0.49040        1.68350        0.37570
C         -1.83960        2.01480        0.44040
C         -2.21630        3.30680        0.80210
C         -1.24390        4.26650        1.09600
C          0.11000        3.92730        1.01660
C          0.48480        2.63580        0.65640
C         -1.63720        5.64930        1.48980
H         -2.91460        0.46650       -5.58510
H         -4.05590        1.30730       -4.49130
H         -4.56120       -0.18000       -5.37590
H         -5.84150        0.25210       -3.42770
H         -7.45380       -0.75030       -1.86180
H         -6.75580       -2.57610       -0.33310
H         -4.42080       -3.41590       -0.39050
H         -2.78650       -2.45080       -1.98050
H          1.27840        0.17080       -3.04630
H          0.87790        1.43470       -5.35180
H          1.43000        1.24340       -7.76370
H          0.43540       -0.57730       -9.12660
H         -1.10870       -2.21120       -8.07700
H         -1.65820       -2.02940       -5.66250
H         -2.61560        1.28290        0.20700
H         -3.27060        3.56690        0.85330
H          0.87170        4.67250        1.23260
H          1.54920        2.37880        0.59560
H         -1.24100        5.91090        2.48280
H         -2.72560        5.78880        1.53100
H         -1.24520        6.39270        0.77900
