
     RDKit          3D

 49 52  0  0  0  0  0  0  0  0999 V2000
    0.1814    0.3202    0.1883 S   0  0  0  0  0  0  0  0  0  0  0  0
    1.6740    0.2838   -0.0374 O   0  0  0  0  0  0  0  0  0  0  0  0
   -0.5151    0.2472   -1.4696 C   0  0  0  0  0  0  0  0  0  0  0  0
   -1.8553    0.3218   -1.6347 O   0  0  0  0  0  0  0  0  0  0  0  0
   -2.1040    0.1278   -2.9790 C   0  0  0  0  0  0  0  0  0  0  0  0
   -3.4128    0.2336   -3.4059 N   0  0  0  0  0  0  0  0  0  0  0  0
   -3.7946    1.3831   -4.2136 C   0  0  0  0  0  0  0  0  0  0  0  0
   -4.3751   -0.7058   -3.0028 C   0  0  0  0  0  0  0  0  0  0  0  0
   -5.7451   -0.4891   -3.2427 C   0  0  0  0  0  0  0  0  0  0  0  0
   -6.6885   -1.4445   -2.8559 C   0  0  0  0  0  0  0  0  0  0  0  0
   -6.2972   -2.6259   -2.2254 C   0  0  0  0  0  0  0  0  0  0  0  0
   -4.9355   -2.8435   -1.9863 C   0  0  0  0  0  0  0  0  0  0  0  0
   -3.9831   -1.9026   -2.3675 C   0  0  0  0  0  0  0  0  0  0  0  0
   -0.9147   -0.0737   -3.6486 C   0  0  0  0  0  0  0  0  0  0  0  0
    0.1244    0.0173   -2.6495 C   0  0  0  0  0  0  0  0  0  0  0  0
   -0.7380   -0.3291   -5.0868 C   0  0  0  0  0  0  0  0  0  0  0  0
    0.4740   -0.0016   -5.7207 C   0  0  0  0  0  0  0  0  0  0  0  0
    0.6561   -0.2401   -7.0836 C   0  0  0  0  0  0  0  0  0  0  0  0
   -0.3698   -0.8111   -7.8413 C   0  0  0  0  0  0  0  0  0  0  0  0
   -1.5777   -1.1465   -7.2215 C   0  0  0  0  0  0  0  0  0  0  0  0
   -1.7619   -0.9105   -5.8595 C   0  0  0  0  0  0  0  0  0  0  0  0
   -0.2668    2.0598    0.5133 C   0  0  0  0  0  0  0  0  0  0  0  0
   -1.5797    2.4105    0.8326 C   0  0  0  0  0  0  0  0  0  0  0  0
   -1.8708    3.7478    1.0982 C   0  0  0  0  0  0  0  0  0  0  0  0
   -0.8661    4.7314    1.0656 C   0  0  0  0  0  0  0  0  0  0  0  0
    0.4437    4.3390    0.7523 C   0  0  0  0  0  0  0  0  0  0  0  0
    0.7527    3.0044    0.4774 C   0  0  0  0  0  0  0  0  0  0  0  0
   -1.1956    6.1676    1.3834 C   0  0  0  0  0  0  0  0  0  0  0  0
   -2.8856    1.9156   -4.5174 H   0  0  0  0  0  0  0  0  0  0  0  0
   -4.4406    2.0833   -3.6541 H   0  0  0  0  0  0  0  0  0  0  0  0
   -4.3294    1.0659   -5.1235 H   0  0  0  0  0  0  0  0  0  0  0  0
   -6.0843    0.4255   -3.7273 H   0  0  0  0  0  0  0  0  0  0  0  0
   -7.7465   -1.2533   -3.0522 H   0  0  0  0  0  0  0  0  0  0  0  0
   -7.0394   -3.3677   -1.9239 H   0  0  0  0  0  0  0  0  0  0  0  0
   -4.6063   -3.7638   -1.4975 H   0  0  0  0  0  0  0  0  0  0  0  0
   -2.9261   -2.0920   -2.1773 H   0  0  0  0  0  0  0  0  0  0  0  0
    1.1969   -0.1062   -2.7686 H   0  0  0  0  0  0  0  0  0  0  0  0
    1.2777    0.4565   -5.1406 H   0  0  0  0  0  0  0  0  0  0  0  0
    1.6047    0.0249   -7.5568 H   0  0  0  0  0  0  0  0  0  0  0  0
   -0.2279   -0.9977   -8.9083 H   0  0  0  0  0  0  0  0  0  0  0  0
   -2.3820   -1.6044   -7.8024 H   0  0  0  0  0  0  0  0  0  0  0  0
   -2.7001   -1.1954   -5.3821 H   0  0  0  0  0  0  0  0  0  0  0  0
   -2.3681    1.6544    0.8574 H   0  0  0  0  0  0  0  0  0  0  0  0
   -2.8974    4.0361    1.3406 H   0  0  0  0  0  0  0  0  0  0  0  0
    1.2365    5.0914    0.7234 H   0  0  0  0  0  0  0  0  0  0  0  0
    1.7655    2.6752    0.2329 H   0  0  0  0  0  0  0  0  0  0  0  0
   -0.3636    6.8393    1.1273 H   0  0  0  0  0  0  0  0  0  0  0  0
   -1.4092    6.2954    2.4583 H   0  0  0  0  0  0  0  0  0  0  0  0
   -2.0896    6.5047    0.8350 H   0  0  0  0  0  0  0  0  0  0  0  0
  1  2  2  0
  1  3  1  6
  1 22  1  0
  3  4  1  0
  3 15  2  0
  4  5  1  0
  5  6  1  0
  5 14  2  0
  6  7  1  0
  6  8  1  0
  7 29  1  0
  7 30  1  0
  7 31  1  0
  8  9  2  0
  8 13  1  0
  9 10  1  0
  9 32  1  0
 10 11  2  0
 10 33  1  0
 11 12  1  0
 11 34  1  0
 12 13  2  0
 12 35  1  0
 13 36  1  0
 14 15  1  0
 14 16  1  0
 15 37  1  0
 16 17  2  0
 16 21  1  0
 17 18  1  0
 17 38  1  0
 18 19  2  0
 18 39  1  0
 19 20  1  0
 19 40  1  0
 20 21  2  0
 20 41  1  0
 21 42  1  0
 22 23  2  0
 22 27  1  0
 23 24  1  0
 23 43  1  0
 24 25  2  0
 24 44  1  0
 25 26  1  0
 25 28  1  0
 26 27  2  0
 26 45  1  0
 27 46  1  0
 28 47  1  0
 28 48  1  0
 28 49  1  0
M  END

