49
rmsd206.gzmat
S          0.00000        0.00000        0.00000
O          1.48300        0.00000        0.00000
C         -0.46920        0.00000       -1.71730
O         -1.83880       -0.01590       -1.92760
C         -2.01270       -0.10450       -3.30630
N         -3.33280       -0.18260       -3.72580
C         -3.72500        0.83390       -4.71840
C         -4.29740       -0.59050       -2.76300
C         -5.53480        0.05110       -2.63060
C         -6.47690       -0.45290       -1.73570
C         -6.19580       -1.57960       -0.96950
C         -4.95960       -2.21470       -1.10030
C         -4.01160       -1.73190       -1.99100
C         -0.78820       -0.12460       -3.94720
C          0.20590       -0.04220       -2.90010
C         -0.50860       -0.23600       -5.36030
C          0.55490        0.48150       -5.92140
C          0.83010        0.37160       -7.28120
C          0.05120       -0.45550       -8.08920
C         -1.00690       -1.17250       -7.53360
C         -1.28880       -1.06430       -6.17480
C         -0.50010        1.68900        0.33840
C         -1.85250        2.00790        0.41610
C         -2.23640        3.31100        0.72490
C         -1.26850        4.29370        0.95430
C          0.08660        3.96620        0.86130
C          0.46950        2.66290        0.55360
C         -1.67410        5.69010        1.28230
H         -2.92540        0.93820       -5.47860
H         -3.90850        1.82580       -4.27320
H         -4.63550        0.49410       -5.24470
H         -5.77140        0.94040       -3.20730
H         -7.44060        0.04560       -1.63570
H         -6.93470       -1.96530       -0.27230
H         -4.73790       -3.09720       -0.50120
H         -3.05200       -2.23660       -2.09980
H          1.26800       -0.03740       -3.06430
H          1.16280        1.12920       -5.29180
H          1.65540        0.93270       -7.71470
H          0.27000       -0.54200       -9.15060
H         -1.61310       -1.82170       -8.16160
H         -2.11230       -1.63070       -5.74050
H         -2.62470        1.25780        0.23150
H         -3.29190        3.56330        0.78620
H          0.84440        4.72830        1.02680
H          1.53540        2.41570        0.48170
H         -0.99170        6.16150        2.00420
H         -2.68290        5.74740        1.71220
H         -1.67150        6.31870        0.37780
