rmsd205.gzmat
 OpenBabel08211713383D

 49 52  0  0  0  0  0  0  0  0999 V2000
    0.0000    0.0000    0.0000 S   0  0  2  0  0  0  0  0  0  0  0  0
    1.4837    0.0000    0.0000 O   0  0  0  0  0  0  0  0  0  0  0  0
   -0.4646    0.0000   -1.7170 C   0  0  0  0  0  0  0  0  0  0  0  0
   -1.8213   -0.1830   -1.9413 O   0  0  0  0  0  0  0  0  0  0  0  0
   -1.9657   -0.3062   -3.3206 C   0  0  0  0  0  0  0  0  0  0  0  0
   -3.2550   -0.5574   -3.7595 N   0  0  0  0  0  0  0  0  0  0  0  0
   -3.7275    0.3166   -4.8467 C   0  0  0  0  0  0  0  0  0  0  0  0
   -4.2013   -1.0305   -2.8110 C   0  0  0  0  0  0  0  0  0  0  0  0
   -5.5183   -0.5550   -2.7769 C   0  0  0  0  0  0  0  0  0  0  0  0
   -6.4288   -1.1193   -1.8855 C   0  0  0  0  0  0  0  0  0  0  0  0
   -6.0404   -2.1430   -1.0270 C   0  0  0  0  0  0  0  0  0  0  0  0
   -4.7267   -2.6137   -1.0615 C   0  0  0  0  0  0  0  0  0  0  0  0
   -3.8073   -2.0702   -1.9472 C   0  0  0  0  0  0  0  0  0  0  0  0
   -0.7399   -0.1782   -3.9481 C   0  0  0  0  0  0  0  0  0  0  0  0
    0.2228    0.0371   -2.8933 C   0  0  0  0  0  0  0  0  0  0  0  0
   -0.4290   -0.2822   -5.3556 C   0  0  0  0  0  0  0  0  0  0  0  0
    0.4435    0.6360   -5.9506 C   0  0  0  0  0  0  0  0  0  0  0  0
    0.7508    0.5283   -7.3040 C   0  0  0  0  0  0  0  0  0  0  0  0
    0.1923   -0.4936   -8.0704 C   0  0  0  0  0  0  0  0  0  0  0  0
   -0.6761   -1.4107   -7.4806 C   0  0  0  0  0  0  0  0  0  0  0  0
   -0.9873   -1.3080   -6.1278 C   0  0  0  0  0  0  0  0  0  0  0  0
   -0.4904    1.6835    0.3757 C   0  0  0  0  0  0  0  0  0  0  0  0
   -1.8396    2.0148    0.4404 C   0  0  0  0  0  0  0  0  0  0  0  0
   -2.2163    3.3068    0.8021 C   0  0  0  0  0  0  0  0  0  0  0  0
   -1.2439    4.2665    1.0960 C   0  0  0  0  0  0  0  0  0  0  0  0
    0.1100    3.9273    1.0166 C   0  0  0  0  0  0  0  0  0  0  0  0
    0.4848    2.6358    0.6564 C   0  0  0  0  0  0  0  0  0  0  0  0
   -1.6372    5.6493    1.4898 C   0  0  0  0  0  0  0  0  0  0  0  0
   -2.9146    0.4665   -5.5851 H   0  0  0  0  0  0  0  0  0  0  0  0
   -4.0559    1.3073   -4.4913 H   0  0  0  0  0  0  0  0  0  0  0  0
   -4.5612   -0.1800   -5.3759 H   0  0  0  0  0  0  0  0  0  0  0  0
   -5.8415    0.2521   -3.4277 H   0  0  0  0  0  0  0  0  0  0  0  0
   -7.4538   -0.7503   -1.8618 H   0  0  0  0  0  0  0  0  0  0  0  0
   -6.7558   -2.5761   -0.3331 H   0  0  0  0  0  0  0  0  0  0  0  0
   -4.4208   -3.4159   -0.3905 H   0  0  0  0  0  0  0  0  0  0  0  0
   -2.7865   -2.4508   -1.9805 H   0  0  0  0  0  0  0  0  0  0  0  0
    1.2784    0.1708   -3.0463 H   0  0  0  0  0  0  0  0  0  0  0  0
    0.8779    1.4347   -5.3518 H   0  0  0  0  0  0  0  0  0  0  0  0
    1.4300    1.2434   -7.7637 H   0  0  0  0  0  0  0  0  0  0  0  0
    0.4354   -0.5773   -9.1266 H   0  0  0  0  0  0  0  0  0  0  0  0
   -1.1087   -2.2112   -8.0770 H   0  0  0  0  0  0  0  0  0  0  0  0
   -1.6582   -2.0294   -5.6625 H   0  0  0  0  0  0  0  0  0  0  0  0
   -2.6156    1.2829    0.2070 H   0  0  0  0  0  0  0  0  0  0  0  0
   -3.2706    3.5669    0.8533 H   0  0  0  0  0  0  0  0  0  0  0  0
    0.8717    4.6725    1.2326 H   0  0  0  0  0  0  0  0  0  0  0  0
    1.5492    2.3788    0.5956 H   0  0  0  0  0  0  0  0  0  0  0  0
   -1.2410    5.9109    2.4828 H   0  0  0  0  0  0  0  0  0  0  0  0
   -2.7256    5.7888    1.5310 H   0  0  0  0  0  0  0  0  0  0  0  0
   -1.2452    6.3927    0.7790 H   0  0  0  0  0  0  0  0  0  0  0  0
  1  2  2  6  0  0  0
  1 22  1  0  0  0  0
  3  1  1  0  0  0  0
  4  3  1  0  0  0  0
  5  4  1  0  0  0  0
  6  5  1  0  0  0  0
  6  8  1  0  0  0  0
  7 30  1  0  0  0  0
  7  6  1  0  0  0  0
  8  9  2  0  0  0  0
  8 13  1  0  0  0  0
  9 10  1  0  0  0  0
 10 33  1  0  0  0  0
 10 11  2  0  0  0  0
 11 34  1  0  0  0  0
 12 11  1  0  0  0  0
 12 35  1  0  0  0  0
 13 12  2  0  0  0  0
 14  5  2  0  0  0  0
 14 15  1  0  0  0  0
 15  3  2  0  0  0  0
 16 14  1  0  0  0  0
 17 16  1  0  0  0  0
 17 38  1  0  0  0  0
 18 17  2  0  0  0  0
 19 20  2  0  0  0  0
 19 18  1  0  0  0  0
 20 21  1  0  0  0  0
 21 42  1  0  0  0  0
 21 16  2  0  0  0  0
 22 23  2  0  0  0  0
 22 27  1  0  0  0  0
 23 24  1  0  0  0  0
 24 44  1  0  0  0  0
 24 25  2  0  0  0  0
 25 28  1  0  0  0  0
 26 25  1  0  0  0  0
 26 45  1  0  0  0  0
 27 26  2  0  0  0  0
 28 48  1  0  0  0  0
 28 47  1  0  0  0  0
 29  7  1  0  0  0  0
 31  7  1  0  0  0  0
 32  9  1  0  0  0  0
 36 13  1  0  0  0  0
 37 15  1  0  0  0  0
 39 18  1  0  0  0  0
 40 19  1  0  0  0  0
 41 20  1  0  0  0  0
 43 23  1  0  0  0  0
 46 27  1  0  0  0  0
 49 28  1  0  0  0  0
M  END
$$$$
