
     RDKit          3D

 49 52  0  0  0  0  0  0  0  0999 V2000
   -0.0609   -0.0821    0.0386 S   0  0  0  0  0  0  0  0  0  0  0  0
    1.4487   -0.1080    0.0663 O   0  0  0  0  0  0  0  0  0  0  0  0
   -0.6233   -0.0231   -1.6449 C   0  0  0  0  0  0  0  0  0  0  0  0
   -0.2251    1.0036   -2.4605 O   0  0  0  0  0  0  0  0  0  0  0  0
   -0.8354    0.8402   -3.6611 C   0  0  0  0  0  0  0  0  0  0  0  0
   -0.5300    1.7795   -4.6136 N   0  0  0  0  0  0  0  0  0  0  0  0
    0.0622    3.0340   -4.1516 C   0  0  0  0  0  0  0  0  0  0  0  0
   -0.4555    1.4212   -5.9862 C   0  0  0  0  0  0  0  0  0  0  0  0
   -0.8856    2.3252   -6.9703 C   0  0  0  0  0  0  0  0  0  0  0  0
   -0.8483    1.9689   -8.3186 C   0  0  0  0  0  0  0  0  0  0  0  0
   -0.3994    0.7028   -8.7044 C   0  0  0  0  0  0  0  0  0  0  0  0
    0.0270   -0.1988   -7.7256 C   0  0  0  0  0  0  0  0  0  0  0  0
    0.0096    0.1568   -6.3778 C   0  0  0  0  0  0  0  0  0  0  0  0
   -1.6474   -0.2929   -3.6414 C   0  0  0  0  0  0  0  0  0  0  0  0
   -1.4689   -0.8508   -2.3290 C   0  0  0  0  0  0  0  0  0  0  0  0
   -2.5087   -0.8215   -4.7075 C   0  0  0  0  0  0  0  0  0  0  0  0
   -2.6435   -2.2102   -4.8867 C   0  0  0  0  0  0  0  0  0  0  0  0
   -3.4394   -2.7268   -5.9101 C   0  0  0  0  0  0  0  0  0  0  0  0
   -4.1142   -1.8656   -6.7796 C   0  0  0  0  0  0  0  0  0  0  0  0
   -3.9964   -0.4832   -6.6067 C   0  0  0  0  0  0  0  0  0  0  0  0
   -3.2089    0.0331   -5.5790 C   0  0  0  0  0  0  0  0  0  0  0  0
   -0.5365    1.6376    0.4389 C   0  0  0  0  0  0  0  0  0  0  0  0
    0.4887    2.5432    0.6821 C   0  0  0  0  0  0  0  0  0  0  0  0
    0.1624    3.8624    1.0108 C   0  0  0  0  0  0  0  0  0  0  0  0
   -1.1732    4.2772    1.1090 C   0  0  0  0  0  0  0  0  0  0  0  0
   -2.1868    3.3323    0.8644 C   0  0  0  0  0  0  0  0  0  0  0  0
   -1.8775    2.0142    0.5343 C   0  0  0  0  0  0  0  0  0  0  0  0
   -1.5268    5.6932    1.4866 C   0  0  0  0  0  0  0  0  0  0  0  0
   -0.5278    3.4521   -3.3237 H   0  0  0  0  0  0  0  0  0  0  0  0
    0.0772    3.7509   -4.9797 H   0  0  0  0  0  0  0  0  0  0  0  0
    1.0955    2.8854   -3.7943 H   0  0  0  0  0  0  0  0  0  0  0  0
   -1.2747    3.3017   -6.6759 H   0  0  0  0  0  0  0  0  0  0  0  0
   -1.1908    2.6825   -9.0718 H   0  0  0  0  0  0  0  0  0  0  0  0
   -0.3843    0.4206   -9.7592 H   0  0  0  0  0  0  0  0  0  0  0  0
    0.3824   -1.1913   -8.0120 H   0  0  0  0  0  0  0  0  0  0  0  0
    0.3427   -0.5518   -5.6192 H   0  0  0  0  0  0  0  0  0  0  0  0
   -1.9563   -1.7390   -1.9333 H   0  0  0  0  0  0  0  0  0  0  0  0
   -2.0973   -2.8904   -4.2288 H   0  0  0  0  0  0  0  0  0  0  0  0
   -3.5240   -3.8091   -6.0358 H   0  0  0  0  0  0  0  0  0  0  0  0
   -4.7298   -2.2693   -7.5869 H   0  0  0  0  0  0  0  0  0  0  0  0
   -4.5236    0.1999   -7.2770 H   0  0  0  0  0  0  0  0  0  0  0  0
   -3.1343    1.1123   -5.4444 H   0  0  0  0  0  0  0  0  0  0  0  0
    1.5208    2.1940    0.6018 H   0  0  0  0  0  0  0  0  0  0  0  0
    0.9629    4.5838    1.1969 H   0  0  0  0  0  0  0  0  0  0  0  0
   -3.2346    3.6379    0.9355 H   0  0  0  0  0  0  0  0  0  0  0  0
   -2.6724    1.2899    0.3369 H   0  0  0  0  0  0  0  0  0  0  0  0
   -1.9474    5.7378    2.5057 H   0  0  0  0  0  0  0  0  0  0  0  0
   -2.2858    6.1127    0.8070 H   0  0  0  0  0  0  0  0  0  0  0  0
   -0.6452    6.3501    1.4617 H   0  0  0  0  0  0  0  0  0  0  0  0
  1  2  2  0
  1  3  1  6
  1 22  1  0
  3  4  1  0
  3 15  2  0
  4  5  1  0
  5  6  1  0
  5 14  2  0
  6  7  1  0
  6  8  1  0
  7 29  1  0
  7 30  1  0
  7 31  1  0
  8  9  2  0
  8 13  1  0
  9 10  1  0
  9 32  1  0
 10 11  2  0
 10 33  1  0
 11 12  1  0
 11 34  1  0
 12 13  2  0
 12 35  1  0
 13 36  1  0
 14 15  1  0
 14 16  1  0
 15 37  1  0
 16 17  2  0
 16 21  1  0
 17 18  1  0
 17 38  1  0
 18 19  2  0
 18 39  1  0
 19 20  1  0
 19 40  1  0
 20 21  2  0
 20 41  1  0
 21 42  1  0
 22 23  2  0
 22 27  1  0
 23 24  1  0
 23 43  1  0
 24 25  2  0
 24 44  1  0
 25 26  1  0
 25 28  1  0
 26 27  2  0
 26 45  1  0
 27 46  1  0
 28 47  1  0
 28 48  1  0
 28 49  1  0
M  END

