35
rmsd45.gzmat
N          0.00000        0.00000        0.00000
C          1.33880        0.00000        0.00000
C          2.05530        0.00000        1.30330
C          2.06940       -0.00640       -1.21980
O          3.40830       -0.02680       -1.07240
C          1.40120       -0.02020       -2.44800
C          2.15000       -0.11250       -3.74750
N          3.36900        0.74140       -3.74370
C          3.05880        2.17680       -3.69920
C          2.54510        2.70650       -5.01640
O          2.50370        2.13870       -6.07490
O          2.11330        3.98200       -4.87630
C         -0.00100       -0.01620       -2.41600
C         -0.65390       -0.00860       -1.17910
C         -0.82140       -0.06950       -3.67140
O         -0.42930       -1.22190       -4.43700
P         -1.06980       -2.67300       -4.26260
O         -0.35070       -3.57940       -5.13250
O         -1.14500       -3.05430       -2.70990
O         -2.61850       -2.44130       -4.56420
H          1.36100        0.01190        2.15830
H          2.71480        0.87770        1.39140
H          2.69760       -0.88990        1.40310
H          3.87440        0.15250       -1.94980
H          1.49410        0.11380       -4.62410
H          2.48090       -1.17320       -3.89880
H          3.95430        0.52200       -4.55720
H          3.98830        2.73110       -3.41200
H          2.32440        2.38970       -2.88240
H          1.78490        4.38900       -5.71730
H         -1.74770       -0.01520       -1.10470
H         -0.54930        0.74560       -4.38490
H         -1.90950        0.02050       -3.47620
H         -0.34570       -2.67890       -2.20650
H         -3.16560       -3.04710       -3.93880
