35
rmsd51.gzmat
N          0.00000        0.00000        0.00000
C          1.33950        0.00000        0.00000
C          2.05570        0.00000        1.30430
C          2.06750        0.00280       -1.21920
O          3.41070        0.00180       -1.07780
C          1.39820        0.02680       -2.44640
C          2.15930        0.10670       -3.73790
N          3.25530       -0.90290       -3.73840
C          4.00240       -0.90490       -5.00100
C          3.25170       -1.58620       -6.12270
O          2.20620       -2.17590       -6.06210
O          3.93580       -1.46740       -7.28490
C         -0.00320        0.03680       -2.41750
C         -0.65420        0.01670       -1.17810
C         -0.82380        0.11730       -3.66930
O         -0.50350        1.28690       -4.44030
P         -0.91590        2.77590       -4.05140
O         -0.34830        3.67770       -5.03710
O         -2.50420        2.80490       -3.95560
O         -0.52540        2.93710       -2.50490
H          1.36130        0.07030        2.15620
H          2.75920        0.84490        1.36870
H          2.64940       -0.91930        1.42800
H          3.87070       -0.18160       -1.95180
H          2.61490        1.12330       -3.83670
H          1.48680       -0.01190       -4.62200
H          2.88110       -1.83550       -3.53300
H          4.97580       -1.43280       -4.83120
H          4.27500        0.13750       -5.29690
H          3.49710       -1.90810       -8.05610
H         -1.74630        0.02270       -1.10200
H         -1.90970        0.00010       -3.47980
H         -0.53310       -0.66900       -4.41140
H         -2.78060        2.61760       -2.98280
H          0.25160        3.58300       -2.39990
