
     RDKit          3D

 35 35  0  0  0  0  0  0  0  0999 V2000
   -0.0029   -0.0715    0.0007 N   0  0  0  0  0  0  0  0  0  0  0  0
    1.3265   -0.0435   -0.0047 C   0  0  0  0  0  0  0  0  0  0  0  0
    2.0646   -0.0024    1.3006 C   0  0  0  0  0  0  0  0  0  0  0  0
    2.0639   -0.0357   -1.2194 C   0  0  0  0  0  0  0  0  0  0  0  0
    3.4012    0.0381   -1.1524 O   0  0  0  0  0  0  0  0  0  0  0  0
    1.3799   -0.0858   -2.4459 C   0  0  0  0  0  0  0  0  0  0  0  0
    2.1823   -0.1369   -3.7305 C   0  0  0  0  0  0  0  0  0  0  0  0
    3.3134    0.7999   -3.6842 N   0  0  0  0  0  0  0  0  0  0  0  0
    2.9265    2.2068   -3.7804 C   0  0  0  0  0  0  0  0  0  0  0  0
    4.1254    3.1276   -3.8268 C   0  0  0  0  0  0  0  0  0  0  0  0
    4.1691    4.2365   -3.3672 O   0  0  0  0  0  0  0  0  0  0  0  0
    5.1568    2.5689   -4.5016 O   0  0  0  0  0  0  0  0  0  0  0  0
   -0.0288   -0.0985   -2.4105 C   0  0  0  0  0  0  0  0  0  0  0  0
   -0.6617   -0.0838   -1.1640 C   0  0  0  0  0  0  0  0  0  0  0  0
   -0.8527   -0.0341   -3.6702 C   0  0  0  0  0  0  0  0  0  0  0  0
   -0.5205    1.1176   -4.4675 O   0  0  0  0  0  0  0  0  0  0  0  0
   -0.7912    2.6453   -4.0355 P   0  0  0  0  0  0  0  0  0  0  0  0
   -0.3149    3.6273   -5.0228 O   0  0  0  0  0  0  0  0  0  0  0  0
   -2.3875    2.5862   -3.7415 O   0  0  0  0  0  0  0  0  0  0  0  0
   -0.1183    2.8635   -2.5825 O   0  0  0  0  0  0  0  0  0  0  0  0
    1.3446    0.0096    2.1282 H   0  0  0  0  0  0  0  0  0  0  0  0
    2.7108    0.8887    1.3546 H   0  0  0  0  0  0  0  0  0  0  0  0
    2.7315   -0.8740    1.4040 H   0  0  0  0  0  0  0  0  0  0  0  0
    3.7119    0.3266   -2.0596 H   0  0  0  0  0  0  0  0  0  0  0  0
    1.5374    0.0461   -4.6033 H   0  0  0  0  0  0  0  0  0  0  0  0
    2.6090   -1.1501   -3.8339 H   0  0  0  0  0  0  0  0  0  0  0  0
    3.9891    0.5808   -4.4143 H   0  0  0  0  0  0  0  0  0  0  0  0
    2.3114    2.4995   -2.9199 H   0  0  0  0  0  0  0  0  0  0  0  0
    2.3130    2.4274   -4.6789 H   0  0  0  0  0  0  0  0  0  0  0  0
    5.8776    3.2221   -4.5097 H   0  0  0  0  0  0  0  0  0  0  0  0
   -1.7573   -0.0833   -1.1097 H   0  0  0  0  0  0  0  0  0  0  0  0
   -1.9268   -0.0195   -3.4292 H   0  0  0  0  0  0  0  0  0  0  0  0
   -0.6642   -0.8927   -4.3302 H   0  0  0  0  0  0  0  0  0  0  0  0
   -2.7911    3.4655   -3.7893 H   0  0  0  0  0  0  0  0  0  0  0  0
   -0.3427    2.1780   -1.9284 H   0  0  0  0  0  0  0  0  0  0  0  0
  1  2  2  0
  1 14  1  0
  2  3  1  0
  2  4  1  0
  3 21  1  0
  3 22  1  0
  3 23  1  0
  4  5  1  0
  4  6  2  0
  5 24  1  0
  6  7  1  0
  6 13  1  0
  7  8  1  0
  7 25  1  0
  7 26  1  0
  8  9  1  0
  8 27  1  0
  9 10  1  0
  9 28  1  0
  9 29  1  0
 10 11  2  0
 10 12  1  0
 12 30  1  0
 13 14  2  0
 13 15  1  0
 14 31  1  0
 15 16  1  0
 15 32  1  0
 15 33  1  0
 17 16  1  0
 17 18  2  0
 17 19  1  0
 17 20  1  0
 19 34  1  0
 20 35  1  0
M  END

