35

N         -0.03270       -0.06060        0.00470
C          1.29560       -0.08030       -0.10630
C          2.12980       -0.17240        1.13770
C          1.93760       -0.02580       -1.36800
O          3.27950       -0.05460       -1.38210
C          1.16330        0.03610       -2.54800
C          1.84820       -0.00760       -3.89890
N          3.14620        0.69130       -3.88320
C          3.04680        2.13760       -3.83800
C          2.59580        2.75710       -5.15190
O          2.49020        2.15460       -6.19090
O          2.35450        4.07120       -5.02570
C         -0.23900        0.05550       -2.39790
C         -0.77320        0.01480       -1.10250
C         -1.20990       -0.03070       -3.55280
O         -1.86350       -1.31490       -3.60100
P         -0.97160       -2.66920       -3.60750
O          0.28080       -2.56590       -4.39890
O         -0.85730       -3.10230       -2.06460
O         -2.02100       -3.77440       -4.11000
H          1.47350       -0.19460        2.01660
H          2.82060        0.68340        1.21090
H          2.76050       -1.07640        1.12390
H          3.56120        0.14510       -2.32010
H          1.19380        0.38980       -4.68910
H          2.01760       -1.06310       -4.16100
H          3.68010        0.41250       -4.70540
H          4.02220        2.58500       -3.57970
H          2.35370        2.44520       -3.03930
H          2.10380        4.40660       -5.90440
H         -1.86140        0.02630       -0.96800
H         -0.72680        0.16210       -4.51930
H         -2.02910        0.68990       -3.42320
H         -0.56830       -2.37000       -1.49510
H         -1.79960       -4.05010       -5.01150
