35

N         -0.18230       -0.06530       -0.01670
C          1.14830       -0.03530       -0.00110
C          1.86320       -0.06330        1.31910
C          1.90620        0.00590       -1.19780
O          3.24910        0.01550       -1.09230
C          1.24250        0.02960       -2.43730
C          2.03220       -0.03040       -3.72560
N          3.28760        0.73770       -3.63510
C          3.09980        2.17570       -3.63140
C          2.71360        2.73820       -4.99080
O          2.74240        2.11260       -6.02120
O          2.36290        4.03160       -4.91570
C         -0.16560        0.01110       -2.42250
C         -0.81800       -0.04850       -1.18940
C         -0.97600        0.01580       -3.68770
O         -0.69990       -1.10170       -4.56000
P         -0.91600       -2.63790       -4.16510
O         -1.14750       -3.55610       -5.29790
O          0.39990       -2.92540       -3.26940
O         -2.11560       -2.61330       -3.06750
H          1.12630       -0.07540        2.13200
H          2.52390        0.81220        1.42830
H          2.51260       -0.95090        1.39780
H          3.60470        0.22220       -1.99850
H          1.42110        0.28330       -4.58650
H          2.29820       -1.08370       -3.91400
H          3.89230        0.47930       -4.41400
H          4.02520        2.68670       -3.31390
H          2.33180        2.45520       -2.89340
H          2.16380        4.33120       -5.82020
H         -1.91260       -0.09270       -1.15820
H         -0.75580        0.89600       -4.30910
H         -2.04850        0.02320       -3.44480
H          0.55000       -3.87640       -3.16150
H         -2.89580       -3.05890       -3.43000
