rmsd26.gzmat
 OpenBabel08211713413D

 35 35  0  0  1  0  0  0  0  0999 V2000
    0.0000    0.0000    0.0000 N   0  0  0  0  0  0  0  0  0  0  0  0
    1.3413    0.0000    0.0000 C   0  0  0  0  0  0  0  0  0  0  0  0
    2.0610    0.0000    1.3010 C   0  0  0  0  0  0  0  0  0  0  0  0
    2.0588   -0.0122   -1.2223 C   0  0  0  0  0  0  0  0  0  0  0  0
    3.4079   -0.0655   -1.1171 O   0  0  0  0  0  0  0  0  0  0  0  0
    1.3845    0.0321   -2.4457 C   0  0  0  0  0  0  0  0  0  0  0  0
    2.1858    0.0761   -3.7134 C   0  0  0  0  0  0  0  0  0  0  0  0
    2.8769   -1.2330   -3.8803 N   0  0  0  0  0  0  0  0  0  0  0  0
    3.2905   -1.4764   -5.2699 C   0  0  0  0  0  0  0  0  0  0  0  0
    2.1226   -1.8903   -6.1455 C   0  0  0  0  0  0  0  0  0  0  0  0
    1.8456   -2.9998   -6.5218 O   0  0  0  0  0  0  0  0  0  0  0  0
    1.3609   -0.8208   -6.4674 O   0  0  0  0  0  0  0  0  0  0  0  0
   -0.0135    0.0104   -2.4201 C   0  0  2  0  0  0  0  0  0  0  0  0
   -0.6586   -0.0111   -1.1750 C   0  0  0  0  0  0  0  0  0  0  0  0
   -0.8642   -0.0572   -3.6524 C   0  0  0  0  0  0  0  0  0  0  0  0
   -1.6637   -1.2546   -3.6379 O   0  0  0  0  0  0  0  0  0  0  0  0
   -1.1343   -2.6999   -4.0419 P   0  0  0  0  0  0  0  0  0  0  0  0
   -2.1843   -3.6649   -3.7845 O   0  0  0  0  0  0  0  0  0  0  0  0
   -0.6411   -2.5007   -5.5428 O   0  0  0  0  0  0  0  0  0  0  0  0
    0.2824   -2.9470   -3.3267 O   0  0  0  0  0  0  0  0  0  0  0  0
    1.3742    0.1223    2.1538 H   0  0  0  0  0  0  0  0  0  0  0  0
    2.8038    0.8121    1.3457 H   0  0  0  0  0  0  0  0  0  0  0  0
    2.6115   -0.9428    1.4476 H   0  0  0  0  0  0  0  0  0  0  0  0
    3.8117   -0.3975   -1.9710 H   0  0  0  0  0  0  0  0  0  0  0  0
    2.9710    0.8686   -3.6568 H   0  0  0  0  0  0  0  0  0  0  0  0
    1.5507    0.3513   -4.5888 H   0  0  0  0  0  0  0  0  0  0  0  0
    2.2626   -1.9909   -3.5546 H   0  0  0  0  0  0  0  0  0  0  0  0
    4.0461   -2.3028   -5.2565 H   0  0  0  0  0  0  0  0  0  0  0  0
    3.8004   -0.5794   -5.6881 H   0  0  0  0  0  0  0  0  0  0  0  0
    0.4870   -1.0597   -6.8798 H   0  0  0  0  0  0  0  0  0  0  0  0
   -1.7533   -0.0500   -1.1018 H   0  0  0  0  0  0  0  0  0  0  0  0
   -0.2992    0.1018   -4.5926 H   0  0  0  0  0  0  0  0  0  0  0  0
   -1.6888    0.6982   -3.6233 H   0  0  0  0  0  0  0  0  0  0  0  0
   -0.0491   -3.3026   -5.8163 H   0  0  0  0  0  0  0  0  0  0  0  0
    0.1424   -3.0437   -2.3230 H   0  0  0  0  0  0  0  0  0  0  0  0
  2  1  2  0  0  0  0
  2  3  1  0  0  0  0
  3 22  1  0  0  0  0
  3 23  1  0  0  0  0
  3 21  1  0  0  0  0
  4  5  1  0  0  0  0
  4  2  1  0  0  0  0
  6 13  1  0  0  0  0
  6  4  2  0  0  0  0
  7 25  1  0  0  0  0
  7  6  1  0  0  0  0
  8  7  1  0  0  0  0
  8 27  1  0  0  0  0
  9 28  1  0  0  0  0
  9  8  1  0  0  0  0
 10  9  1  0  0  0  0
 11 10  2  0  0  0  0
 12 10  1  0  0  0  0
 13 15  1  6  0  0  0
 13 14  1  0  0  0  0
 14 31  1  0  0  0  0
 14  1  2  0  0  0  0
 15 16  1  0  0  0  0
 15 33  1  0  0  0  0
 17 18  2  0  0  0  0
 17 16  1  0  0  0  0
 17 20  1  0  0  0  0
 19 17  1  0  0  0  0
 20 35  1  0  0  0  0
 24  5  1  0  0  0  0
 26  7  1  0  0  0  0
 29  9  1  0  0  0  0
 30 12  1  0  0  0  0
 32 15  1  0  0  0  0
 34 19  1  0  0  0  0
M  RAD  1  13   2
M  END
$$$$
