rmsd86.gzmat
 OpenBabel08211713413D

 35 35  0  0  1  0  0  0  0  0999 V2000
    0.0000    0.0000    0.0000 N   0  0  0  0  0  0  0  0  0  0  0  0
    1.3393    0.0000    0.0000 C   0  0  0  0  0  0  0  0  0  0  0  0
    2.0533    0.0000    1.3047 C   0  0  0  0  0  0  0  0  0  0  0  0
    2.0680    0.0060   -1.2205 C   0  0  0  0  0  0  0  0  0  0  0  0
    3.4086    0.0140   -1.0793 O   0  0  0  0  0  0  0  0  0  0  0  0
    1.3963    0.0301   -2.4469 C   0  0  0  0  0  0  0  0  0  0  0  0
    2.1506    0.1467   -3.7391 C   0  0  0  0  0  0  0  0  0  0  0  0
    3.2926   -0.8100   -3.7450 N   0  0  0  0  0  0  0  0  0  0  0  0
    4.1058   -0.6861   -4.9598 C   0  0  0  0  0  0  0  0  0  0  0  0
    3.4100   -1.2394   -6.1830 C   0  0  0  0  0  0  0  0  0  0  0  0
    2.4153   -1.9127   -6.2238 O   0  0  0  0  0  0  0  0  0  0  0  0
    4.0766   -0.8824   -7.3053 O   0  0  0  0  0  0  0  0  0  0  0  0
   -0.0052    0.0217   -2.4171 C   0  0  1  0  0  0  0  0  0  0  0  0
   -0.6557    0.0064   -1.1775 C   0  0  0  0  0  0  0  0  0  0  0  0
   -0.8322    0.0722   -3.6663 C   0  0  0  0  0  0  0  0  0  0  0  0
   -0.5422    1.2300   -4.4695 O   0  0  0  0  0  0  0  0  0  0  0  0
   -0.9432    2.7225   -4.0689 P   0  0  0  0  0  0  0  0  0  0  0  0
   -0.7671    3.5987   -5.2123 O   0  0  0  0  0  0  0  0  0  0  0  0
   -2.3993    2.5217   -3.4294 O   0  0  0  0  0  0  0  0  0  0  0  0
   -0.0558    3.1606   -2.8259 O   0  0  0  0  0  0  0  0  0  0  0  0
    1.3599    0.0931    2.1556 H   0  0  0  0  0  0  0  0  0  0  0  0
    2.7763    0.8287    1.3639 H   0  0  0  0  0  0  0  0  0  0  0  0
    2.6254   -0.9317    1.4396 H   0  0  0  0  0  0  0  0  0  0  0  0
    3.8707   -0.1402   -1.9611 H   0  0  0  0  0  0  0  0  0  0  0  0
    2.5513    1.1881   -3.8335 H   0  0  0  0  0  0  0  0  0  0  0  0
    1.4843   -0.0018   -4.6238 H   0  0  0  0  0  0  0  0  0  0  0  0
    2.9524   -1.7704   -3.6278 H   0  0  0  0  0  0  0  0  0  0  0  0
    5.0669   -1.2380   -4.7998 H   0  0  0  0  0  0  0  0  0  0  0  0
    4.3974    0.3802   -5.1248 H   0  0  0  0  0  0  0  0  0  0  0  0
    3.6674   -1.2233   -8.1407 H   0  0  0  0  0  0  0  0  0  0  0  0
   -1.7495    0.0034   -1.1020 H   0  0  0  0  0  0  0  0  0  0  0  0
   -1.9174   -0.0534   -3.4673 H   0  0  0  0  0  0  0  0  0  0  0  0
   -0.5343   -0.7228   -4.3957 H   0  0  0  0  0  0  0  0  0  0  0  0
   -2.9438    3.3722   -3.5614 H   0  0  0  0  0  0  0  0  0  0  0  0
   -0.2470    2.5493   -2.0257 H   0  0  0  0  0  0  0  0  0  0  0  0
  2  1  2  0  0  0  0
  2  3  1  0  0  0  0
  3 22  1  0  0  0  0
  3 23  1  0  0  0  0
  3 21  1  0  0  0  0
  4  5  1  0  0  0  0
  4  2  1  0  0  0  0
  6 13  1  0  0  0  0
  6  4  2  0  0  0  0
  7  6  1  0  0  0  0
  8  7  1  0  0  0  0
  8 27  1  0  0  0  0
  9 28  1  0  0  0  0
  9  8  1  0  0  0  0
 10  9  1  0  0  0  0
 11 10  2  0  0  0  0
 12 10  1  0  0  0  0
 13 15  1  1  0  0  0
 13 14  1  0  0  0  0
 14 31  1  0  0  0  0
 14  1  2  0  0  0  0
 15 32  1  0  0  0  0
 16 17  1  0  0  0  0
 16 15  1  0  0  0  0
 17 19  1  0  0  0  0
 17 20  1  0  0  0  0
 18 17  2  0  0  0  0
 20 35  1  0  0  0  0
 24  5  1  0  0  0  0
 25  7  1  0  0  0  0
 26  7  1  0  0  0  0
 29  9  1  0  0  0  0
 30 12  1  0  0  0  0
 33 15  1  0  0  0  0
 34 19  1  0  0  0  0
M  RAD  1  13   2
M  END
$$$$
