
     RDKit          3D

 35 35  0  0  0  0  0  0  0  0999 V2000
   -0.1823   -0.0653   -0.0167 N   0  0  0  0  0  0  0  0  0  0  0  0
    1.1483   -0.0353   -0.0011 C   0  0  0  0  0  0  0  0  0  0  0  0
    1.8632   -0.0633    1.3191 C   0  0  0  0  0  0  0  0  0  0  0  0
    1.9062    0.0059   -1.1978 C   0  0  0  0  0  0  0  0  0  0  0  0
    3.2491    0.0155   -1.0923 O   0  0  0  0  0  0  0  0  0  0  0  0
    1.2425    0.0296   -2.4373 C   0  0  0  0  0  0  0  0  0  0  0  0
    2.0322   -0.0304   -3.7256 C   0  0  0  0  0  0  0  0  0  0  0  0
    3.2876    0.7377   -3.6351 N   0  0  0  0  0  0  0  0  0  0  0  0
    3.0998    2.1757   -3.6314 C   0  0  0  0  0  0  0  0  0  0  0  0
    2.7136    2.7382   -4.9908 C   0  0  0  0  0  0  0  0  0  0  0  0
    2.7424    2.1126   -6.0212 O   0  0  0  0  0  0  0  0  0  0  0  0
    2.3629    4.0316   -4.9157 O   0  0  0  0  0  0  0  0  0  0  0  0
   -0.1656    0.0111   -2.4225 C   0  0  0  0  0  0  0  0  0  0  0  0
   -0.8180   -0.0485   -1.1894 C   0  0  0  0  0  0  0  0  0  0  0  0
   -0.9760    0.0158   -3.6877 C   0  0  0  0  0  0  0  0  0  0  0  0
   -0.6999   -1.1017   -4.5600 O   0  0  0  0  0  0  0  0  0  0  0  0
   -0.9160   -2.6379   -4.1651 P   0  0  0  0  0  0  0  0  0  0  0  0
   -1.1475   -3.5561   -5.2979 O   0  0  0  0  0  0  0  0  0  0  0  0
    0.3999   -2.9254   -3.2694 O   0  0  0  0  0  0  0  0  0  0  0  0
   -2.1156   -2.6133   -3.0675 O   0  0  0  0  0  0  0  0  0  0  0  0
    1.1263   -0.0754    2.1320 H   0  0  0  0  0  0  0  0  0  0  0  0
    2.5239    0.8122    1.4283 H   0  0  0  0  0  0  0  0  0  0  0  0
    2.5126   -0.9509    1.3978 H   0  0  0  0  0  0  0  0  0  0  0  0
    3.6047    0.2222   -1.9985 H   0  0  0  0  0  0  0  0  0  0  0  0
    1.4211    0.2833   -4.5865 H   0  0  0  0  0  0  0  0  0  0  0  0
    2.2982   -1.0837   -3.9140 H   0  0  0  0  0  0  0  0  0  0  0  0
    3.8923    0.4793   -4.4140 H   0  0  0  0  0  0  0  0  0  0  0  0
    4.0252    2.6867   -3.3139 H   0  0  0  0  0  0  0  0  0  0  0  0
    2.3318    2.4552   -2.8934 H   0  0  0  0  0  0  0  0  0  0  0  0
    2.1638    4.3312   -5.8202 H   0  0  0  0  0  0  0  0  0  0  0  0
   -1.9126   -0.0927   -1.1582 H   0  0  0  0  0  0  0  0  0  0  0  0
   -0.7558    0.8960   -4.3091 H   0  0  0  0  0  0  0  0  0  0  0  0
   -2.0485    0.0232   -3.4448 H   0  0  0  0  0  0  0  0  0  0  0  0
    0.5500   -3.8764   -3.1615 H   0  0  0  0  0  0  0  0  0  0  0  0
   -2.8958   -3.0589   -3.4300 H   0  0  0  0  0  0  0  0  0  0  0  0
  1  2  2  0
  1 14  1  0
  2  3  1  0
  2  4  1  0
  3 21  1  0
  3 22  1  0
  3 23  1  0
  4  5  1  0
  4  6  2  0
  5 24  1  0
  6  7  1  0
  6 13  1  0
  7  8  1  0
  7 25  1  0
  7 26  1  0
  8  9  1  0
  8 27  1  0
  9 10  1  0
  9 28  1  0
  9 29  1  0
 10 11  2  0
 10 12  1  0
 12 30  1  0
 13 14  2  0
 13 15  1  0
 14 31  1  0
 15 16  1  0
 15 32  1  0
 15 33  1  0
 17 16  1  0
 17 18  2  0
 17 19  1  0
 17 20  1  0
 19 34  1  0
 20 35  1  0
M  END

