35
rmsd86.gzmat
N          0.00000        0.00000        0.00000
C          1.33930        0.00000        0.00000
C          2.05330        0.00000        1.30470
C          2.06800        0.00600       -1.22050
O          3.40860        0.01400       -1.07930
C          1.39630        0.03010       -2.44690
C          2.15060        0.14670       -3.73910
N          3.29260       -0.81000       -3.74500
C          4.10580       -0.68610       -4.95980
C          3.41000       -1.23940       -6.18300
O          2.41530       -1.91270       -6.22380
O          4.07660       -0.88240       -7.30530
C         -0.00520        0.02170       -2.41710
C         -0.65570        0.00640       -1.17750
C         -0.83220        0.07220       -3.66630
O         -0.54220        1.23000       -4.46950
P         -0.94320        2.72250       -4.06890
O         -0.76710        3.59870       -5.21230
O         -2.39930        2.52170       -3.42940
O         -0.05580        3.16060       -2.82590
H          1.35990        0.09310        2.15560
H          2.77630        0.82870        1.36390
H          2.62540       -0.93170        1.43960
H          3.87070       -0.14020       -1.96110
H          2.55130        1.18810       -3.83350
H          1.48430       -0.00180       -4.62380
H          2.95240       -1.77040       -3.62780
H          5.06690       -1.23800       -4.79980
H          4.39740        0.38020       -5.12480
H          3.66740       -1.22330       -8.14070
H         -1.74950        0.00340       -1.10200
H         -1.91740       -0.05340       -3.46730
H         -0.53430       -0.72280       -4.39570
H         -2.94380        3.37220       -3.56140
H         -0.24700        2.54930       -2.02570
