35

N         -0.00290       -0.07150        0.00070
C          1.32650       -0.04350       -0.00470
C          2.06460       -0.00240        1.30060
C          2.06390       -0.03570       -1.21940
O          3.40120        0.03810       -1.15240
C          1.37990       -0.08580       -2.44590
C          2.18230       -0.13690       -3.73050
N          3.31340        0.79990       -3.68420
C          2.92650        2.20680       -3.78040
C          4.12540        3.12760       -3.82680
O          4.16910        4.23650       -3.36720
O          5.15680        2.56890       -4.50160
C         -0.02880       -0.09850       -2.41050
C         -0.66170       -0.08380       -1.16400
C         -0.85270       -0.03410       -3.67020
O         -0.52050        1.11760       -4.46750
P         -0.79120        2.64530       -4.03550
O         -0.31490        3.62730       -5.02280
O         -2.38750        2.58620       -3.74150
O         -0.11830        2.86350       -2.58250
H          1.34460        0.00960        2.12820
H          2.71080        0.88870        1.35460
H          2.73150       -0.87400        1.40400
H          3.71190        0.32660       -2.05960
H          1.53740        0.04610       -4.60330
H          2.60900       -1.15010       -3.83390
H          3.98910        0.58080       -4.41430
H          2.31140        2.49950       -2.91990
H          2.31300        2.42740       -4.67890
H          5.87760        3.22210       -4.50970
H         -1.75730       -0.08330       -1.10970
H         -1.92680       -0.01950       -3.42920
H         -0.66420       -0.89270       -4.33020
H         -2.79110        3.46550       -3.78930
H         -0.34270        2.17800       -1.92840
