
     RDKit          3D

 35 35  0  0  0  0  0  0  0  0999 V2000
   -0.1025   -0.1406    0.0193 N   0  0  0  0  0  0  0  0  0  0  0  0
    1.2269   -0.0890    0.0073 C   0  0  0  0  0  0  0  0  0  0  0  0
    1.9721   -0.1248    1.3094 C   0  0  0  0  0  0  0  0  0  0  0  0
    1.9594   -0.0188   -1.2073 C   0  0  0  0  0  0  0  0  0  0  0  0
    3.2998    0.0088   -1.1306 O   0  0  0  0  0  0  0  0  0  0  0  0
    1.2664    0.0107   -2.4324 C   0  0  0  0  0  0  0  0  0  0  0  0
    2.0262   -0.0218   -3.7416 C   0  0  0  0  0  0  0  0  0  0  0  0
    3.2857    0.7385   -3.6601 N   0  0  0  0  0  0  0  0  0  0  0  0
    3.1060    2.1784   -3.6430 C   0  0  0  0  0  0  0  0  0  0  0  0
    2.7022    2.7515   -4.9932 C   0  0  0  0  0  0  0  0  0  0  0  0
    2.7073    2.1290   -6.0254 O   0  0  0  0  0  0  0  0  0  0  0  0
    2.3656    4.0471   -4.9047 O   0  0  0  0  0  0  0  0  0  0  0  0
   -0.1448   -0.0254   -2.3863 C   0  0  0  0  0  0  0  0  0  0  0  0
   -0.7680   -0.1129   -1.1386 C   0  0  0  0  0  0  0  0  0  0  0  0
   -0.9801   -0.0204   -3.6399 C   0  0  0  0  0  0  0  0  0  0  0  0
   -0.6959   -1.1255   -4.5144 O   0  0  0  0  0  0  0  0  0  0  0  0
   -0.8542   -2.6726   -4.0845 P   0  0  0  0  0  0  0  0  0  0  0  0
   -0.9216   -3.6188   -5.2081 O   0  0  0  0  0  0  0  0  0  0  0  0
    0.3727   -2.9762   -3.0782 O   0  0  0  0  0  0  0  0  0  0  0  0
   -2.1632   -2.6030   -3.1176 O   0  0  0  0  0  0  0  0  0  0  0  0
    1.2554   -0.1658    2.1389 H   0  0  0  0  0  0  0  0  0  0  0  0
    2.6164    0.7630    1.4168 H   0  0  0  0  0  0  0  0  0  0  0  0
    2.6422   -0.9988    1.3565 H   0  0  0  0  0  0  0  0  0  0  0  0
    3.6347    0.2211   -2.0466 H   0  0  0  0  0  0  0  0  0  0  0  0
    1.3955    0.3144   -4.5792 H   0  0  0  0  0  0  0  0  0  0  0  0
    2.2826   -1.0708   -3.9646 H   0  0  0  0  0  0  0  0  0  0  0  0
    3.8792    0.4822   -4.4483 H   0  0  0  0  0  0  0  0  0  0  0  0
    4.0397    2.6804   -3.3361 H   0  0  0  0  0  0  0  0  0  0  0  0
    2.3516    2.4580   -2.8910 H   0  0  0  0  0  0  0  0  0  0  0  0
    2.1535    4.3553   -5.8034 H   0  0  0  0  0  0  0  0  0  0  0  0
   -1.8605   -0.1729   -1.0827 H   0  0  0  0  0  0  0  0  0  0  0  0
   -0.7797    0.8726   -4.2501 H   0  0  0  0  0  0  0  0  0  0  0  0
   -2.0483   -0.0289   -3.3782 H   0  0  0  0  0  0  0  0  0  0  0  0
    0.3950   -2.3784   -2.3128 H   0  0  0  0  0  0  0  0  0  0  0  0
   -2.7122   -3.3922   -3.2347 H   0  0  0  0  0  0  0  0  0  0  0  0
  1  2  2  0
  1 14  1  0
  2  3  1  0
  2  4  1  0
  3 21  1  0
  3 22  1  0
  3 23  1  0
  4  5  1  0
  4  6  2  0
  5 24  1  0
  6  7  1  0
  6 13  1  0
  7  8  1  0
  7 25  1  0
  7 26  1  0
  8  9  1  0
  8 27  1  0
  9 10  1  0
  9 28  1  0
  9 29  1  0
 10 11  2  0
 10 12  1  0
 12 30  1  0
 13 14  2  0
 13 15  1  0
 14 31  1  0
 15 16  1  0
 15 32  1  0
 15 33  1  0
 17 16  1  0
 17 18  2  0
 17 19  1  0
 17 20  1  0
 19 34  1  0
 20 35  1  0
M  END

