rmsd5.gzmat
 OpenBabel08211713413D

 35 35  0  0  1  0  0  0  0  0999 V2000
    0.0000    0.0000    0.0000 N   0  0  0  0  0  0  0  0  0  0  0  0
    1.3400    0.0000    0.0000 C   0  0  0  0  0  0  0  0  0  0  0  0
    2.0546    0.0000    1.3052 C   0  0  0  0  0  0  0  0  0  0  0  0
    2.0701   -0.0074   -1.2175 C   0  0  0  0  0  0  0  0  0  0  0  0
    3.4113   -0.0074   -1.0680 O   0  0  0  0  0  0  0  0  0  0  0  0
    1.4045   -0.0221   -2.4481 C   0  0  0  0  0  0  0  0  0  0  0  0
    2.1571   -0.1090   -3.7449 C   0  0  0  0  0  0  0  0  0  0  0  0
    3.3628    0.7642   -3.7515 N   0  0  0  0  0  0  0  0  0  0  0  0
    3.0365    2.1924   -3.6492 C   0  0  0  0  0  0  0  0  0  0  0  0
    2.4408    2.7537   -4.9175 C   0  0  0  0  0  0  0  0  0  0  0  0
    2.3318    2.2159   -5.9871 O   0  0  0  0  0  0  0  0  0  0  0  0
    2.0160    4.0239   -4.7171 O   0  0  0  0  0  0  0  0  0  0  0  0
    0.0028   -0.0277   -2.4179 C   0  0  2  0  0  0  0  0  0  0  0  0
   -0.6508   -0.0167   -1.1793 C   0  0  0  0  0  0  0  0  0  0  0  0
   -0.8276   -0.0910   -3.6638 C   0  0  0  0  0  0  0  0  0  0  0  0
   -0.4843   -1.2282   -4.4795 O   0  0  0  0  0  0  0  0  0  0  0  0
   -0.8994   -2.7233   -4.1162 P   0  0  0  0  0  0  0  0  0  0  0  0
   -0.3119   -3.6199   -5.0957 O   0  0  0  0  0  0  0  0  0  0  0  0
   -0.4764   -2.8540   -2.5864 O   0  0  0  0  0  0  0  0  0  0  0  0
   -2.4955   -2.7406   -3.9665 O   0  0  0  0  0  0  0  0  0  0  0  0
    1.3585    0.0598    2.1560 H   0  0  0  0  0  0  0  0  0  0  0  0
    2.7533    0.8478    1.3759 H   0  0  0  0  0  0  0  0  0  0  0  0
    2.6537   -0.9170    1.4245 H   0  0  0  0  0  0  0  0  0  0  0  0
    3.8751    0.1377   -1.9497 H   0  0  0  0  0  0  0  0  0  0  0  0
    1.4975    0.0980   -4.6222 H   0  0  0  0  0  0  0  0  0  0  0  0
    2.5113   -1.1644   -3.8856 H   0  0  0  0  0  0  0  0  0  0  0  0
    3.9229    0.5794   -4.5902 H   0  0  0  0  0  0  0  0  0  0  0  0
    3.9719    2.7532   -3.3962 H   0  0  0  0  0  0  0  0  0  0  0  0
    2.3454    2.3695   -2.7866 H   0  0  0  0  0  0  0  0  0  0  0  0
    1.6389    4.4532   -5.5254 H   0  0  0  0  0  0  0  0  0  0  0  0
   -1.7438   -0.0331   -1.1079 H   0  0  0  0  0  0  0  0  0  0  0  0
   -0.5674    0.7229   -4.3838 H   0  0  0  0  0  0  0  0  0  0  0  0
   -1.9150   -0.0139   -3.4532 H   0  0  0  0  0  0  0  0  0  0  0  0
   -0.9999   -3.6364   -2.1710 H   0  0  0  0  0  0  0  0  0  0  0  0
   -2.9209   -2.9116   -4.8750 H   0  0  0  0  0  0  0  0  0  0  0  0
  1  2  2  0  0  0  0
  2  3  1  0  0  0  0
  3 22  1  0  0  0  0
  3 23  1  0  0  0  0
  3 21  1  0  0  0  0
  4  5  1  0  0  0  0
  4  2  1  0  0  0  0
  6 13  1  0  0  0  0
  6  4  2  0  0  0  0
  7  6  1  0  0  0  0
  8  7  1  0  0  0  0
  8  9  1  0  0  0  0
  9 28  1  0  0  0  0
  9 29  1  0  0  0  0
 10 12  1  0  0  0  0
 10  9  1  0  0  0  0
 11 10  2  0  0  0  0
 13 15  1  1  0  0  0
 13 14  1  0  0  0  0
 14 31  1  0  0  0  0
 14  1  2  0  0  0  0
 15 33  1  0  0  0  0
 16 17  1  0  0  0  0
 16 15  1  0  0  0  0
 17 20  1  0  0  0  0
 17 19  1  0  0  0  0
 18 17  2  0  0  0  0
 19 34  1  0  0  0  0
 24  5  1  0  0  0  0
 25  7  1  0  0  0  0
 26  7  1  0  0  0  0
 27  8  1  0  0  0  0
 30 12  1  0  0  0  0
 32 15  1  0  0  0  0
 35 20  1  0  0  0  0
M  RAD  1  13   2
M  END
$$$$
