35
rmsd4.gzmat
N          0.00000        0.00000        0.00000
C          1.33810        0.00000        0.00000
C          2.05810        0.00000        1.30110
C          2.07020        0.00380       -1.22080
O          3.40720       -0.00110       -1.07440
C          1.40120       -0.00470       -2.44890
C          2.16270       -0.06490       -3.74570
N          3.37200        0.79660       -3.70490
C          3.03220        2.23600       -3.74350
C          4.31160        3.03250       -3.67450
O          4.58500        3.95830       -2.96380
O          5.19830        2.57520       -4.60100
C         -0.00120       -0.00990       -2.41830
C         -0.65280        0.00140       -1.18020
C         -0.83920       -0.01300       -3.66220
O         -0.61890        1.13920       -4.49180
P         -1.05900        2.62490       -4.10590
O         -0.92220        3.48170       -5.26930
O         -2.49200        2.41650       -3.42260
O         -0.15340        3.08640       -2.88580
H          1.36850        0.03700        2.15850
H          2.74010        0.86320        1.37440
H          2.67990       -0.90330        1.40790
H          3.86880        0.27140       -1.93580
H          1.50900        0.18410       -4.61530
H          2.50820       -1.11790       -3.90400
H          4.01010        0.56370       -4.47220
H          2.38370        2.48890       -2.86510
H          2.45920        2.53910       -4.65440
H          6.06520        3.04780       -4.59580
H         -1.74680        0.01040       -1.10540
H         -1.91660       -0.17820       -3.44610
H         -0.52120       -0.80930       -4.37730
H         -3.15430        3.07890       -3.82440
H         -0.36600        2.51570       -2.05810
