35
rmsd5.gzmat
N          0.00000        0.00000        0.00000
C          1.34000        0.00000        0.00000
C          2.05460        0.00000        1.30520
C          2.07010       -0.00740       -1.21750
O          3.41130       -0.00740       -1.06800
C          1.40450       -0.02210       -2.44810
C          2.15710       -0.10900       -3.74490
N          3.36280        0.76420       -3.75150
C          3.03650        2.19240       -3.64920
C          2.44080        2.75370       -4.91750
O          2.33180        2.21590       -5.98710
O          2.01600        4.02390       -4.71710
C          0.00280       -0.02770       -2.41790
C         -0.65080       -0.01670       -1.17930
C         -0.82760       -0.09100       -3.66380
O         -0.48430       -1.22820       -4.47950
P         -0.89940       -2.72330       -4.11620
O         -0.31190       -3.61990       -5.09570
O         -0.47640       -2.85400       -2.58640
O         -2.49550       -2.74060       -3.96650
H          1.35850        0.05980        2.15600
H          2.75330        0.84780        1.37590
H          2.65370       -0.91700        1.42450
H          3.87510        0.13770       -1.94970
H          1.49750        0.09800       -4.62220
H          2.51130       -1.16440       -3.88560
H          3.92290        0.57940       -4.59020
H          3.97190        2.75320       -3.39620
H          2.34540        2.36950       -2.78660
H          1.63890        4.45320       -5.52540
H         -1.74380       -0.03310       -1.10790
H         -0.56740        0.72290       -4.38380
H         -1.91500       -0.01390       -3.45320
H         -0.99990       -3.63640       -2.17100
H         -2.92090       -2.91160       -4.87500
