rmsd142.gzmat
 OpenBabel08211713413D

 35 35  0  0  1  0  0  0  0  0999 V2000
    0.0000    0.0000    0.0000 N   0  0  0  0  0  0  0  0  0  0  0  0
    1.3393    0.0000    0.0000 C   0  0  0  0  0  0  0  0  0  0  0  0
    2.0567    0.0000    1.3033 C   0  0  0  0  0  0  0  0  0  0  0  0
    2.0665   -0.0011   -1.2199 C   0  0  0  0  0  0  0  0  0  0  0  0
    3.4082    0.0285   -1.0795 O   0  0  0  0  0  0  0  0  0  0  0  0
    1.3971   -0.0026   -2.4477 C   0  0  0  0  0  0  0  0  0  0  0  0
    2.1601    0.0463   -3.7405 C   0  0  0  0  0  0  0  0  0  0  0  0
    3.2798   -0.9358   -3.6923 N   0  0  0  0  0  0  0  0  0  0  0  0
    4.1156   -0.8902   -4.8958 C   0  0  0  0  0  0  0  0  0  0  0  0
    3.5057   -1.4563   -6.1587 C   0  0  0  0  0  0  0  0  0  0  0  0
    3.9881   -1.4671   -7.2581 O   0  0  0  0  0  0  0  0  0  0  0  0
    2.2904   -2.0099   -5.9194 O   0  0  0  0  0  0  0  0  0  0  0  0
   -0.0041    0.0021   -2.4178 C   0  0  1  0  0  0  0  0  0  0  0  0
   -0.6542    0.0053   -1.1783 C   0  0  0  0  0  0  0  0  0  0  0  0
   -0.8283    0.0314   -3.6710 C   0  0  0  0  0  0  0  0  0  0  0  0
   -0.4446    1.1272   -4.5115 O   0  0  0  0  0  0  0  0  0  0  0  0
   -0.9123    2.6418   -4.3380 P   0  0  0  0  0  0  0  0  0  0  0  0
   -0.2308    3.4159   -5.3571 O   0  0  0  0  0  0  0  0  0  0  0  0
   -2.5008    2.6521   -4.4316 O   0  0  0  0  0  0  0  0  0  0  0  0
   -0.7281    3.0302   -2.7960 O   0  0  0  0  0  0  0  0  0  0  0  0
    1.3675    0.1179    2.1542 H   0  0  0  0  0  0  0  0  0  0  0  0
    2.7966    0.8142    1.3500 H   0  0  0  0  0  0  0  0  0  0  0  0
    2.6084   -0.9425    1.4476 H   0  0  0  0  0  0  0  0  0  0  0  0
    3.8695   -0.1932   -1.9464 H   0  0  0  0  0  0  0  0  0  0  0  0
    2.5851    1.0703   -3.8808 H   0  0  0  0  0  0  0  0  0  0  0  0
    1.4964   -0.1308   -4.6220 H   0  0  0  0  0  0  0  0  0  0  0  0
    2.9151   -1.8801   -3.5359 H   0  0  0  0  0  0  0  0  0  0  0  0
    5.0574   -1.4610   -4.6798 H   0  0  0  0  0  0  0  0  0  0  0  0
    4.4420    0.1618   -5.0947 H   0  0  0  0  0  0  0  0  0  0  0  0
    1.8837   -2.4350   -6.7160 H   0  0  0  0  0  0  0  0  0  0  0  0
   -1.7467    0.0187   -1.1018 H   0  0  0  0  0  0  0  0  0  0  0  0
   -1.9166   -0.0238   -3.4684 H   0  0  0  0  0  0  0  0  0  0  0  0
   -0.5753   -0.8220   -4.3483 H   0  0  0  0  0  0  0  0  0  0  0  0
   -2.8902    2.7005   -3.4795 H   0  0  0  0  0  0  0  0  0  0  0  0
    0.2578    3.1335   -2.5706 H   0  0  0  0  0  0  0  0  0  0  0  0
  2  1  2  0  0  0  0
  2  3  1  0  0  0  0
  3 22  1  0  0  0  0
  3 23  1  0  0  0  0
  3 21  1  0  0  0  0
  4  5  1  0  0  0  0
  4  2  1  0  0  0  0
  6 13  1  0  0  0  0
  6  4  2  0  0  0  0
  7  8  1  0  0  0  0
  7  6  1  0  0  0  0
  8 27  1  0  0  0  0
  9 28  1  0  0  0  0
  9  8  1  0  0  0  0
 10 12  1  0  0  0  0
 10  9  1  0  0  0  0
 11 10  2  0  0  0  0
 13 15  1  6  0  0  0
 13 14  1  0  0  0  0
 14 31  1  0  0  0  0
 14  1  2  0  0  0  0
 15 32  1  0  0  0  0
 16 17  1  0  0  0  0
 16 15  1  0  0  0  0
 17 20  1  0  0  0  0
 18 17  2  0  0  0  0
 19 17  1  0  0  0  0
 19 34  1  0  0  0  0
 20 35  1  0  0  0  0
 24  5  1  0  0  0  0
 25  7  1  0  0  0  0
 26  7  1  0  0  0  0
 29  9  1  0  0  0  0
 30 12  1  0  0  0  0
 33 15  1  0  0  0  0
M  RAD  1  13   2
M  END
$$$$
