35

N         -0.06780        0.06220       -0.01040
C          1.26220        0.02460       -0.03190
C          2.01520        0.04110        1.26620
C          1.98630       -0.01170       -1.25240
O          3.32800       -0.02010       -1.18960
C          1.28450       -0.01950       -2.47200
C          2.03680        0.06720       -3.77960
N          3.27830       -0.72430       -3.74340
C          4.12330       -0.54180       -4.90670
C          3.55320       -1.18080       -6.16620
O          2.61130       -1.93410       -6.17610
O          4.24300       -0.83270       -7.26080
C         -0.12620        0.00240       -2.41790
C         -0.74140        0.05340       -1.16410
C         -0.96770        0.01490       -3.66730
O         -0.69780        1.14110       -4.52180
P         -0.85910        2.67810       -4.06200
O         -0.92260        3.64540       -5.16810
O         -2.17020        2.58890       -3.10050
O          0.36520        2.96590       -3.04720
H          1.30320        0.05490        2.10070
H          2.67460        0.92230        1.32890
H          2.67080       -0.84090        1.34990
H          3.65570       -0.24980       -2.10220
H          2.31740        1.12330       -3.94190
H          1.39430       -0.21260       -4.62730
H          3.02750       -1.71300       -3.67440
H          5.11820       -0.98720       -4.73370
H          4.29460        0.53010       -5.09060
H          3.84160       -1.29230       -8.01920
H         -1.83410        0.09840       -1.09910
H         -2.03480        0.00990       -3.40110
H         -0.76080       -0.86360       -4.29580
H         -2.71600        3.38310       -3.19630
H          0.38910        2.35070       -2.29560
