35
rmsd26.gzmat
N          0.00000        0.00000        0.00000
C          1.34130        0.00000        0.00000
C          2.06100        0.00000        1.30100
C          2.05880       -0.01220       -1.22230
O          3.40790       -0.06550       -1.11710
C          1.38450        0.03210       -2.44570
C          2.18580        0.07610       -3.71340
N          2.87690       -1.23300       -3.88030
C          3.29050       -1.47640       -5.26990
C          2.12260       -1.89030       -6.14550
O          1.84560       -2.99980       -6.52180
O          1.36090       -0.82080       -6.46740
C         -0.01350        0.01040       -2.42010
C         -0.65860       -0.01110       -1.17500
C         -0.86420       -0.05720       -3.65240
O         -1.66370       -1.25460       -3.63790
P         -1.13430       -2.69990       -4.04190
O         -2.18430       -3.66490       -3.78450
O         -0.64110       -2.50070       -5.54280
O          0.28240       -2.94700       -3.32670
H          1.37420        0.12230        2.15380
H          2.80380        0.81210        1.34570
H          2.61150       -0.94280        1.44760
H          3.81170       -0.39750       -1.97100
H          2.97100        0.86860       -3.65680
H          1.55070        0.35130       -4.58880
H          2.26260       -1.99090       -3.55460
H          4.04610       -2.30280       -5.25650
H          3.80040       -0.57940       -5.68810
H          0.48700       -1.05970       -6.87980
H         -1.75330       -0.05000       -1.10180
H         -0.29920        0.10180       -4.59260
H         -1.68880        0.69820       -3.62330
H         -0.04910       -3.30260       -5.81630
H          0.14240       -3.04370       -2.32300
