35
rmsd185.gzmat
N          0.00000        0.00000        0.00000
C          1.33990        0.00000        0.00000
C          2.05700        0.00000        1.30330
C          2.06830       -0.00570       -1.21940
O          3.40930       -0.00380       -1.07490
C          1.40200       -0.02840       -2.45010
C          2.17250       -0.16060       -3.73290
N          3.32770        0.77630       -3.77550
C          2.90740        2.18410       -3.79880
C          2.39830        2.61000       -5.15530
O          2.58590        2.07040       -6.21320
O          1.66500        3.74270       -5.05420
C          0.00230       -0.00240       -2.42020
C         -0.64980        0.00620       -1.18010
C         -0.86490       -0.04100       -3.64490
O         -1.64460       -1.24280       -3.66410
P         -1.03780       -2.67590       -4.08310
O         -0.30960       -2.76800       -5.33330
O         -0.18920       -3.20680       -2.85250
O         -2.39800       -3.49750       -3.90870
H          1.36640        0.09300        2.15610
H          2.77910        0.82980        1.35870
H          2.63240       -0.93000        1.43710
H          3.86760        0.18850       -1.95050
H          1.51650       -0.04600       -4.62800
H          2.58170       -1.20350       -3.79930
H          3.92510        0.56500       -4.58290
H          3.78420        2.82090       -3.51890
H          2.13850        2.37580       -3.00930
H          1.32500        4.07950       -5.92090
H         -1.74430        0.00720       -1.11490
H         -0.31740        0.15290       -4.58970
H         -1.69220        0.70860       -3.58080
H         -0.71180       -3.02840       -1.98310
H         -3.09050       -3.11900       -4.56600
