rmsd169.gzmat
 OpenBabel08211713423D

 30 31  0  0  1  0  0  0  0  0999 V2000
    0.0000    0.0000    0.0000 C   0  0  0  0  0  0  0  0  0  0  0  0
    1.4642    0.0000    0.0000 N   0  0  0  0  0  0  0  0  0  0  0  0
    2.1109    0.0000    1.2670 C   0  0  0  0  0  0  0  0  0  0  0  0
    1.4549   -0.0381    2.2863 O   0  0  0  0  0  0  0  0  0  0  0  0
    3.5024    0.0331    1.2696 N   0  0  0  0  0  0  0  0  0  0  0  0
    3.9658    0.0281    2.1827 H   0  0  0  0  0  0  0  0  0  0  0  0
    4.3234    0.0970    0.0974 C   0  0  0  0  0  0  0  0  0  0  0  0
    5.5179    0.1225    0.2695 O   0  0  0  0  0  0  0  0  0  0  0  0
    3.5728    0.1225   -1.1291 C   0  0  0  0  0  0  0  0  0  0  0  0
    2.2080    0.0862   -1.1568 C   0  0  0  0  0  0  0  0  0  0  0  0
    1.6580    0.1354   -2.5516 C   0  0  0  0  0  0  0  0  0  0  0  0
    2.9259    0.2009   -3.4460 C   0  0  0  0  0  0  0  0  0  0  0  0
    4.1584    0.1943   -2.4985 C   0  0  0  0  0  0  0  0  0  0  0  0
   -0.5713    1.3776    0.4508 C   0  0  1  0  0  0  0  0  0  0  0  0
   -0.2674    1.5639    1.5232 H   0  0  0  0  0  0  0  0  0  0  0  0
   -0.0165    2.4702   -0.4559 C   0  0  0  0  0  0  0  0  0  0  0  0
   -0.3629    2.7238   -1.5805 O   0  0  0  0  0  0  0  0  0  0  0  0
    0.9497    3.1703    0.1703 O   0  0  0  0  0  0  0  0  0  0  0  0
   -2.0274    1.2893    0.3521 N   0  0  0  0  0  0  0  0  0  0  0  0
   -0.3905   -0.2798   -1.0022 H   0  0  0  0  0  0  0  0  0  0  0  0
   -0.3720   -0.7780    0.7197 H   0  0  0  0  0  0  0  0  0  0  0  0
    1.0084    1.0195   -2.7126 H   0  0  0  0  0  0  0  0  0  0  0  0
    1.0440   -0.7510   -2.7909 H   0  0  0  0  0  0  0  0  0  0  0  0
    2.9172    1.1084   -4.0691 H   0  0  0  0  0  0  0  0  0  0  0  0
    2.9606   -0.6544   -4.1375 H   0  0  0  0  0  0  0  0  0  0  0  0
    4.7797    1.0997   -2.6298 H   0  0  0  0  0  0  0  0  0  0  0  0
    4.8258   -0.6634   -2.7032 H   0  0  0  0  0  0  0  0  0  0  0  0
    1.3532    3.8918   -0.3785 H   0  0  0  0  0  0  0  0  0  0  0  0
   -2.3655    1.3618   -0.5968 H   0  0  0  0  0  0  0  0  0  0  0  0
   -2.5023    1.9553    0.9395 H   0  0  0  0  0  0  0  0  0  0  0  0
  1  2  1  0  0  0  0
  1 14  1  0  0  0  0
  1 21  1  0  0  0  0
  2  3  1  0  0  0  0
  3  5  1  0  0  0  0
  3  4  2  0  0  0  0
  5  6  1  0  0  0  0
  7  8  2  0  0  0  0
  7  5  1  0  0  0  0
  9  7  1  0  0  0  0
 10  9  2  0  0  0  0
 10  2  1  0  0  0  0
 11 10  1  0  0  0  0
 12 11  1  0  0  0  0
 12 13  1  0  0  0  0
 13  9  1  0  0  0  0
 14 15  1  1  0  0  0
 16 18  1  0  0  0  0
 16 14  1  0  0  0  0
 17 16  2  0  0  0  0
 19 14  1  0  0  0  0
 19 30  1  0  0  0  0
 20  1  1  0  0  0  0
 22 11  1  0  0  0  0
 23 11  1  0  0  0  0
 24 12  1  0  0  0  0
 25 12  1  0  0  0  0
 26 13  1  0  0  0  0
 27 13  1  0  0  0  0
 28 18  1  0  0  0  0
 29 19  1  0  0  0  0
M  END
$$$$
