30
rmsd123.gzmat
C          0.00000        0.00000        0.00000
N          1.46410        0.00000        0.00000
C          2.11100        0.00000        1.26690
O          1.45560       -0.04660        2.28600
N          3.50230        0.04080        1.26940
H          3.96580        0.02800        2.18240
C          4.32280        0.11720        0.09740
O          5.51750        0.13850        0.26880
C          3.57160        0.15500       -1.12830
C          2.20740        0.10190       -1.15640
C          1.65680        0.14810       -2.55070
C          2.92200        0.26780       -3.44320
C          4.15570        0.25240       -2.49670
C         -0.57000        1.38550        0.42810
H         -0.27610        1.58360        1.50070
C         -0.00120        2.46520       -0.48530
O         -0.32470        2.69560       -1.62160
O          0.94510        3.18560        0.14920
N         -2.02550        1.30350        0.31630
H         -0.39020       -0.29630       -0.99780
H         -0.37250       -0.76610        0.73210
H          0.97450        1.00820       -2.70630
H          1.07570       -0.75870       -2.79770
H          2.89520        1.19720       -4.03370
H          2.97220       -0.56220       -4.16420
H          4.77180        1.16320       -2.61460
H          4.82720       -0.59880       -2.71470
H          1.36250        3.89320       -0.40800
H         -2.35290        1.35240       -0.63800
H         -2.50150        1.99030        0.87840
