rmsd93.gzmat
 OpenBabel08211713423D

 30 31  0  0  1  0  0  0  0  0999 V2000
    0.0000    0.0000    0.0000 C   0  0  0  0  0  0  0  0  0  0  0  0
    1.4642    0.0000    0.0000 N   0  0  0  0  0  0  0  0  0  0  0  0
    2.1134    0.0000    1.2654 C   0  0  0  0  0  0  0  0  0  0  0  0
    1.4583   -0.0132    2.2858 O   0  0  0  0  0  0  0  0  0  0  0  0
    3.5051    0.0117    1.2652 N   0  0  0  0  0  0  0  0  0  0  0  0
    3.9703    0.0085    2.1773 H   0  0  0  0  0  0  0  0  0  0  0  0
    4.3251    0.0437    0.0902 C   0  0  0  0  0  0  0  0  0  0  0  0
    5.5201    0.0563    0.2594 O   0  0  0  0  0  0  0  0  0  0  0  0
    3.5725    0.0546   -1.1347 C   0  0  0  0  0  0  0  0  0  0  0  0
    2.2073    0.0360   -1.1599 C   0  0  0  0  0  0  0  0  0  0  0  0
    1.6555    0.0520   -2.5540 C   0  0  0  0  0  0  0  0  0  0  0  0
    2.9223    0.0560   -3.4518 C   0  0  0  0  0  0  0  0  0  0  0  0
    4.1561    0.0898   -2.5065 C   0  0  0  0  0  0  0  0  0  0  0  0
   -0.5711    1.3877    0.4148 C   0  0  1  0  0  0  0  0  0  0  0  0
   -0.2569    1.6097    1.4774 H   0  0  0  0  0  0  0  0  0  0  0  0
   -0.0423    2.4596   -0.5324 C   0  0  0  0  0  0  0  0  0  0  0  0
   -0.3014    2.5872   -1.7010 O   0  0  0  0  0  0  0  0  0  0  0  0
    0.7668    3.3195    0.1171 O   0  0  0  0  0  0  0  0  0  0  0  0
   -2.0286    1.2900    0.3392 N   0  0  0  0  0  0  0  0  0  0  0  0
   -0.3897   -0.3035   -0.9959 H   0  0  0  0  0  0  0  0  0  0  0  0
   -0.3731   -0.7594    0.7388 H   0  0  0  0  0  0  0  0  0  0  0  0
    1.0288    0.9482   -2.7426 H   0  0  0  0  0  0  0  0  0  0  0  0
    1.0160   -0.8240   -2.7620 H   0  0  0  0  0  0  0  0  0  0  0  0
    2.9217    0.9274   -4.1249 H   0  0  0  0  0  0  0  0  0  0  0  0
    2.9472   -0.8382   -4.0930 H   0  0  0  0  0  0  0  0  0  0  0  0
    4.7657    0.9989   -2.6656 H   0  0  0  0  0  0  0  0  0  0  0  0
    4.8337   -0.7647   -2.6864 H   0  0  0  0  0  0  0  0  0  0  0  0
    1.1388    4.0415   -0.4531 H   0  0  0  0  0  0  0  0  0  0  0  0
   -2.3777    1.2900   -0.6079 H   0  0  0  0  0  0  0  0  0  0  0  0
   -2.4983    1.9959    0.8817 H   0  0  0  0  0  0  0  0  0  0  0  0
  1  2  1  0  0  0  0
  1 14  1  0  0  0  0
  1 21  1  0  0  0  0
  2  3  1  0  0  0  0
  3  4  2  0  0  0  0
  5  3  1  0  0  0  0
  5  6  1  0  0  0  0
  7  8  2  0  0  0  0
  7  5  1  0  0  0  0
  9  7  1  0  0  0  0
 10  9  2  0  0  0  0
 10  2  1  0  0  0  0
 11 10  1  0  0  0  0
 12 11  1  0  0  0  0
 12 13  1  0  0  0  0
 13  9  1  0  0  0  0
 14 15  1  1  0  0  0
 16 18  1  0  0  0  0
 16 14  1  0  0  0  0
 17 16  2  0  0  0  0
 19 14  1  0  0  0  0
 19 30  1  0  0  0  0
 20  1  1  0  0  0  0
 22 11  1  0  0  0  0
 23 11  1  0  0  0  0
 24 12  1  0  0  0  0
 25 12  1  0  0  0  0
 26 13  1  0  0  0  0
 27 13  1  0  0  0  0
 28 18  1  0  0  0  0
 29 19  1  0  0  0  0
M  END
$$$$
