30
rmsd156.gzmat
C          0.00000        0.00000        0.00000
N          1.46400        0.00000        0.00000
C          2.11090        0.00000        1.26700
O          1.45690       -0.07400        2.28540
N          3.50080        0.07580        1.27000
H          3.96400        0.07700        2.18320
C          4.31910        0.18340        0.09910
O          5.51150        0.25590        0.27230
C          3.56900        0.18790       -1.12810
C          2.20630        0.10890       -1.15670
C          1.65530        0.13610       -2.55130
C          2.91930        0.26110       -3.44500
C          4.15250        0.27680       -2.49760
C         -0.56920        1.38980        0.41380
H         -0.29850        1.58800        1.49280
C          0.02420        2.46860       -0.48570
O         -0.26730        2.69810       -1.63080
O          0.94540        3.19520        0.17730
N         -2.02320        1.32100        0.27230
H         -0.38960       -0.30630       -0.99490
H         -0.37290       -0.75910        0.73920
H          0.96590        0.98940       -2.71430
H          1.08050       -0.77680       -2.78960
H          2.87870        1.18230       -4.04830
H          2.98240       -0.57860       -4.15420
H          4.75500        1.19520       -2.62630
H          4.83630       -0.56760       -2.70510
H          1.37300        3.90750       -0.36560
H         -2.32770        1.33730       -0.69050
H         -2.50140        2.03750        0.79410
