30
rmsd169.gzmat
C          0.00000        0.00000        0.00000
N          1.46420        0.00000        0.00000
C          2.11090        0.00000        1.26700
O          1.45490       -0.03810        2.28630
N          3.50240        0.03310        1.26960
H          3.96580        0.02810        2.18270
C          4.32340        0.09700        0.09740
O          5.51790        0.12250        0.26950
C          3.57280        0.12250       -1.12910
C          2.20800        0.08620       -1.15680
C          1.65800        0.13540       -2.55160
C          2.92590        0.20090       -3.44600
C          4.15840        0.19430       -2.49850
C         -0.57130        1.37760        0.45080
H         -0.26740        1.56390        1.52320
C         -0.01650        2.47020       -0.45590
O         -0.36290        2.72380       -1.58050
O          0.94970        3.17030        0.17030
N         -2.02740        1.28930        0.35210
H         -0.39050       -0.27980       -1.00220
H         -0.37200       -0.77800        0.71970
H          1.00840        1.01950       -2.71260
H          1.04400       -0.75100       -2.79090
H          2.91720        1.10840       -4.06910
H          2.96060       -0.65440       -4.13750
H          4.77970        1.09970       -2.62980
H          4.82580       -0.66340       -2.70320
H          1.35320        3.89180       -0.37850
H         -2.36550        1.36180       -0.59680
H         -2.50230        1.95530        0.93950
