30

C          0.02650       -0.00490        0.06550
N          1.48410        0.02010        0.05090
C          2.11910        0.08280        1.30070
O          1.49620        0.03790        2.34330
N          3.49380        0.19850        1.24310
H          3.95900        0.23510        2.14640
C          4.32710        0.30720        0.10900
O          5.53300        0.41250        0.22860
C          3.56820        0.28090       -1.12590
C          2.21530        0.14570       -1.10970
C          1.64530        0.09130       -2.50590
C          2.83320        0.58270       -3.36940
C          4.10950        0.33130       -2.52780
C         -0.61810        1.36320        0.39780
H         -0.41790        1.56870        1.45840
C          0.05050        2.45100       -0.43890
O         -0.31090        2.76990       -1.54800
O          1.12070        2.99010        0.16530
N         -2.04400        1.25970        0.16570
H         -0.32800       -0.34310       -0.91570
H         -0.31300       -0.72030        0.82340
H          0.74720        0.71190       -2.63410
H          1.35830       -0.95010       -2.74320
H          2.71630        1.66460       -3.53990
H          2.86270        0.09870       -4.35570
H          4.87270        1.11370       -2.65810
H          4.59740       -0.62490       -2.79090
H          1.52200        3.62440       -0.45510
H         -2.22920        1.37890       -0.83240
H         -2.54070        2.01160        0.64100
