rmsd13.gzmat
 OpenBabel08211713423D

 30 31  0  0  1  0  0  0  0  0999 V2000
    0.0000    0.0000    0.0000 C   0  0  0  0  0  0  0  0  0  0  0  0
    1.4642    0.0000    0.0000 N   0  0  0  0  0  0  0  0  0  0  0  0
    2.1090    0.0000    1.2683 C   0  0  0  0  0  0  0  0  0  0  0  0
    1.4557   -0.1067    2.2844 O   0  0  0  0  0  0  0  0  0  0  0  0
    3.4967    0.1092    1.2766 N   0  0  0  0  0  0  0  0  0  0  0  0
    3.9570    0.1005    2.1912 H   0  0  0  0  0  0  0  0  0  0  0  0
    4.3133    0.2694    0.1107 C   0  0  0  0  0  0  0  0  0  0  0  0
    5.5025    0.3770    0.2877 O   0  0  0  0  0  0  0  0  0  0  0  0
    3.5651    0.2817   -1.1179 C   0  0  0  0  0  0  0  0  0  0  0  0
    2.2051    0.1651   -1.1508 C   0  0  0  0  0  0  0  0  0  0  0  0
    1.6546    0.2197   -2.5451 C   0  0  0  0  0  0  0  0  0  0  0  0
    2.9188    0.3677   -3.4349 C   0  0  0  0  0  0  0  0  0  0  0  0
    4.1464    0.4347   -2.4826 C   0  0  0  0  0  0  0  0  0  0  0  0
   -0.5697    1.3804    0.4488 C   0  0  1  0  0  0  0  0  0  0  0  0
   -0.2799    1.5591    1.5254 H   0  0  0  0  0  0  0  0  0  0  0  0
    0.0050    2.4735   -0.4448 C   0  0  0  0  0  0  0  0  0  0  0  0
   -0.3790    2.7847   -1.5425 O   0  0  0  0  0  0  0  0  0  0  0  0
    1.0404    3.0952    0.1533 O   0  0  0  0  0  0  0  0  0  0  0  0
   -2.0253    1.3040    0.3252 N   0  0  0  0  0  0  0  0  0  0  0  0
   -0.3911   -0.2837   -1.0006 H   0  0  0  0  0  0  0  0  0  0  0  0
   -0.3720   -0.7782    0.7194 H   0  0  0  0  0  0  0  0  0  0  0  0
    0.9634    1.0749   -2.6867 H   0  0  0  0  0  0  0  0  0  0  0  0
    1.0833   -0.6887   -2.8063 H   0  0  0  0  0  0  0  0  0  0  0  0
    2.8544    1.2748   -4.0555 H   0  0  0  0  0  0  0  0  0  0  0  0
    3.0095   -0.4833   -4.1278 H   0  0  0  0  0  0  0  0  0  0  0  0
    4.6913    1.3919   -2.5865 H   0  0  0  0  0  0  0  0  0  0  0  0
    4.8825   -0.3587   -2.7084 H   0  0  0  0  0  0  0  0  0  0  0  0
    1.4612    3.8075   -0.3956 H   0  0  0  0  0  0  0  0  0  0  0  0
   -2.3416    1.4090   -0.6285 H   0  0  0  0  0  0  0  0  0  0  0  0
   -2.5047    1.9619    0.9188 H   0  0  0  0  0  0  0  0  0  0  0  0
  1  2  1  0  0  0  0
  1 14  1  0  0  0  0
  1 21  1  0  0  0  0
  2  3  1  0  0  0  0
  3  5  1  0  0  0  0
  3  4  2  0  0  0  0
  5  6  1  0  0  0  0
  7  8  2  0  0  0  0
  7  5  1  0  0  0  0
  9  7  1  0  0  0  0
 10  9  2  0  0  0  0
 10  2  1  0  0  0  0
 11 10  1  0  0  0  0
 12 11  1  0  0  0  0
 12 13  1  0  0  0  0
 13  9  1  0  0  0  0
 14 15  1  1  0  0  0
 16 18  1  0  0  0  0
 16 14  1  0  0  0  0
 17 16  2  0  0  0  0
 19 14  1  0  0  0  0
 19 30  1  0  0  0  0
 20  1  1  0  0  0  0
 22 11  1  0  0  0  0
 23 11  1  0  0  0  0
 24 12  1  0  0  0  0
 25 12  1  0  0  0  0
 26 13  1  0  0  0  0
 27 13  1  0  0  0  0
 28 18  1  0  0  0  0
 29 19  1  0  0  0  0
M  END
$$$$
