38
rmsd18.gzmat
Br         0.00000        0.00000        0.00000
C          1.89760        0.00000        0.00000
N          2.50000        0.00000        1.23610
C          3.88530       -0.06090        1.30750
C          4.66680       -0.12230        0.19460
C          6.11970       -0.21330        0.31110
C          6.69730       -1.11140        1.21580
C          8.08230       -1.18180        1.33970
C          8.89690       -0.36280        0.55980
C          8.32410        0.52320       -0.35110
C          6.93950        0.59800       -0.47970
C          4.07140       -0.10220       -1.14680
O          4.72460       -0.15410       -2.16510
C          2.59880       -0.02360       -1.16530
C          1.97970        0.01460       -2.48720
C          1.21730        1.11630       -2.88210
C          0.62110        1.12300       -4.14280
C          0.81590        0.06590       -5.03000
C          1.60550       -1.01590       -4.64290
C          2.18450       -1.04600       -3.37720
C         -0.21770        2.30530       -4.52760
F          0.49420        3.39350       -4.82620
F         -1.00700        2.12940       -5.58760
F         -1.05710        2.71270       -3.57310
C          1.74530        0.06800        2.49110
H          4.31950       -0.05520        2.31520
H          6.06800       -1.76790        1.81070
H          8.52740       -1.88080        2.04390
H          9.97860       -0.41950        0.65830
H          8.95930        1.15540       -0.96900
H          6.49020        1.27740       -1.20640
H          1.10640        1.96630       -2.20720
H          0.37000        0.06980       -6.02500
H          1.77630       -1.83820       -5.33640
H          2.81360       -1.88610       -3.07810
H          1.09630        0.96460        2.52360
H          2.42580        0.13470        3.35970
H          1.12150       -0.83560        2.63200
