38
rmsd17.gzmat
Br         0.00000        0.00000        0.00000
C          1.89730        0.00000        0.00000
N          2.50240        0.00000        1.23470
C          3.88900       -0.04650        1.30170
C          4.66680       -0.09180        0.18570
C          6.12120       -0.16690        0.29000
C          6.71720       -1.08200        1.16480
C          8.10440       -1.14370        1.26880
C          8.90150       -0.29700        0.50070
C          8.30970        0.60790       -0.37890
C          6.92340        0.67210       -0.49020
C          4.06810       -0.07130       -1.15450
O          4.71890       -0.10040       -2.17470
C          2.59510       -0.02220       -1.16670
C          1.97050       -0.01360       -2.48630
C          1.22300        1.08700       -2.91040
C          0.61970        1.06230       -4.16730
C          0.78880       -0.02810       -5.01840
C          1.56270       -1.11020       -4.60170
C          2.15250       -1.10670       -3.34060
C         -0.20460        2.24180       -4.58970
F          0.51940        3.29090       -4.98360
F         -1.04030        2.02110       -5.60510
F         -0.99520        2.72870       -3.63080
C          1.74970        0.07730        2.49010
H          4.32600       -0.04490        2.30800
H          6.10030       -1.75920        1.74920
H          8.56650       -1.85830        1.94620
H          9.98480       -0.34690        0.58280
H          8.93220        1.26270       -0.98560
H          6.45970        1.36310       -1.19650
H          1.12840        1.95750       -2.25950
H          0.33460       -0.04960       -6.00940
H          1.71260       -1.95880       -5.26730
H          2.77140       -1.94570       -3.01880
H          1.16220        1.01410        2.54770
H          2.42950        0.06590        3.36120
H          1.06490       -0.78490        2.60260
