38

Br        -0.04320        0.12950        0.14970
C          1.86180        0.08820        0.05660
N          2.52160        0.15190        1.26380
C          3.89470        0.11350        1.25860
C          4.66140       -0.02190        0.13610
C          6.13810        0.00640        0.24480
C          6.94940       -0.80530       -0.57090
C          8.33730       -0.79170       -0.42520
C          8.94620        0.03260        0.52480
C          8.15330        0.85510        1.32980
C          6.76590        0.84490        1.18620
C          3.99300       -0.19940       -1.16470
O          4.58940       -0.45140       -2.20860
C          2.51760       -0.04070       -1.13920
C          1.82290       -0.04930       -2.45010
C          1.97880       -1.14080       -3.31710
C          1.34100       -1.14990       -4.55810
C          0.55950       -0.06190       -4.96410
C          0.41960        1.03520       -4.11540
C          1.04710        1.04170       -2.86830
C          1.45080       -2.35730       -5.45210
F          0.39680       -3.18530       -5.29250
F          1.47670       -2.01410       -6.75340
F          2.55500       -3.07820       -5.20070
C          1.81970        0.22330        2.54480
H          4.35330        0.18030        2.24500
H          6.48140       -1.43590       -1.32370
H          8.94950       -1.43230       -1.06470
H         10.03370        0.04270        0.63040
H          8.61760        1.51930        2.06290
H          6.16080        1.52130        1.79490
H          2.60880       -1.97870       -3.02410
H          0.07770       -0.07260       -5.94320
H         -0.17540        1.89560       -4.42940
H          0.94350        1.90830       -2.21260
H          1.17710        1.11340        2.59140
H          2.56930        0.28120        3.34230
H          1.19610       -0.66790        2.70420
