38
rmsd16.gzmat
Br         0.00000        0.00000        0.00000
C          1.89760        0.00000        0.00000
N          2.49850        0.00000        1.23700
C          3.88260       -0.08190        1.30940
C          4.66190       -0.14890        0.19570
C          6.11170       -0.27660        0.31010
C          6.66190       -1.24070        1.16170
C          8.04410       -1.35370        1.28300
C          8.88050       -0.50740        0.55650
C          8.33360        0.44590       -0.30050
C          6.95190        0.55880       -0.43180
C          4.07120       -0.10670       -1.14650
O          4.72710       -0.14490       -2.16350
C          2.59870       -0.02930       -1.16510
C          1.98230       -0.00360       -2.48820
C          1.20700        1.08850       -2.88910
C          0.62590        1.08480       -4.15440
C          0.83720        0.02280       -5.03530
C          1.63270       -1.05000       -4.64000
C          2.20610       -1.06560       -3.37100
C         -0.23350        2.22620       -4.60970
F          0.30210        2.93770       -5.60340
F         -1.42410        1.84740       -5.08060
F         -0.53330        3.13630       -3.68330
C          1.74480        0.08980        2.49090
H          4.31670       -0.09070        2.31700
H          6.01060       -1.91360        1.71320
H          8.47100       -2.10610        1.94210
H          9.95990       -0.59580        0.65390
H          8.98500        1.10210       -0.87410
H          6.52230        1.28550       -1.12290
H          1.08300        1.93170       -2.20910
H          0.39490        0.02760       -6.03250
H          1.81540       -1.87550       -5.32650
H          2.84740       -1.89470       -3.06580
H          1.12940        1.00950        2.52650
H          2.42660        0.12670        3.36010
H          1.08790       -0.79030        2.62820
