rmsd4.gzmat
 OpenBabel08211713373D

 38 40  0  0  0  0  0  0  0  0999 V2000
    0.0000    0.0000    0.0000 Br  0  0  0  0  0  0  0  0  0  0  0  0
    1.8974    0.0000    0.0000 C   0  0  0  0  0  0  0  0  0  0  0  0
    2.5050    0.0000    1.2336 N   0  0  0  0  0  0  0  0  0  0  0  0
    3.8915    0.0533    1.2988 C   0  0  0  0  0  0  0  0  0  0  0  0
    4.6706    0.0299    0.1824 C   0  0  0  0  0  0  0  0  0  0  0  0
    6.1239    0.1265    0.2813 C   0  0  0  0  0  0  0  0  0  0  0  0
    6.9408   -0.7300   -0.4643 C   0  0  0  0  0  0  0  0  0  0  0  0
    8.3261   -0.6378   -0.3583 C   0  0  0  0  0  0  0  0  0  0  0  0
    8.9035    0.3064    0.4888 C   0  0  0  0  0  0  0  0  0  0  0  0
    8.0924    1.1694    1.2236 C   0  0  0  0  0  0  0  0  0  0  0  0
    6.7065    1.0848    1.1189 C   0  0  0  0  0  0  0  0  0  0  0  0
    4.0669   -0.1017   -1.1491 C   0  0  0  0  0  0  0  0  0  0  0  0
    4.7089   -0.2928   -2.1577 O   0  0  0  0  0  0  0  0  0  0  0  0
    2.5957   -0.0088   -1.1668 C   0  0  0  0  0  0  0  0  0  0  0  0
    1.9791    0.0508   -2.4887 C   0  0  0  0  0  0  0  0  0  0  0  0
    1.2431    1.1749   -2.8752 C   0  0  0  0  0  0  0  0  0  0  0  0
    0.6673    1.2102   -4.1421 C   0  0  0  0  0  0  0  0  0  0  0  0
    0.8397    0.1518   -5.0361 C   0  0  0  0  0  0  0  0  0  0  0  0
    1.5953   -0.9537   -4.6544 C   0  0  0  0  0  0  0  0  0  0  0  0
    2.1659   -1.0068   -3.3847 C   0  0  0  0  0  0  0  0  0  0  0  0
   -0.1482    2.3876   -4.5861 C   0  0  0  0  0  0  0  0  0  0  0  0
    0.3874    3.0571   -5.6086 F   0  0  0  0  0  0  0  0  0  0  0  0
   -1.3713    2.0614   -5.0108 F   0  0  0  0  0  0  0  0  0  0  0  0
   -0.3713    3.3248   -3.6653 F   0  0  0  0  0  0  0  0  0  0  0  0
    1.7540   -0.0539    2.4911 C   0  0  0  0  0  0  0  0  0  0  0  0
    4.3273    0.1114    2.3041 H   0  0  0  0  0  0  0  0  0  0  0  0
    6.4912   -1.4585   -1.1416 H   0  0  0  0  0  0  0  0  0  0  0  0
    8.9572   -1.3014   -0.9461 H   0  0  0  0  0  0  0  0  0  0  0  0
    9.9857    0.3746    0.5710 H   0  0  0  0  0  0  0  0  0  0  0  0
    8.5426    1.9147    1.8755 H   0  0  0  0  0  0  0  0  0  0  0  0
    6.0791    1.7774    1.6738 H   0  0  0  0  0  0  0  0  0  0  0  0
    1.1444    2.0111   -2.1824 H   0  0  0  0  0  0  0  0  0  0  0  0
    0.3946    0.1846   -6.0316 H   0  0  0  0  0  0  0  0  0  0  0  0
    1.7480   -1.7757   -5.3519 H   0  0  0  0  0  0  0  0  0  0  0  0
    2.7749   -1.8627   -3.0890 H   0  0  0  0  0  0  0  0  0  0  0  0
    1.1302    0.8508    2.6232 H   0  0  0  0  0  0  0  0  0  0  0  0
    2.4373   -0.1097    3.3579 H   0  0  0  0  0  0  0  0  0  0  0  0
    1.1057   -0.9497    2.5351 H   0  0  0  0  0  0  0  0  0  0  0  0
  1  2  1  0  0  0  0
  2  3  1  0  0  0  0
  3  4  1  0  0  0  0
  3 25  1  0  0  0  0
  4 26  1  0  0  0  0
  5  6  1  0  0  0  0
  5  4  2  0  0  0  0
  6 11  2  0  0  0  0
  7  8  2  0  0  0  0
  7  6  1  0  0  0  0
  8  9  1  0  0  0  0
  9 29  1  0  0  0  0
  9 10  2  0  0  0  0
 10 30  1  0  0  0  0
 11 10  1  0  0  0  0
 11 31  1  0  0  0  0
 12  5  1  0  0  0  0
 13 12  2  0  0  0  0
 14 12  1  0  0  0  0
 14  2  2  0  0  0  0
 15 14  1  0  0  0  0
 16 15  1  0  0  0  0
 16 32  1  0  0  0  0
 17 16  2  0  0  0  0
 18 19  2  0  0  0  0
 18 17  1  0  0  0  0
 19 20  1  0  0  0  0
 20 35  1  0  0  0  0
 20 15  2  0  0  0  0
 21 17  1  0  0  0  0
 21 24  1  0  0  0  0
 22 21  1  0  0  0  0
 23 21  1  0  0  0  0
 25 38  1  0  0  0  0
 25 36  1  0  0  0  0
 25 37  1  0  0  0  0
 27  7  1  0  0  0  0
 28  8  1  0  0  0  0
 33 18  1  0  0  0  0
 34 19  1  0  0  0  0
M  END
$$$$
