38

Br        -0.00990       -0.03610        0.00490
C          1.89710       -0.03490       -0.02930
N          2.51560       -0.03250        1.20160
C          3.88710       -0.09650        1.24280
C          4.69110       -0.18320        0.14250
C          6.15830       -0.30310        0.30590
C          6.70210       -1.02730        1.38370
C          8.08190       -1.11060        1.57270
C          8.94990       -0.47810        0.67900
C          8.42380        0.23000       -0.40520
C          7.04440        0.31450       -0.59700
C          4.07550       -0.17420       -1.19580
O          4.71920       -0.24970       -2.23930
C          2.59470       -0.07350       -1.20800
C          1.94490       -0.01880       -2.54110
C          1.12520        1.05810       -2.90040
C          0.52720        1.10560       -4.16240
C          0.74650        0.07990       -5.08640
C          1.57820       -0.98660       -4.74030
C          2.18050       -1.03320       -3.48340
C         -0.31130        2.29890       -4.53590
F          0.44310        3.31370       -5.00150
F         -1.20680        2.00530       -5.49550
F         -0.99530        2.77930       -3.47960
C          1.77190        0.04430        2.45860
H          4.31190       -0.06200        2.24580
H          6.03620       -1.55730        2.06910
H          8.48020       -1.68390        2.41340
H         10.03120       -0.54630        0.82060
H          9.09500        0.72100       -1.11410
H          6.64200        0.85120       -1.45390
H          0.94760        1.86670       -2.19090
H          0.26980        0.11920       -6.06680
H          1.76050       -1.78840       -5.45900
H          2.84240       -1.85950       -3.22420
H          1.15230        0.95100        2.49420
H          2.49500        0.07350        3.28180
H          1.11960       -0.83120        2.58560
