
     RDKit          3D

 38 40  0  0  0  0  0  0  0  0999 V2000
   -0.0432    0.1295    0.1497 Br  0  0  0  0  0  0  0  0  0  0  0  0
    1.8618    0.0882    0.0566 C   0  0  0  0  0  0  0  0  0  0  0  0
    2.5216    0.1519    1.2638 N   0  0  0  0  0  0  0  0  0  0  0  0
    3.8947    0.1135    1.2586 C   0  0  0  0  0  0  0  0  0  0  0  0
    4.6614   -0.0219    0.1361 C   0  0  0  0  0  0  0  0  0  0  0  0
    6.1381    0.0064    0.2448 C   0  0  0  0  0  0  0  0  0  0  0  0
    6.9494   -0.8053   -0.5709 C   0  0  0  0  0  0  0  0  0  0  0  0
    8.3373   -0.7917   -0.4252 C   0  0  0  0  0  0  0  0  0  0  0  0
    8.9462    0.0326    0.5248 C   0  0  0  0  0  0  0  0  0  0  0  0
    8.1533    0.8551    1.3298 C   0  0  0  0  0  0  0  0  0  0  0  0
    6.7659    0.8449    1.1862 C   0  0  0  0  0  0  0  0  0  0  0  0
    3.9930   -0.1994   -1.1647 C   0  0  0  0  0  0  0  0  0  0  0  0
    4.5894   -0.4514   -2.2086 O   0  0  0  0  0  0  0  0  0  0  0  0
    2.5176   -0.0407   -1.1392 C   0  0  0  0  0  0  0  0  0  0  0  0
    1.8229   -0.0493   -2.4501 C   0  0  0  0  0  0  0  0  0  0  0  0
    1.9788   -1.1408   -3.3171 C   0  0  0  0  0  0  0  0  0  0  0  0
    1.3410   -1.1499   -4.5581 C   0  0  0  0  0  0  0  0  0  0  0  0
    0.5595   -0.0619   -4.9641 C   0  0  0  0  0  0  0  0  0  0  0  0
    0.4196    1.0352   -4.1154 C   0  0  0  0  0  0  0  0  0  0  0  0
    1.0471    1.0417   -2.8683 C   0  0  0  0  0  0  0  0  0  0  0  0
    1.4508   -2.3573   -5.4521 C   0  0  0  0  0  0  0  0  0  0  0  0
    0.3968   -3.1853   -5.2925 F   0  0  0  0  0  0  0  0  0  0  0  0
    1.4767   -2.0141   -6.7534 F   0  0  0  0  0  0  0  0  0  0  0  0
    2.5550   -3.0782   -5.2007 F   0  0  0  0  0  0  0  0  0  0  0  0
    1.8197    0.2233    2.5448 C   0  0  0  0  0  0  0  0  0  0  0  0
    4.3533    0.1803    2.2450 H   0  0  0  0  0  0  0  0  0  0  0  0
    6.4814   -1.4359   -1.3237 H   0  0  0  0  0  0  0  0  0  0  0  0
    8.9495   -1.4323   -1.0647 H   0  0  0  0  0  0  0  0  0  0  0  0
   10.0337    0.0427    0.6304 H   0  0  0  0  0  0  0  0  0  0  0  0
    8.6176    1.5193    2.0629 H   0  0  0  0  0  0  0  0  0  0  0  0
    6.1608    1.5213    1.7949 H   0  0  0  0  0  0  0  0  0  0  0  0
    2.6088   -1.9787   -3.0241 H   0  0  0  0  0  0  0  0  0  0  0  0
    0.0777   -0.0726   -5.9432 H   0  0  0  0  0  0  0  0  0  0  0  0
   -0.1754    1.8956   -4.4294 H   0  0  0  0  0  0  0  0  0  0  0  0
    0.9435    1.9083   -2.2126 H   0  0  0  0  0  0  0  0  0  0  0  0
    1.1771    1.1134    2.5914 H   0  0  0  0  0  0  0  0  0  0  0  0
    2.5693    0.2812    3.3423 H   0  0  0  0  0  0  0  0  0  0  0  0
    1.1961   -0.6679    2.7042 H   0  0  0  0  0  0  0  0  0  0  0  0
  1  2  1  0
  2  3  1  0
  2 14  2  0
  3  4  1  0
  3 25  1  0
  4  5  2  0
  4 26  1  0
  5  6  1  0
  5 12  1  0
  6  7  2  0
  6 11  1  0
  7  8  1  0
  7 27  1  0
  8  9  2  0
  8 28  1  0
  9 10  1  0
  9 29  1  0
 10 11  2  0
 10 30  1  0
 11 31  1  0
 12 13  2  0
 12 14  1  0
 14 15  1  0
 15 16  2  0
 15 20  1  0
 16 17  1  0
 16 32  1  0
 17 18  2  0
 17 21  1  0
 18 19  1  0
 18 33  1  0
 19 20  2  0
 19 34  1  0
 20 35  1  0
 21 22  1  0
 21 23  1  0
 21 24  1  0
 25 36  1  0
 25 37  1  0
 25 38  1  0
M  END

