38

Br         0.01030       -0.07620       -0.02950
C          1.91770       -0.07690       -0.05550
N          2.53180       -0.09440        1.17710
C          3.90440       -0.08490        1.22190
C          4.71420       -0.01760        0.12380
C          6.18480       -0.07290        0.28940
C          6.75750       -0.88280        1.28930
C          8.13800       -0.91720        1.48580
C          8.97950       -0.14860        0.67690
C          8.42580        0.64620       -0.33030
C          7.04490        0.68400       -0.52900
C          4.09790        0.11400       -1.20760
O          4.73860        0.31050       -2.23750
C          2.62000       -0.01960       -1.23120
C          1.97300       -0.07030       -2.56530
C          1.16880       -1.15750       -2.93110
C          0.57420       -1.20790       -4.19400
C          0.78720       -0.17880       -5.11620
C          1.60330        0.89720       -4.76410
C          2.19740        0.95080       -3.50310
C         -0.34050       -2.35410       -4.53400
F         -1.60380       -2.11820       -4.12220
F         -0.39880       -2.57890       -5.85820
F          0.04880       -3.50000       -3.94530
C          1.78230       -0.09120        2.43310
H          4.32510       -0.11550        2.22680
H          6.11460       -1.51860        1.90280
H          8.55890       -1.55890        2.26380
H         10.06180       -0.17820        0.82390
H          9.07640        1.24420       -0.97320
H          6.61990        1.29070       -1.32560
H          1.01260       -1.97810       -2.23050
H          0.32710       -0.22920       -6.10420
H          1.78460        1.69910       -5.48310
H          2.84800        1.78380       -3.23930
H          1.17290        0.81890        2.52740
H          2.50110       -0.12640        3.25980
H          1.11930       -0.96500        2.49660
