38
rmsd14.gzmat
Br         0.00000        0.00000        0.00000
C          1.89730        0.00000        0.00000
N          2.50270        0.00000        1.23480
C          3.88980       -0.03550        1.30070
C          4.66860        0.00140        0.18480
C          6.12350       -0.07600        0.28050
C          6.72090       -1.05830        1.07800
C          8.10830       -1.13500        1.16650
C          8.90490       -0.23520        0.46020
C          8.31140        0.74100       -0.33850
C          6.92440        0.82070       -0.43370
C          4.06670        0.12560       -1.14800
O          4.70850        0.32560       -2.15530
C          2.59630        0.01430       -1.16650
C          1.98310       -0.05960       -2.48890
C          1.24460       -1.18670       -2.86180
C          0.67550       -1.23890       -4.13110
C          0.85180       -0.19210       -5.03790
C          1.60770        0.91730       -4.66840
C          2.17840        0.98400       -3.39940
C         -0.14080       -2.42020       -4.56410
F         -1.38380       -2.10300       -4.93480
F          0.36270       -3.06390       -5.61900
F         -0.31360       -3.37670       -3.65240
C          1.74900        0.02300        2.49180
H          4.32650       -0.08930        2.30580
H          6.10210       -1.77470        1.61250
H          8.56910       -1.90360        1.78290
H          9.98860       -0.29910        0.52530
H          8.93230        1.43910       -0.89660
H          6.45960        1.56940       -1.07770
H          1.13910       -2.01180       -2.15620
H          0.41130       -0.23770       -6.03480
H          1.76040        1.73120       -5.37540
H          2.79670        1.83800       -3.11540
H          1.11170        0.92520        2.56310
H          2.43050        0.04080        3.36170
H          1.11380       -0.87790        2.59580
