rmsd103.gzmat
 OpenBabel08211713423D

 49 51  0  0  1  0  0  0  0  0999 V2000
    0.0000    0.0000    0.0000 N   0  0  0  0  0  0  0  0  0  0  0  0
    1.4722    0.0000    0.0000 C   0  0  0  0  0  0  0  0  0  0  0  0
    2.0789    0.0000    1.4175 C   0  0  0  0  0  0  0  0  0  0  0  0
    1.4708   -1.0351    2.2706 N   0  0  0  0  0  0  0  0  0  0  0  0
    0.1976   -1.5381    2.0158 C   0  0  0  0  0  0  0  0  0  0  0  0
   -0.3497   -2.2659    2.8158 O   0  0  0  0  0  0  0  0  0  0  0  0
   -0.4729   -1.2122    0.6853 C   0  0  0  0  0  0  0  0  0  0  0  0
    2.1225   -1.3053    3.5032 C   0  0  0  0  0  0  0  0  0  0  0  0
    2.8548   -0.2973    4.1495 C   0  0  0  0  0  0  0  0  0  0  0  0
    3.4963   -0.6190    5.3355 C   0  0  0  0  0  0  0  0  0  0  0  0
    3.4428   -1.8757    5.9166 C   0  0  0  0  0  0  0  0  0  0  0  0
    2.7053   -2.8642    5.2628 C   0  0  0  0  0  0  0  0  0  0  0  0
    2.0556   -2.5920    4.0643 C   0  0  0  0  0  0  0  0  0  0  0  0
    4.3963    0.6103    6.1201 Cl  0  0  0  0  0  0  0  0  0  0  0  0
   -0.6038    1.2127    0.6171 C   0  0  0  0  0  0  0  0  0  0  0  0
   -0.0730    2.4476   -0.0065 C   0  0  2  0  0  0  0  0  0  0  0  0
    0.3526    3.5775    0.7001 N   0  0  0  0  0  0  0  0  0  0  0  0
    0.4214    3.7394    2.1413 C   0  0  0  0  0  0  0  0  0  0  0  0
    1.7877    3.4807    2.7290 C   0  0  0  0  0  0  0  0  0  0  0  0
    1.8881    3.4469    4.1238 C   0  0  0  0  0  0  0  0  0  0  0  0
    3.1260    3.2700    4.7312 C   0  0  0  0  0  0  0  0  0  0  0  0
    4.2701    3.1134    3.9394 C   0  0  0  0  0  0  0  0  0  0  0  0
    4.1687    3.1212    2.5452 C   0  0  0  0  0  0  0  0  0  0  0  0
    2.9271    3.3093    1.9436 C   0  0  0  0  0  0  0  0  0  0  0  0
    5.5433    2.9597    4.5536 C   0  0  0  0  0  0  0  0  0  0  0  0
    6.5824    2.8446    5.0504 N   0  0  0  0  0  0  0  0  0  0  0  0
    0.7559    4.5298   -0.2413 C   0  0  0  0  0  0  0  0  0  0  0  0
    0.5898    4.0470   -1.4817 N   0  0  0  0  0  0  0  0  0  0  0  0
    0.0760    2.7674   -1.3598 C   0  0  0  0  0  0  0  0  0  0  0  0
    1.8395    0.8862   -0.5665 H   0  0  0  0  0  0  0  0  0  0  0  0
    1.8111   -0.8932   -0.5745 H   0  0  0  0  0  0  0  0  0  0  0  0
    3.1782   -0.1796    1.3571 H   0  0  0  0  0  0  0  0  0  0  0  0
    1.9349    1.0038    1.8836 H   0  0  0  0  0  0  0  0  0  0  0  0
   -0.3120   -2.0786   -0.0062 H   0  0  0  0  0  0  0  0  0  0  0  0
   -1.5769   -1.1637    0.8411 H   0  0  0  0  0  0  0  0  0  0  0  0
    2.9081    0.7121    3.7472 H   0  0  0  0  0  0  0  0  0  0  0  0
    3.9550   -2.0926    6.8522 H   0  0  0  0  0  0  0  0  0  0  0  0
    2.6379   -3.8631    5.6964 H   0  0  0  0  0  0  0  0  0  0  0  0
    1.4841   -3.3778    3.5652 H   0  0  0  0  0  0  0  0  0  0  0  0
   -0.4859    1.2270    1.7258 H   0  0  0  0  0  0  0  0  0  0  0  0
   -1.7072    1.1514    0.4149 H   0  0  0  0  0  0  0  0  0  0  0  0
   -0.3357    3.0724    2.6289 H   0  0  0  0  0  0  0  0  0  0  0  0
    0.1088    4.7870    2.4003 H   0  0  0  0  0  0  0  0  0  0  0  0
    0.9987    3.5690    4.7434 H   0  0  0  0  0  0  0  0  0  0  0  0
    3.2072    3.2565    5.8205 H   0  0  0  0  0  0  0  0  0  0  0  0
    5.0611    2.9896    1.9303 H   0  0  0  0  0  0  0  0  0  0  0  0
    2.8604    3.3320    0.8539 H   0  0  0  0  0  0  0  0  0  0  0  0
    1.1313    5.5039    0.0169 H   0  0  0  0  0  0  0  0  0  0  0  0
   -0.1483    2.1665   -2.2214 H   0  0  0  0  0  0  0  0  0  0  0  0
  1  2  1  0  0  0  0
  1 15  1  0  0  0  0
  1  7  1  0  0  0  0
  2  3  1  0  0  0  0
  3 33  1  0  0  0  0
  3  4  1  0  0  0  0
  4  8  1  0  0  0  0
  5  4  1  0  0  0  0
  5  6  2  0  0  0  0
  7 35  1  0  0  0  0
  7  5  1  0  0  0  0
  8 13  2  0  0  0  0
  8  9  1  0  0  0  0
  9 10  2  0  0  0  0
 10 11  1  0  0  0  0
 10 14  1  0  0  0  0
 11 37  1  0  0  0  0
 12 38  1  0  0  0  0
 12 11  2  0  0  0  0
 13 12  1  0  0  0  0
 15 40  1  0  0  0  0
 16 15  1  6  0  0  0
 16 17  1  0  0  0  0
 17 18  1  0  0  0  0
 18 43  1  0  0  0  0
 18 42  1  0  0  0  0
 18 19  1  0  0  0  0
 19 20  2  0  0  0  0
 20 21  1  0  0  0  0
 20 44  1  0  0  0  0
 21 45  1  0  0  0  0
 22 25  1  0  0  0  0
 22 21  2  0  0  0  0
 23 22  1  0  0  0  0
 24 23  2  0  0  0  0
 24 19  1  0  0  0  0
 25 26  3  0  0  0  0
 27 48  1  0  0  0  0
 27 17  1  0  0  0  0
 28 29  2  0  0  0  0
 28 27  2  0  0  0  0
 29 16  1  0  0  0  0
 30  2  1  0  0  0  0
 31  2  1  0  0  0  0
 32  3  1  0  0  0  0
 34  7  1  0  0  0  0
 36  9  1  0  0  0  0
 39 13  1  0  0  0  0
 41 15  1  0  0  0  0
 46 23  1  0  0  0  0
 49 29  1  0  0  0  0
M  RAD  3  16   2  24   2  47   2
M  END
$$$$
