49
rmsd196.gzmat
N          0.00000        0.00000        0.00000
C          1.46910        0.00000        0.00000
C          2.17990        0.00000        1.38910
N          1.28930        0.19800        2.54250
C         -0.03530       -0.19910        2.48280
O         -0.77760       -0.10890        3.43890
C         -0.51510       -0.75070        1.14930
C          1.78560        0.98350        3.61840
C          0.93930        1.89310        4.26510
C          1.46720        2.70030        5.25660
C          2.79030        2.62330        5.66700
C          3.61230        1.68760        5.03820
C          3.12620        0.87130        4.01950
Cl         0.41550        3.85530        5.96030
C         -0.62030        1.33210       -0.18480
C         -0.10690        2.45180        0.64370
N         -0.77080        3.05150        1.71870
C         -2.10220        2.68580        2.20170
C         -2.35200        3.17100        3.60750
C         -2.52190        4.53520        3.85630
C         -2.68060        4.99020        5.16080
C         -2.69300        4.07080        6.21610
C         -2.57630        2.70040        5.96500
C         -2.41160        2.25310        4.65660
C         -2.81120        4.53590        7.55460
N         -2.90360        4.91390        8.64500
C          0.05620        4.06510        2.20400
N          1.18440        4.12870        1.47760
C          1.10010        3.15050        0.50710
H          1.84590        0.85190       -0.60590
H          1.77300       -0.92540       -0.54920
H          2.70880       -0.97260        1.52640
H          2.96020        0.79860        1.38550
H         -0.19820       -1.81720        1.04430
H         -1.62930       -0.76670        1.12920
H         -0.11070        1.96580        3.98310
H          3.18010        3.27000        6.45060
H          4.65420        1.59350        5.34620
H          3.78320        0.14450        3.54960
H         -1.72460        1.21520       -0.07800
H         -0.46170        1.58400       -1.26880
H         -2.21110        1.57030        2.15410
H         -2.86910        3.11020        1.50470
H         -2.52120        5.24610        3.03040
H         -2.78700        6.05630        5.36210
H         -2.59590        1.98500        6.78860
H         -2.30820        1.17860        4.46470
H         -0.17480        4.69390        3.04940
H          1.88300        3.02450       -0.21330
