rmsd193.gzmat
 OpenBabel08211713423D

 49 52  0  0  1  0  0  0  0  0999 V2000
    0.0000    0.0000    0.0000 N   0  0  0  0  0  0  0  0  0  0  0  0
    1.4748    0.0000    0.0000 C   0  0  0  0  0  0  0  0  0  0  0  0
    2.0925    0.0000    1.4173 C   0  0  0  0  0  0  0  0  0  0  0  0
    1.3931   -0.9147    2.3382 N   0  0  0  0  0  0  0  0  0  0  0  0
    0.1245   -1.4181    2.0694 C   0  0  0  0  0  0  0  0  0  0  0  0
   -0.4916   -2.0198    2.9263 O   0  0  0  0  0  0  0  0  0  0  0  0
   -0.4580   -1.2189    0.6779 C   0  0  0  0  0  0  0  0  0  0  0  0
    1.9057   -0.9919    3.6643 C   0  0  0  0  0  0  0  0  0  0  0  0
    2.4761    0.1361    4.2712 C   0  0  0  0  0  0  0  0  0  0  0  0
    2.9345    0.0143    5.5746 C   0  0  0  0  0  0  0  0  0  0  0  0
    2.8707   -1.1700    6.2931 C   0  0  0  0  0  0  0  0  0  0  0  0
    2.3099   -2.2856    5.6695 C   0  0  0  0  0  0  0  0  0  0  0  0
    1.8281   -2.2054    4.3671 C   0  0  0  0  0  0  0  0  0  0  0  0
    3.5608    1.4130    6.3284 Cl  0  0  0  0  0  0  0  0  0  0  0  0
   -0.5391    1.2377    0.6277 C   0  0  0  0  0  0  0  0  0  0  0  0
   -2.0179    1.2825    0.5519 C   0  0  1  0  0  0  0  0  0  0  0  0
   -2.9039    1.0379    1.6070 N   0  0  0  0  0  0  0  0  0  0  0  0
   -2.6052    0.5312    2.9380 C   0  0  0  0  0  0  0  0  0  0  0  0
   -1.6273    1.3542    3.7331 C   0  0  0  0  0  0  0  0  0  0  0  0
   -1.4204    2.7117    3.4884 C   0  0  0  0  0  0  0  0  0  0  0  0
   -0.5134    3.4286    4.2627 C   0  0  0  0  0  0  0  0  0  0  0  0
    0.1715    2.7886    5.3010 C   0  0  0  0  0  0  0  0  0  0  0  0
   -0.0511    1.4323    5.5629 C   0  0  0  0  0  0  0  0  0  0  0  0
   -0.9410    0.7159    4.7706 C   0  0  0  0  0  0  0  0  0  0  0  0
    1.0898    3.5226    6.1004 C   0  0  0  0  0  0  0  0  0  0  0  0
    1.8328    4.1240    6.7535 N   0  0  0  0  0  0  0  0  0  0  0  0
   -4.1953    1.2549    1.1207 C   0  0  0  0  0  0  0  0  0  0  0  0
   -4.1490    1.6188   -0.1711 N   0  0  0  0  0  0  0  0  0  0  0  0
   -2.8171    1.6392   -0.5407 C   0  0  0  0  0  0  0  0  0  0  0  0
    1.8378    0.8842   -0.5688 H   0  0  0  0  0  0  0  0  0  0  0  0
    1.8140   -0.8932   -0.5736 H   0  0  0  0  0  0  0  0  0  0  0  0
    3.1631   -0.3080    1.3628 H   0  0  0  0  0  0  0  0  0  0  0  0
    2.0752    1.0379    1.8268 H   0  0  0  0  0  0  0  0  0  0  0  0
   -0.1953   -2.1005    0.0418 H   0  0  0  0  0  0  0  0  0  0  0  0
   -1.5736   -1.2261    0.7301 H   0  0  0  0  0  0  0  0  0  0  0  0
    2.5354    1.0905    3.7523 H   0  0  0  0  0  0  0  0  0  0  0  0
    3.2428   -1.2349    7.3144 H   0  0  0  0  0  0  0  0  0  0  0  0
    2.2441   -3.2311    6.2098 H   0  0  0  0  0  0  0  0  0  0  0  0
    1.3751   -3.0800    3.8958 H   0  0  0  0  0  0  0  0  0  0  0  0
   -0.1238    2.1010    0.0456 H   0  0  0  0  0  0  0  0  0  0  0  0
   -0.1896    1.3723    1.6788 H   0  0  0  0  0  0  0  0  0  0  0  0
   -2.2345   -0.5287    2.8492 H   0  0  0  0  0  0  0  0  0  0  0  0
   -3.5620    0.4597    3.5217 H   0  0  0  0  0  0  0  0  0  0  0  0
   -1.9703    3.2157    2.6912 H   0  0  0  0  0  0  0  0  0  0  0  0
   -0.3434    4.4884    4.0670 H   0  0  0  0  0  0  0  0  0  0  0  0
    0.4731    0.9373    6.3828 H   0  0  0  0  0  0  0  0  0  0  0  0
   -1.0924   -0.3519    4.9560 H   0  0  0  0  0  0  0  0  0  0  0  0
   -5.0857    1.1456    1.7137 H   0  0  0  0  0  0  0  0  0  0  0  0
   -2.5175    1.8930   -1.5389 H   0  0  0  0  0  0  0  0  0  0  0  0
  1  2  1  0  0  0  0
  1 15  1  0  0  0  0
  1  7  1  0  0  0  0
  2  3  1  0  0  0  0
  3 33  1  0  0  0  0
  3  4  1  0  0  0  0
  4  8  1  0  0  0  0
  5  4  1  0  0  0  0
  5  6  2  0  0  0  0
  7 35  1  0  0  0  0
  7  5  1  0  0  0  0
  8  9  2  0  0  0  0
  8 13  1  0  0  0  0
  9 10  1  0  0  0  0
 10 11  2  0  0  0  0
 10 14  1  0  0  0  0
 11 37  1  0  0  0  0
 12 38  1  0  0  0  0
 12 11  1  0  0  0  0
 13 12  2  0  0  0  0
 15 41  1  0  0  0  0
 16 15  1  1  0  0  0
 16 17  1  0  0  0  0
 17 18  1  0  0  0  0
 18 43  1  0  0  0  0
 18 19  1  0  0  0  0
 19 24  1  0  0  0  0
 20 19  2  0  0  0  0
 20 21  1  0  0  0  0
 21 22  2  0  0  0  0
 22 23  1  0  0  0  0
 22 25  1  0  0  0  0
 23 46  1  0  0  0  0
 24 47  1  0  0  0  0
 24 23  2  0  0  0  0
 25 26  3  0  0  0  0
 27 17  1  0  0  0  0
 27 48  1  0  0  0  0
 28 27  2  0  0  0  0
 29 28  2  0  0  0  0
 29 16  1  0  0  0  0
 30  2  1  0  0  0  0
 31  2  1  0  0  0  0
 32  3  1  0  0  0  0
 34  7  1  0  0  0  0
 36  9  1  0  0  0  0
 39 13  1  0  0  0  0
 40 15  1  0  0  0  0
 42 18  1  0  0  0  0
 44 20  1  0  0  0  0
 45 21  1  0  0  0  0
 49 29  1  0  0  0  0
M  RAD  1  16   2
M  END
$$$$
