49

N          0.18930        0.10720       -0.08550
C          1.61910        0.32930       -0.02730
C          2.10160        0.96420        1.28910
N          1.32950        0.51710        2.46060
C          0.21480       -0.28380        2.39350
O         -0.43770       -0.61030        3.37660
C         -0.20930       -0.74770        1.00400
C          1.65700        1.10920        3.72330
C          1.65940        2.50280        3.84690
C          1.84090        3.07700        5.10410
C          2.06900        2.29150        6.23510
C          2.10440        0.90210        6.08910
C          1.89570        0.30580        4.84450
Cl         1.68750        4.81000        5.26910
C         -0.67490        1.24130       -0.42770
C         -0.44450        2.55580        0.26600
N         -0.95330        2.96500        1.49590
C         -2.03770        2.32610        2.25790
C         -2.09890        2.82330        3.68460
C         -2.70150        4.05640        3.98020
C         -2.65920        4.57920        5.26920
C         -2.02080        3.85600        6.29370
C         -1.46320        2.59790        6.01370
C         -1.50370        2.08780        4.71790
C         -1.93910        4.39940        7.61930
N         -1.86490        4.83720        8.69180
C         -0.38940        4.18990        1.76320
N          0.43780        4.57430        0.81450
C          0.40110        3.57840       -0.12390
H          1.93810        0.97130       -0.86240
H          2.11430       -0.64800       -0.16560
H          3.16290        0.71520        1.45670
H          2.03100        2.05740        1.22170
H          0.21640       -1.75930        0.85620
H         -1.29990       -0.87580        1.03590
H          1.46990        3.14550        2.99020
H          2.20140        2.76340        7.20930
H          2.28370        0.27480        6.96520
H          1.88330       -0.77850        4.74310
H         -1.71560        0.90230       -0.30900
H         -0.54070        1.44350       -1.50370
H         -1.87800        1.24190        2.25780
H         -2.99230        2.52710        1.74300
H         -3.19010        4.62560        3.18520
H         -3.11050        5.54740        5.49120
H         -0.98290        2.02810        6.80940
H         -1.06360        1.11210        4.50630
H         -0.59570        4.73570        2.68030
H          0.99280        3.62420       -1.03900
