
     RDKit          3D

 49 52  0  0  0  0  0  0  0  0999 V2000
    0.1266   -0.0273    0.0012 N   0  0  0  0  0  0  0  0  0  0  0  0
    1.5708   -0.0975   -0.0069 C   0  0  0  0  0  0  0  0  0  0  0  0
    2.1934   -0.0504    1.3962 C   0  0  0  0  0  0  0  0  0  0  0  0
    1.3724   -0.7309    2.4149 N   0  0  0  0  0  0  0  0  0  0  0  0
    0.1453   -1.3005    2.1642 C   0  0  0  0  0  0  0  0  0  0  0  0
   -0.5102   -1.8831    3.0195 O   0  0  0  0  0  0  0  0  0  0  0  0
   -0.4050   -1.1367    0.7515 C   0  0  0  0  0  0  0  0  0  0  0  0
    1.8840   -0.7122    3.7504 C   0  0  0  0  0  0  0  0  0  0  0  0
    1.9231   -1.8900    4.5083 C   0  0  0  0  0  0  0  0  0  0  0  0
    2.4248   -1.8474    5.8087 C   0  0  0  0  0  0  0  0  0  0  0  0
    2.8983   -0.6586    6.3706 C   0  0  0  0  0  0  0  0  0  0  0  0
    2.8586    0.5056    5.6028 C   0  0  0  0  0  0  0  0  0  0  0  0
    2.3535    0.4893    4.3011 C   0  0  0  0  0  0  0  0  0  0  0  0
    2.4669   -3.3185    6.7513 Cl  0  0  0  0  0  0  0  0  0  0  0  0
   -0.4959    1.2832    0.1879 C   0  0  0  0  0  0  0  0  0  0  0  0
   -0.0676    2.1616    1.3389 C   0  0  0  0  0  0  0  0  0  0  0  0
   -0.5100    2.1421    2.6614 N   0  0  0  0  0  0  0  0  0  0  0  0
   -1.4832    1.2785    3.3194 C   0  0  0  0  0  0  0  0  0  0  0  0
   -2.7973    1.1479    2.5860 C   0  0  0  0  0  0  0  0  0  0  0  0
   -3.4072   -0.1097    2.4797 C   0  0  0  0  0  0  0  0  0  0  0  0
   -4.6312   -0.2489    1.8271 C   0  0  0  0  0  0  0  0  0  0  0  0
   -5.2587    0.8762    1.2645 C   0  0  0  0  0  0  0  0  0  0  0  0
   -4.6478    2.1404    1.3701 C   0  0  0  0  0  0  0  0  0  0  0  0
   -3.4290    2.2691    2.0288 C   0  0  0  0  0  0  0  0  0  0  0  0
   -6.5134    0.7378    0.5815 C   0  0  0  0  0  0  0  0  0  0  0  0
   -7.5275    0.6268    0.0277 N   0  0  0  0  0  0  0  0  0  0  0  0
    0.1857    3.1222    3.3223 C   0  0  0  0  0  0  0  0  0  0  0  0
    1.0283    3.7565    2.5394 N   0  0  0  0  0  0  0  0  0  0  0  0
    0.8721    3.1777    1.3073 C   0  0  0  0  0  0  0  0  0  0  0  0
    1.9887    0.7275   -0.6046 H   0  0  0  0  0  0  0  0  0  0  0  0
    1.8585   -1.0375   -0.5097 H   0  0  0  0  0  0  0  0  0  0  0  0
    3.1909   -0.5208    1.3852 H   0  0  0  0  0  0  0  0  0  0  0  0
    2.3283    0.9948    1.6990 H   0  0  0  0  0  0  0  0  0  0  0  0
   -0.2024   -2.0828    0.2134 H   0  0  0  0  0  0  0  0  0  0  0  0
   -1.4958   -1.0621    0.8457 H   0  0  0  0  0  0  0  0  0  0  0  0
    1.5498   -2.8247    4.0973 H   0  0  0  0  0  0  0  0  0  0  0  0
    3.2871   -0.6545    7.3894 H   0  0  0  0  0  0  0  0  0  0  0  0
    3.2216    1.4448    6.0262 H   0  0  0  0  0  0  0  0  0  0  0  0
    2.3178    1.4154    3.7278 H   0  0  0  0  0  0  0  0  0  0  0  0
   -1.5832    1.1253    0.2029 H   0  0  0  0  0  0  0  0  0  0  0  0
   -0.2828    1.8737   -0.7185 H   0  0  0  0  0  0  0  0  0  0  0  0
   -1.6658    1.7256    4.3096 H   0  0  0  0  0  0  0  0  0  0  0  0
   -1.0621    0.2833    3.5074 H   0  0  0  0  0  0  0  0  0  0  0  0
   -2.9010   -0.9859    2.8933 H   0  0  0  0  0  0  0  0  0  0  0  0
   -5.1026   -1.2293    1.7408 H   0  0  0  0  0  0  0  0  0  0  0  0
   -5.1365    3.0126    0.9328 H   0  0  0  0  0  0  0  0  0  0  0  0
   -2.9520    3.2492    2.1006 H   0  0  0  0  0  0  0  0  0  0  0  0
    0.0238    3.3122    4.3840 H   0  0  0  0  0  0  0  0  0  0  0  0
    1.4368    3.5132    0.4367 H   0  0  0  0  0  0  0  0  0  0  0  0
  1  2  1  0
  1  7  1  0
  1 15  1  0
  2  3  1  0
  2 30  1  0
  2 31  1  0
  3  4  1  0
  3 32  1  0
  3 33  1  0
  4  5  1  0
  4  8  1  0
  5  6  2  0
  5  7  1  0
  7 34  1  0
  7 35  1  0
  8  9  2  0
  8 13  1  0
  9 10  1  0
  9 36  1  0
 10 11  2  0
 10 14  1  0
 11 12  1  0
 11 37  1  0
 12 13  2  0
 12 38  1  0
 13 39  1  0
 15 16  1  0
 15 40  1  0
 15 41  1  0
 16 17  1  0
 16 29  2  0
 17 18  1  0
 17 27  1  0
 18 19  1  0
 18 42  1  0
 18 43  1  0
 19 20  2  0
 19 24  1  0
 20 21  1  0
 20 44  1  0
 21 22  2  0
 21 45  1  0
 22 23  1  0
 22 25  1  0
 23 24  2  0
 23 46  1  0
 24 47  1  0
 25 26  3  0
 27 28  2  0
 27 48  1  0
 28 29  1  0
 29 49  1  0
M  END

