rmsd50.gzmat
 OpenBabel08211713423D

 49 51  0  0  1  0  0  0  0  0999 V2000
    0.0000    0.0000    0.0000 N   0  0  0  0  0  0  0  0  0  0  0  0
    1.4723    0.0000    0.0000 C   0  0  0  0  0  0  0  0  0  0  0  0
    2.0800    0.0000    1.4171 C   0  0  0  0  0  0  0  0  0  0  0  0
    1.4625   -1.0242    2.2771 N   0  0  0  0  0  0  0  0  0  0  0  0
    0.1941   -1.5351    2.0168 C   0  0  0  0  0  0  0  0  0  0  0  0
   -0.3534   -2.2651    2.8148 O   0  0  0  0  0  0  0  0  0  0  0  0
   -0.4724   -1.2129    0.6837 C   0  0  0  0  0  0  0  0  0  0  0  0
    2.1211   -1.3000    3.5044 C   0  0  0  0  0  0  0  0  0  0  0  0
    2.8617   -0.2948    4.1455 C   0  0  0  0  0  0  0  0  0  0  0  0
    3.5237   -0.6218    5.3186 C   0  0  0  0  0  0  0  0  0  0  0  0
    3.4865   -1.8837    5.8902 C   0  0  0  0  0  0  0  0  0  0  0  0
    2.7340   -2.8675    5.2465 C   0  0  0  0  0  0  0  0  0  0  0  0
    2.0578   -2.5878    4.0645 C   0  0  0  0  0  0  0  0  0  0  0  0
    4.4294    0.6080    6.0964 Cl  0  0  0  0  0  0  0  0  0  0  0  0
   -0.5999    1.2140    0.6178 C   0  0  0  0  0  0  0  0  0  0  0  0
   -0.0871    2.4426   -0.0335 C   0  0  2  0  0  0  0  0  0  0  0  0
    0.3356    3.5883    0.6485 N   0  0  0  0  0  0  0  0  0  0  0  0
    0.4158    3.7743    2.0861 C   0  0  0  0  0  0  0  0  0  0  0  0
    1.7800    3.4974    2.6706 C   0  0  0  0  0  0  0  0  0  0  0  0
    2.9211    3.3561    1.8827 C   0  0  0  0  0  0  0  0  0  0  0  0
    4.1635    3.1615    2.4808 C   0  0  0  0  0  0  0  0  0  0  0  0
    4.2642    3.1207    3.8744 C   0  0  0  0  0  0  0  0  0  0  0  0
    3.1183    3.2481    4.6685 C   0  0  0  0  0  0  0  0  0  0  0  0
    1.8790    3.4252    4.0639 C   0  0  0  0  0  0  0  0  0  0  0  0
    5.5377    2.9650    4.4870 C   0  0  0  0  0  0  0  0  0  0  0  0
    6.5768    2.8489    4.9845 N   0  0  0  0  0  0  0  0  0  0  0  0
    0.7296    4.5239   -0.3133 C   0  0  0  0  0  0  0  0  0  0  0  0
    0.5593    4.0162   -1.5431 N   0  0  0  0  0  0  0  0  0  0  0  0
    0.0520    2.7369   -1.3938 C   0  0  0  0  0  0  0  0  0  0  0  0
    1.8387    0.8867   -0.5666 H   0  0  0  0  0  0  0  0  0  0  0  0
    1.8110   -0.8931   -0.5747 H   0  0  0  0  0  0  0  0  0  0  0  0
    3.1772   -0.1922    1.3552 H   0  0  0  0  0  0  0  0  0  0  0  0
    1.9483    1.0074    1.8789 H   0  0  0  0  0  0  0  0  0  0  0  0
   -0.3051   -2.0791   -0.0066 H   0  0  0  0  0  0  0  0  0  0  0  0
   -1.5772   -1.1697    0.8335 H   0  0  0  0  0  0  0  0  0  0  0  0
    2.9069    0.7167    3.7479 H   0  0  0  0  0  0  0  0  0  0  0  0
    4.0223   -2.1086    6.8105 H   0  0  0  0  0  0  0  0  0  0  0  0
    2.6764   -3.8696    5.6740 H   0  0  0  0  0  0  0  0  0  0  0  0
    1.4699   -3.3690    3.5778 H   0  0  0  0  0  0  0  0  0  0  0  0
   -0.4571    1.2423    1.7231 H   0  0  0  0  0  0  0  0  0  0  0  0
   -1.7067    1.1449    0.4416 H   0  0  0  0  0  0  0  0  0  0  0  0
   -0.3548    3.1350    2.5886 H   0  0  0  0  0  0  0  0  0  0  0  0
    0.1301    4.8334    2.3288 H   0  0  0  0  0  0  0  0  0  0  0  0
    2.8540    3.4056    0.7938 H   0  0  0  0  0  0  0  0  0  0  0  0
    5.0573    3.0524    1.8636 H   0  0  0  0  0  0  0  0  0  0  0  0
    3.1985    3.2129    5.7575 H   0  0  0  0  0  0  0  0  0  0  0  0
    0.9878    3.5162    4.6856 H   0  0  0  0  0  0  0  0  0  0  0  0
    1.1002    5.5052   -0.0769 H   0  0  0  0  0  0  0  0  0  0  0  0
   -0.1756    2.1189   -2.2421 H   0  0  0  0  0  0  0  0  0  0  0  0
  1  2  1  0  0  0  0
  1 15  1  0  0  0  0
  1  7  1  0  0  0  0
  2  3  1  0  0  0  0
  3 33  1  0  0  0  0
  3  4  1  0  0  0  0
  4  8  1  0  0  0  0
  5  4  1  0  0  0  0
  5  6  2  0  0  0  0
  7 35  1  0  0  0  0
  7  5  1  0  0  0  0
  8 13  2  0  0  0  0
  8  9  1  0  0  0  0
  9 10  2  0  0  0  0
 10 11  1  0  0  0  0
 10 14  1  0  0  0  0
 11 37  1  0  0  0  0
 12 38  1  0  0  0  0
 12 11  2  0  0  0  0
 13 12  1  0  0  0  0
 15 40  1  0  0  0  0
 16 15  1  6  0  0  0
 16 17  1  0  0  0  0
 17 18  1  0  0  0  0
 18 43  1  0  0  0  0
 18 42  1  0  0  0  0
 18 19  1  0  0  0  0
 19 24  2  0  0  0  0
 20 21  2  0  0  0  0
 20 19  1  0  0  0  0
 21 22  1  0  0  0  0
 22 25  1  0  0  0  0
 22 23  2  0  0  0  0
 23 46  1  0  0  0  0
 24 23  1  0  0  0  0
 24 47  1  0  0  0  0
 25 26  3  0  0  0  0
 27 48  1  0  0  0  0
 27 17  1  0  0  0  0
 28 29  2  0  0  0  0
 28 27  2  0  0  0  0
 29 16  1  0  0  0  0
 30  2  1  0  0  0  0
 31  2  1  0  0  0  0
 32  3  1  0  0  0  0
 34  7  1  0  0  0  0
 36  9  1  0  0  0  0
 39 13  1  0  0  0  0
 41 15  1  0  0  0  0
 45 21  1  0  0  0  0
 49 29  1  0  0  0  0
M  RAD  3  16   2  20   2  44   2
M  END
$$$$
