49
rmsd76.gzmat
N          0.00000        0.00000        0.00000
C          1.47540        0.00000        0.00000
C          2.08620        0.00000        1.41970
N          1.40890       -0.95490        2.31610
C          0.13660       -1.45030        2.05020
O         -0.47030       -2.07190        2.89940
C         -0.45830       -1.22450        0.66760
C          1.94070       -1.07050        3.63190
C          2.48700        0.04770        4.27720
C          2.97470       -0.11670        5.56530
C          2.96290       -1.33370        6.23030
C          2.42320       -2.43810        5.56890
C          1.91000       -2.31520        4.28190
Cl         3.57130        1.26680        6.36950
C         -0.53710        1.23310        0.63810
C         -2.01390        1.29520        0.54090
N         -2.91700        1.02050        1.57380
C         -2.63840        0.47520        2.89390
C         -1.66610        1.27390        3.72060
C         -1.48180        2.64420        3.53610
C         -0.57380        3.33710        4.33050
C          0.13490        2.65910        5.32800
C         -0.06880        1.29030        5.53240
C         -0.96140        0.59920        4.72070
C          1.06040        3.36780        6.14190
N          1.80930        3.95190        6.80370
C         -4.19900        1.27040        1.07890
N         -4.13090        1.68270       -0.19740
C         -2.79380        1.70290       -0.54790
H          1.83960        0.88410       -0.56830
H          1.81570       -0.89380       -0.57200
H          3.16680       -0.27050        1.36800
H          2.02990        1.02890        1.84830
H         -0.20680       -2.09860        0.01630
H         -1.57290       -1.22730        0.73010
H          2.50700        1.02500        3.79910
H          3.35820       -1.43160        7.24020
H          2.39910       -3.40800        6.06780
H          1.46990       -3.17930        3.78010
H         -0.10450        2.10200        0.07710
H         -0.20400        1.34800        1.69720
H         -2.26990       -0.58300        2.78100
H         -3.60240        0.39220        3.46360
H         -2.04900        3.17560        2.76960
H         -0.42090        4.40690        4.18190
H          0.47190        0.76520        6.32200
H         -1.09950       -0.47740        4.86140
H         -5.09870        1.14750        1.65430
H         -2.47840        1.99330       -1.53110
