49

N          0.30890        0.16190        0.18060
C          1.75960        0.15870        0.28270
C          2.23480        0.01450        1.72460
N          1.56690       -1.08800        2.43810
C          0.34740       -1.60140        2.01720
O         -0.27510       -2.44890        2.62940
C         -0.18910       -1.10670        0.66840
C          2.13400       -1.47850        3.68580
C          2.85300       -0.53050        4.43150
C          3.42780       -0.89140        5.64960
C          3.31830       -2.18650        6.15210
C          2.61040       -3.12570        5.39740
C          2.02180       -2.79100        4.17880
Cl         4.30310        0.32110        6.56390
C         -0.34150        1.32230        0.77760
C         -0.07100        2.56690       -0.01080
N          0.09910        3.82540        0.54920
C          0.29530        4.14050        1.94850
C          1.65740        3.71990        2.47080
C          2.76160        3.64240        1.61040
C          4.01450        3.27730        2.09600
C          4.18410        2.98270        3.46100
C          3.07990        3.05770        4.32910
C          1.83040        3.41950        3.82890
C          5.47710        2.59880        3.95210
N          6.53090        2.29290        4.32920
C          0.27680        4.70120       -0.49540
N          0.22090        4.09690       -1.65850
C          0.00410        2.77060       -1.37470
H          2.16820        1.09010       -0.13590
H          2.14280       -0.67380       -0.33030
H          3.32040       -0.16580        1.74770
H          2.06440        0.96180        2.25890
H          0.05530       -1.90040       -0.06130
H         -1.28380       -1.09430        0.75960
H          2.95810        0.49270        4.08680
H          3.77860       -2.44860        7.10500
H          2.51750       -4.14900        5.76860
H          1.46400       -3.53460        3.61800
H         -0.06850        1.47920        1.84390
H         -1.42560        1.11690        0.78080
H         -0.50010        3.68210        2.55520
H          0.17850        5.23120        2.05770
H          2.63830        3.86120        0.54810
H          4.87040        3.21560        1.42190
H          3.20560        2.80240        5.38170
H          0.97410        3.45910        4.50720
H          0.43760        5.76650       -0.32400
H         -0.09160        2.01530       -2.15260
