49
rmsd59.gzmat
N          0.00000        0.00000        0.00000
C          1.47490        0.00000        0.00000
C          2.09160        0.00000        1.41770
N          1.39470       -0.92090        2.33400
C          0.12600       -1.42370        2.06580
O         -0.48820       -2.02830        2.92170
C         -0.45830       -1.22040        0.67540
C          1.91020       -1.00430        3.65870
C          2.46380        0.12510        4.27750
C          2.92720       -0.00580        5.57840
C          2.88530       -1.20050        6.28110
C          2.34110       -2.31760        5.64510
C          1.85220       -2.22770        4.34600
Cl         3.53040        1.39370        6.35010
C         -0.53830        1.23650        0.63000
C         -2.01630        1.28540        0.54810
N         -2.90670        1.03930        1.59900
C         -2.61340        0.53200        2.93100
C         -1.63820        1.35530        3.72930
C         -1.43300        2.71340        3.48590
C         -0.52450        3.42950        4.25910
C          0.16190        2.78970        5.29660
C         -0.06230        1.43410        5.55940
C         -0.95280        0.71770        4.76740
C          1.08490        3.52320        6.09080
N          1.83090        4.12710        6.73750
C         -4.19540        1.26350        1.10920
N         -4.14330        1.63220       -0.18110
C         -2.81010        1.64970       -0.54630
H          1.83890        0.88400       -0.56880
H          1.81340       -0.89380       -0.57250
H          3.16350       -0.30350        1.36360
H          2.06900        1.03610        1.83110
H         -0.19700       -2.10040        0.03650
H         -1.57370       -1.22690        0.72900
H          2.50610        1.08660        3.77010
H          3.26070       -1.27250        7.30070
H          2.29370       -3.27080        6.17330
H          1.40820       -3.10130        3.86390
H         -0.11800        2.10130        0.05350
H         -0.19310        1.36710        1.68300
H         -2.24200       -0.52780        2.84300
H         -3.57250        0.46050        3.51120
H         -1.98550        3.21810        2.69110
H         -0.35380        4.48880        4.06190
H          0.46180        0.93870        6.37870
H         -1.10510       -0.34970        4.95380
H         -5.08810        1.15450        1.69830
H         -2.50590        1.90730       -1.54220
