rmsd59.gzmat
 OpenBabel08211713423D

 49 52  0  0  1  0  0  0  0  0999 V2000
    0.0000    0.0000    0.0000 N   0  0  0  0  0  0  0  0  0  0  0  0
    1.4749    0.0000    0.0000 C   0  0  0  0  0  0  0  0  0  0  0  0
    2.0916    0.0000    1.4177 C   0  0  0  0  0  0  0  0  0  0  0  0
    1.3947   -0.9209    2.3340 N   0  0  0  0  0  0  0  0  0  0  0  0
    0.1260   -1.4237    2.0658 C   0  0  0  0  0  0  0  0  0  0  0  0
   -0.4882   -2.0283    2.9217 O   0  0  0  0  0  0  0  0  0  0  0  0
   -0.4583   -1.2204    0.6754 C   0  0  0  0  0  0  0  0  0  0  0  0
    1.9102   -1.0043    3.6587 C   0  0  0  0  0  0  0  0  0  0  0  0
    2.4638    0.1251    4.2775 C   0  0  0  0  0  0  0  0  0  0  0  0
    2.9272   -0.0058    5.5784 C   0  0  0  0  0  0  0  0  0  0  0  0
    2.8853   -1.2005    6.2811 C   0  0  0  0  0  0  0  0  0  0  0  0
    2.3411   -2.3176    5.6451 C   0  0  0  0  0  0  0  0  0  0  0  0
    1.8522   -2.2277    4.3460 C   0  0  0  0  0  0  0  0  0  0  0  0
    3.5304    1.3937    6.3501 Cl  0  0  0  0  0  0  0  0  0  0  0  0
   -0.5383    1.2365    0.6300 C   0  0  0  0  0  0  0  0  0  0  0  0
   -2.0163    1.2854    0.5481 C   0  0  1  0  0  0  0  0  0  0  0  0
   -2.9067    1.0393    1.5990 N   0  0  0  0  0  0  0  0  0  0  0  0
   -2.6134    0.5320    2.9310 C   0  0  0  0  0  0  0  0  0  0  0  0
   -1.6382    1.3553    3.7293 C   0  0  0  0  0  0  0  0  0  0  0  0
   -1.4330    2.7134    3.4859 C   0  0  0  0  0  0  0  0  0  0  0  0
   -0.5245    3.4295    4.2591 C   0  0  0  0  0  0  0  0  0  0  0  0
    0.1619    2.7897    5.2966 C   0  0  0  0  0  0  0  0  0  0  0  0
   -0.0623    1.4341    5.5594 C   0  0  0  0  0  0  0  0  0  0  0  0
   -0.9528    0.7177    4.7674 C   0  0  0  0  0  0  0  0  0  0  0  0
    1.0849    3.5232    6.0908 C   0  0  0  0  0  0  0  0  0  0  0  0
    1.8309    4.1271    6.7375 N   0  0  0  0  0  0  0  0  0  0  0  0
   -4.1954    1.2635    1.1092 C   0  0  0  0  0  0  0  0  0  0  0  0
   -4.1433    1.6322   -0.1811 N   0  0  0  0  0  0  0  0  0  0  0  0
   -2.8101    1.6497   -0.5463 C   0  0  0  0  0  0  0  0  0  0  0  0
    1.8389    0.8840   -0.5688 H   0  0  0  0  0  0  0  0  0  0  0  0
    1.8134   -0.8938   -0.5725 H   0  0  0  0  0  0  0  0  0  0  0  0
    3.1635   -0.3035    1.3636 H   0  0  0  0  0  0  0  0  0  0  0  0
    2.0690    1.0361    1.8311 H   0  0  0  0  0  0  0  0  0  0  0  0
   -0.1970   -2.1004    0.0365 H   0  0  0  0  0  0  0  0  0  0  0  0
   -1.5737   -1.2269    0.7290 H   0  0  0  0  0  0  0  0  0  0  0  0
    2.5061    1.0866    3.7701 H   0  0  0  0  0  0  0  0  0  0  0  0
    3.2607   -1.2725    7.3007 H   0  0  0  0  0  0  0  0  0  0  0  0
    2.2937   -3.2708    6.1733 H   0  0  0  0  0  0  0  0  0  0  0  0
    1.4082   -3.1013    3.8639 H   0  0  0  0  0  0  0  0  0  0  0  0
   -0.1180    2.1013    0.0535 H   0  0  0  0  0  0  0  0  0  0  0  0
   -0.1931    1.3671    1.6830 H   0  0  0  0  0  0  0  0  0  0  0  0
   -2.2420   -0.5278    2.8430 H   0  0  0  0  0  0  0  0  0  0  0  0
   -3.5725    0.4605    3.5112 H   0  0  0  0  0  0  0  0  0  0  0  0
   -1.9855    3.2181    2.6911 H   0  0  0  0  0  0  0  0  0  0  0  0
   -0.3538    4.4888    4.0619 H   0  0  0  0  0  0  0  0  0  0  0  0
    0.4618    0.9387    6.3787 H   0  0  0  0  0  0  0  0  0  0  0  0
   -1.1051   -0.3497    4.9538 H   0  0  0  0  0  0  0  0  0  0  0  0
   -5.0881    1.1545    1.6983 H   0  0  0  0  0  0  0  0  0  0  0  0
   -2.5059    1.9073   -1.5422 H   0  0  0  0  0  0  0  0  0  0  0  0
  1  2  1  0  0  0  0
  1 15  1  0  0  0  0
  1  7  1  0  0  0  0
  2  3  1  0  0  0  0
  3 33  1  0  0  0  0
  3  4  1  0  0  0  0
  4  8  1  0  0  0  0
  5  4  1  0  0  0  0
  5  6  2  0  0  0  0
  7 35  1  0  0  0  0
  7  5  1  0  0  0  0
  8  9  2  0  0  0  0
  8 13  1  0  0  0  0
  9 10  1  0  0  0  0
 10 11  2  0  0  0  0
 10 14  1  0  0  0  0
 11 37  1  0  0  0  0
 12 38  1  0  0  0  0
 12 11  1  0  0  0  0
 13 12  2  0  0  0  0
 15 41  1  0  0  0  0
 16 15  1  1  0  0  0
 16 17  1  0  0  0  0
 17 18  1  0  0  0  0
 18 43  1  0  0  0  0
 18 19  1  0  0  0  0
 19 24  1  0  0  0  0
 20 19  2  0  0  0  0
 20 21  1  0  0  0  0
 21 22  2  0  0  0  0
 22 23  1  0  0  0  0
 22 25  1  0  0  0  0
 23 46  1  0  0  0  0
 24 47  1  0  0  0  0
 24 23  2  0  0  0  0
 25 26  3  0  0  0  0
 27 17  1  0  0  0  0
 27 48  1  0  0  0  0
 28 27  2  0  0  0  0
 29 28  2  0  0  0  0
 29 16  1  0  0  0  0
 30  2  1  0  0  0  0
 31  2  1  0  0  0  0
 32  3  1  0  0  0  0
 34  7  1  0  0  0  0
 36  9  1  0  0  0  0
 39 13  1  0  0  0  0
 40 15  1  0  0  0  0
 42 18  1  0  0  0  0
 44 20  1  0  0  0  0
 45 21  1  0  0  0  0
 49 29  1  0  0  0  0
M  RAD  1  16   2
M  END
$$$$
