rmsd198.gzmat
 OpenBabel08211713423D

 49 52  0  0  1  0  0  0  0  0999 V2000
    0.0000    0.0000    0.0000 N   0  0  0  0  0  0  0  0  0  0  0  0
    1.4676    0.0000    0.0000 C   0  0  0  0  0  0  0  0  0  0  0  0
    2.1466    0.0000    1.3935 C   0  0  0  0  0  0  0  0  0  0  0  0
    1.4083   -0.7811    2.3965 N   0  0  0  0  0  0  0  0  0  0  0  0
    0.1243   -1.2527    2.1903 C   0  0  0  0  0  0  0  0  0  0  0  0
   -0.4769   -1.8138    3.0867 O   0  0  0  0  0  0  0  0  0  0  0  0
   -0.4998   -1.1106    0.8137 C   0  0  0  0  0  0  0  0  0  0  0  0
    1.8733   -0.6951    3.7473 C   0  0  0  0  0  0  0  0  0  0  0  0
    2.0940    0.5515    4.3445 C   0  0  0  0  0  0  0  0  0  0  0  0
    2.4255    0.5737    5.6901 C   0  0  0  0  0  0  0  0  0  0  0  0
    2.6211   -0.5781    6.4399 C   0  0  0  0  0  0  0  0  0  0  0  0
    2.4331   -1.8109    5.8149 C   0  0  0  0  0  0  0  0  0  0  0  0
    2.0439   -1.8775    4.4796 C   0  0  0  0  0  0  0  0  0  0  0  0
    2.5062    2.0949    6.4657 Cl  0  0  0  0  0  0  0  0  0  0  0  0
   -0.6528    1.3020    0.2611 C   0  0  0  0  0  0  0  0  0  0  0  0
    0.0095    2.2287    1.2112 C   0  0  2  0  0  0  0  0  0  0  0  0
   -0.3272    2.4476    2.5489 N   0  0  0  0  0  0  0  0  0  0  0  0
   -1.4624    1.8583    3.2578 C   0  0  0  0  0  0  0  0  0  0  0  0
   -1.1836    1.6927    4.7305 C   0  0  0  0  0  0  0  0  0  0  0  0
   -1.1091    2.8127    5.5633 C   0  0  0  0  0  0  0  0  0  0  0  0
   -0.7481    2.6661    6.8980 C   0  0  0  0  0  0  0  0  0  0  0  0
   -0.4980    1.3872    7.4083 C   0  0  0  0  0  0  0  0  0  0  0  0
   -0.6566    0.2587    6.5995 C   0  0  0  0  0  0  0  0  0  0  0  0
   -1.0005    0.4164    5.2592 C   0  0  0  0  0  0  0  0  0  0  0  0
   -0.0557    1.2335    8.7505 C   0  0  0  0  0  0  0  0  0  0  0  0
    0.3205    1.1035    9.8376 N   0  0  0  0  0  0  0  0  0  0  0  0
    0.5654    3.3971    3.0491 C   0  0  0  0  0  0  0  0  0  0  0  0
    1.4264    3.7758    2.0893 N   0  0  0  0  0  0  0  0  0  0  0  0
    1.0937    3.0784    0.9467 C   0  0  0  0  0  0  0  0  0  0  0  0
    1.8338    0.8745   -0.5828 H   0  0  0  0  0  0  0  0  0  0  0  0
    1.7842   -0.9083   -0.5685 H   0  0  0  0  0  0  0  0  0  0  0  0
    3.1703   -0.4364    1.3051 H   0  0  0  0  0  0  0  0  0  0  0  0
    2.2814    1.0498    1.7482 H   0  0  0  0  0  0  0  0  0  0  0  0
   -0.3103   -2.0573    0.2430 H   0  0  0  0  0  0  0  0  0  0  0  0
   -1.6081   -1.0540    0.9195 H   0  0  0  0  0  0  0  0  0  0  0  0
    1.9745    1.4753    3.7785 H   0  0  0  0  0  0  0  0  0  0  0  0
    2.9026   -0.5280    7.4916 H   0  0  0  0  0  0  0  0  0  0  0  0
    2.5753   -2.7319    6.3816 H   0  0  0  0  0  0  0  0  0  0  0  0
    1.8463   -2.8389    4.0049 H   0  0  0  0  0  0  0  0  0  0  0  0
   -1.7182    1.1260    0.5382 H   0  0  0  0  0  0  0  0  0  0  0  0
   -0.6976    1.8038   -0.7463 H   0  0  0  0  0  0  0  0  0  0  0  0
   -1.7098    0.8690    2.7959 H   0  0  0  0  0  0  0  0  0  0  0  0
   -2.3615    2.5095    3.1048 H   0  0  0  0  0  0  0  0  0  0  0  0
   -1.3272    3.8055    5.1696 H   0  0  0  0  0  0  0  0  0  0  0  0
   -0.6504    3.5405    7.5421 H   0  0  0  0  0  0  0  0  0  0  0  0
   -0.4953   -0.7411    7.0056 H   0  0  0  0  0  0  0  0  0  0  0  0
   -1.1081   -0.4730    4.6288 H   0  0  0  0  0  0  0  0  0  0  0  0
    0.5724    3.7630    4.0631 H   0  0  0  0  0  0  0  0  0  0  0  0
    1.6289    3.2281    0.0299 H   0  0  0  0  0  0  0  0  0  0  0  0
  1 15  1  0  0  0  0
  1  7  1  0  0  0  0
  2  1  1  0  0  0  0
  2  3  1  0  0  0  0
  3 33  1  0  0  0  0
  3  4  1  0  0  0  0
  4  8  1  0  0  0  0
  5  4  1  0  0  0  0
  5  6  2  0  0  0  0
  7 35  1  0  0  0  0
  7  5  1  0  0  0  0
  8  9  2  0  0  0  0
  8 13  1  0  0  0  0
  9 10  1  0  0  0  0
 10 11  2  0  0  0  0
 10 14  1  0  0  0  0
 11 37  1  0  0  0  0
 12 38  1  0  0  0  0
 12 11  1  0  0  0  0
 13 12  2  0  0  0  0
 15 40  1  0  0  0  0
 16 15  1  6  0  0  0
 16 17  1  0  0  0  0
 17 27  1  0  0  0  0
 17 18  1  0  0  0  0
 18 19  1  0  0  0  0
 19 24  2  0  0  0  0
 19 20  1  0  0  0  0
 20 21  2  0  0  0  0
 21 22  1  0  0  0  0
 21 45  1  0  0  0  0
 22 25  1  0  0  0  0
 23 46  1  0  0  0  0
 23 22  2  0  0  0  0
 24 23  1  0  0  0  0
 25 26  3  0  0  0  0
 27 48  1  0  0  0  0
 28 27  2  0  0  0  0
 29 16  1  0  0  0  0
 29 28  2  0  0  0  0
 30  2  1  0  0  0  0
 31  2  1  0  0  0  0
 32  3  1  0  0  0  0
 34  7  1  0  0  0  0
 36  9  1  0  0  0  0
 39 13  1  0  0  0  0
 41 15  1  0  0  0  0
 42 18  1  0  0  0  0
 43 18  1  0  0  0  0
 44 20  1  0  0  0  0
 47 24  1  0  0  0  0
 49 29  1  0  0  0  0
M  RAD  1  16   2
M  END
$$$$
