rmsd197.gzmat
 OpenBabel08211713423D

 41 43  0  0  1  0  0  0  0  0999 V2000
    0.0000    0.0000    0.0000 C   0  0  0  0  0  0  0  0  0  0  0  0
    1.3999    0.0000    0.0000 C   0  0  0  0  0  0  0  0  0  0  0  0
    2.0989    0.0000    1.1995 C   0  0  0  0  0  0  0  0  0  0  0  0
    1.3921   -0.0227    2.4240 C   0  0  0  0  0  0  0  0  0  0  0  0
   -0.0028   -0.0216    2.4147 C   0  0  0  0  0  0  0  0  0  0  0  0
   -0.6956   -0.0069    1.2039 C   0  0  0  0  0  0  0  0  0  0  0  0
    1.9120   -0.0093    3.6789 O   0  0  0  0  0  0  0  0  0  0  0  0
    3.2974   -0.2905    3.8291 C   0  0  0  0  0  0  0  0  0  0  0  0
    3.4513    0.0247    1.3090 O   0  0  0  0  0  0  0  0  0  0  0  0
    4.2303    0.0779    0.1071 C   0  0  0  0  0  0  0  0  0  0  0  0
    5.6434    0.4010    0.6276 C   0  0  0  0  0  0  0  0  0  0  0  0
    6.5777   -0.6382   -0.0081 C   0  0  0  0  0  0  0  0  0  0  0  0
    5.6942   -1.8528   -0.3416 C   0  0  0  0  0  0  0  0  0  0  0  0
    4.2784   -1.3003   -0.5712 C   0  0  0  0  0  0  0  0  0  0  0  0
   -0.7386    0.0087   -1.3060 C   0  0  2  0  0  0  0  0  0  0  0  0
   -1.8370    0.0494   -1.1299 H   0  0  0  0  0  0  0  0  0  0  0  0
   -0.3917   -1.2367   -2.1550 C   0  0  0  0  0  0  0  0  0  0  0  0
    0.3840   -0.7197   -3.3490 C   0  0  0  0  0  0  0  0  0  0  0  0
    0.9199   -1.3665   -4.2178 O   0  0  0  0  0  0  0  0  0  0  0  0
    0.4097    0.6627   -3.3207 N   0  0  0  0  0  0  0  0  0  0  0  0
   -0.3122    1.2348   -2.1778 C   0  0  0  0  0  0  0  0  0  0  0  0
    1.9260   -0.0015   -0.9530 H   0  0  0  0  0  0  0  0  0  0  0  0
   -0.5395   -0.0316    3.3624 H   0  0  0  0  0  0  0  0  0  0  0  0
   -1.7832   -0.0046    1.2153 H   0  0  0  0  0  0  0  0  0  0  0  0
    3.3913   -0.4064    4.9170 H   0  0  0  0  0  0  0  0  0  0  0  0
    3.8948    0.5566    3.4749 H   0  0  0  0  0  0  0  0  0  0  0  0
    3.5799   -1.2137    3.3140 H   0  0  0  0  0  0  0  0  0  0  0  0
    3.8291    0.8733   -0.5493 H   0  0  0  0  0  0  0  0  0  0  0  0
    5.6664    0.3303    1.7321 H   0  0  0  0  0  0  0  0  0  0  0  0
    5.9403    1.4312    0.3818 H   0  0  0  0  0  0  0  0  0  0  0  0
    7.0455   -0.2349   -0.9228 H   0  0  0  0  0  0  0  0  0  0  0  0
    7.4036   -0.9096    0.6670 H   0  0  0  0  0  0  0  0  0  0  0  0
    6.0667   -2.3961   -1.2239 H   0  0  0  0  0  0  0  0  0  0  0  0
    5.6989   -2.5754    0.4926 H   0  0  0  0  0  0  0  0  0  0  0  0
    4.0562   -1.2178   -1.6490 H   0  0  0  0  0  0  0  0  0  0  0  0
    3.5120   -1.9746   -0.1505 H   0  0  0  0  0  0  0  0  0  0  0  0
   -1.2952   -1.7759   -2.4899 H   0  0  0  0  0  0  0  0  0  0  0  0
    0.2061   -1.9777   -1.5910 H   0  0  0  0  0  0  0  0  0  0  0  0
    0.8436    1.2384   -4.0090 H   0  0  0  0  0  0  0  0  0  0  0  0
    0.3398    1.9329   -1.6119 H   0  0  0  0  0  0  0  0  0  0  0  0
   -1.1974    1.8081   -2.5198 H   0  0  0  0  0  0  0  0  0  0  0  0
  1  2  2  0  0  0  0
  1  6  1  0  0  0  0
  2  3  1  0  0  0  0
  3  9  1  0  0  0  0
  3  4  2  0  0  0  0
  4  7  1  0  0  0  0
  5  4  1  0  0  0  0
  5 23  1  0  0  0  0
  6 24  1  0  0  0  0
  6  5  2  0  0  0  0
  7  8  1  0  0  0  0
  8 25  1  0  0  0  0
 10 11  1  0  0  0  0
 10  9  1  0  0  0  0
 11 29  1  0  0  0  0
 12 11  1  0  0  0  0
 12 32  1  0  0  0  0
 13 12  1  0  0  0  0
 13 34  1  0  0  0  0
 14 13  1  0  0  0  0
 14 36  1  0  0  0  0
 14 10  1  0  0  0  0
 15 16  1  1  0  0  0
 15  1  1  0  0  0  0
 17 38  1  0  0  0  0
 17 15  1  0  0  0  0
 18 20  1  0  0  0  0
 18 17  1  0  0  0  0
 19 18  2  0  0  0  0
 20 21  1  0  0  0  0
 21 40  1  0  0  0  0
 21 15  1  0  0  0  0
 22  2  1  0  0  0  0
 26  8  1  0  0  0  0
 27  8  1  0  0  0  0
 28 10  1  0  0  0  0
 30 11  1  0  0  0  0
 31 12  1  0  0  0  0
 33 13  1  0  0  0  0
 35 14  1  0  0  0  0
 37 17  1  0  0  0  0
 39 20  1  0  0  0  0
 41 21  1  0  0  0  0
M  END
$$$$
