41
rmsd206.gzmat
C          0.00000        0.00000        0.00000
C          1.40010        0.00000        0.00000
C          2.09790        0.00000        1.20040
C          1.39030       -0.00410        2.42460
C         -0.00480       -0.01190        2.41440
C         -0.69640       -0.00800        1.20370
O          1.90430        0.02760        3.68150
C          3.30390       -0.16070        3.83850
O          3.45020       -0.00470        1.31350
C          4.24090        0.09430        0.12260
C          4.14760        1.50480       -0.48250
C          5.55630        2.11510       -0.39270
C          6.29880        1.31020        0.68780
C          5.67460       -0.09200        0.65450
C         -0.74680        0.00540       -1.30080
H         -1.84450        0.03530       -1.11390
C         -0.39860       -1.23480       -2.15580
C          0.29630       -0.70480       -3.39210
O          0.77950       -1.34270       -4.29750
N          0.31700        0.67770       -3.35570
C         -0.34760        1.23910       -2.17400
H          1.92890        0.00180       -0.95120
H         -0.54190       -0.01910        3.36150
H         -1.78440       -0.01210        1.21410
H          3.40710       -0.20250        4.93100
H          3.85520        0.69290        3.42850
H          3.63190       -1.09890        3.37990
H          3.93520       -0.70910       -0.57470
H          3.42010        2.11340        0.08620
H          3.78590        1.48130       -1.52220
H          6.07660        2.03600       -1.36270
H          5.52020        3.18740       -0.14710
H          7.38390        1.28420        0.50870
H          6.15680        1.77290        1.68020
H          6.24180       -0.76760       -0.00700
H          5.67190       -0.56320        1.65280
H         -1.29630       -1.81230       -2.43760
H          0.25620       -1.94670       -1.61780
H          0.69730        1.25990       -4.07000
H          0.33510        1.92360       -1.62820
H         -1.24280        1.82370       -2.46820
