41
rmsd131.gzmat
C          0.00000        0.00000        0.00000
C          1.39920        0.00000        0.00000
C          2.10620        0.00000        1.19270
C          1.40000        0.00950        2.41890
C          0.00410        0.02060        2.41180
C         -0.69370        0.01470        1.20480
O          1.91040        0.01940        3.67710
C          3.32010       -0.05510        3.83510
O          3.45820       -0.01380        1.31340
C          4.32650        0.01720        0.18860
C          4.18860       -1.20660       -0.72360
C          4.15910       -0.68950       -2.16940
C          4.01630        0.84380       -2.12100
C          4.17850        1.28650       -0.65890
C         -0.73450       -0.01920       -1.30810
H         -1.83310       -0.07160       -1.13560
C         -0.28500       -1.20940       -2.18840
C          0.49070       -0.60050       -3.33760
O          1.12940       -1.17670       -4.18710
N          0.37520        0.77660       -3.29440
C         -0.40240        1.25870       -2.14580
H          1.92460       -0.00220       -0.95500
H         -0.52900        0.03190        3.36150
H         -1.78140        0.02000        1.21970
H          3.42490       -0.07190        4.92810
H          3.80560        0.83090        3.41210
H          3.71770       -0.97460        3.39260
H          5.29200        0.00740        0.75130
H          3.27690       -1.78010       -0.47670
H          5.02220       -1.91170       -0.56840
H          5.07940       -0.97640       -2.70550
H          3.33080       -1.14530       -2.74420
H          4.76780        1.32680       -2.76690
H          3.03570        1.15570       -2.52080
H          5.05790        1.94110       -0.53810
H          3.31700        1.88710       -0.31670
H         -1.14310       -1.78970       -2.57150
H          0.34130       -1.93300       -1.63310
H          0.79270        1.40450       -3.94650
H          0.18410        1.99240       -1.55410
H         -1.32850        1.76410       -2.48770
