rmsd143.gzmat
 OpenBabel08211713423D

 41 43  0  0  1  0  0  0  0  0999 V2000
    0.0000    0.0000    0.0000 C   0  0  0  0  0  0  0  0  0  0  0  0
    1.3990    0.0000    0.0000 C   0  0  0  0  0  0  0  0  0  0  0  0
    2.1040    0.0000    1.1941 C   0  0  0  0  0  0  0  0  0  0  0  0
    1.3976    0.0146    2.4203 C   0  0  0  0  0  0  0  0  0  0  0  0
    0.0015    0.0178    2.4123 C   0  0  0  0  0  0  0  0  0  0  0  0
   -0.6946    0.0086    1.2045 C   0  0  0  0  0  0  0  0  0  0  0  0
    1.9096    0.0383    3.6780 O   0  0  0  0  0  0  0  0  0  0  0  0
    3.3200   -0.0381    3.8333 C   0  0  0  0  0  0  0  0  0  0  0  0
    3.4561   -0.0040    1.3133 O   0  0  0  0  0  0  0  0  0  0  0  0
    4.3205   -0.1226    0.1909 C   0  0  0  0  0  0  0  0  0  0  0  0
    4.1011   -1.3998   -0.6274 C   0  0  0  0  0  0  0  0  0  0  0  0
    4.0587   -0.9907   -2.1070 C   0  0  0  0  0  0  0  0  0  0  0  0
    4.1399    0.5464   -2.1810 C   0  0  0  0  0  0  0  0  0  0  0  0
    4.2530    1.0878   -0.7480 C   0  0  0  0  0  0  0  0  0  0  0  0
   -0.7369   -0.0043   -1.3062 C   0  0  2  0  0  0  0  0  0  0  0  0
   -1.8341   -0.0769   -1.1336 H   0  0  0  0  0  0  0  0  0  0  0  0
   -0.2748   -1.1673   -2.2147 C   0  0  0  0  0  0  0  0  0  0  0  0
    0.4869   -0.5203   -3.3525 C   0  0  0  0  0  0  0  0  0  0  0  0
    1.1294   -1.0703   -4.2171 O   0  0  0  0  0  0  0  0  0  0  0  0
    0.3515    0.8533   -3.2778 N   0  0  0  0  0  0  0  0  0  0  0  0
   -0.4237    1.2982   -2.1130 C   0  0  0  0  0  0  0  0  0  0  0  0
    1.9271   -0.0018   -0.9540 H   0  0  0  0  0  0  0  0  0  0  0  0
   -0.5341    0.0245    3.3605 H   0  0  0  0  0  0  0  0  0  0  0  0
   -1.7825    0.0064    1.2172 H   0  0  0  0  0  0  0  0  0  0  0  0
    3.4287   -0.0486    4.9256 H   0  0  0  0  0  0  0  0  0  0  0  0
    3.8053    0.8446    3.4035 H   0  0  0  0  0  0  0  0  0  0  0  0
    3.7166   -0.9597    3.3953 H   0  0  0  0  0  0  0  0  0  0  0  0
    5.2852   -0.1528    0.7545 H   0  0  0  0  0  0  0  0  0  0  0  0
    3.1709   -1.9108   -0.3198 H   0  0  0  0  0  0  0  0  0  0  0  0
    4.9062   -2.1304   -0.4395 H   0  0  0  0  0  0  0  0  0  0  0  0
    4.8921   -1.4496   -2.6658 H   0  0  0  0  0  0  0  0  0  0  0  0
    3.1400   -1.3589   -2.6015 H   0  0  0  0  0  0  0  0  0  0  0  0
    5.0063    0.8578   -2.7884 H   0  0  0  0  0  0  0  0  0  0  0  0
    3.2541    0.9600   -2.6929 H   0  0  0  0  0  0  0  0  0  0  0  0
    5.1462    1.7248   -0.6323 H   0  0  0  0  0  0  0  0  0  0  0  0
    3.3985    1.7377   -0.4877 H   0  0  0  0  0  0  0  0  0  0  0  0
   -1.1259   -1.7515   -2.6071 H   0  0  0  0  0  0  0  0  0  0  0  0
    0.3639   -1.8944   -1.6787 H   0  0  0  0  0  0  0  0  0  0  0  0
    0.7658    1.5036   -3.9099 H   0  0  0  0  0  0  0  0  0  0  0  0
    0.1585    2.0231   -1.5061 H   0  0  0  0  0  0  0  0  0  0  0  0
   -1.3570    1.8023   -2.4362 H   0  0  0  0  0  0  0  0  0  0  0  0
  1  6  1  0  0  0  0
  2  1  2  0  0  0  0
  2  3  1  0  0  0  0
  3  9  1  0  0  0  0
  3  4  2  0  0  0  0
  4  7  1  0  0  0  0
  5  4  1  0  0  0  0
  5 23  1  0  0  0  0
  6 24  1  0  0  0  0
  6  5  2  0  0  0  0
  7  8  1  0  0  0  0
  8 25  1  0  0  0  0
 10 28  1  0  0  0  0
 10  9  1  0  0  0  0
 11 30  1  0  0  0  0
 11 29  1  0  0  0  0
 11 10  1  0  0  0  0
 12 11  1  0  0  0  0
 13 12  1  0  0  0  0
 13 14  1  0  0  0  0
 14 35  1  0  0  0  0
 14 36  1  0  0  0  0
 14 10  1  0  0  0  0
 15 16  1  1  0  0  0
 15  1  1  0  0  0  0
 17 38  1  0  0  0  0
 17 15  1  0  0  0  0
 18 20  1  0  0  0  0
 18 17  1  0  0  0  0
 19 18  2  0  0  0  0
 20 21  1  0  0  0  0
 21 40  1  0  0  0  0
 21 15  1  0  0  0  0
 22  2  1  0  0  0  0
 26  8  1  0  0  0  0
 27  8  1  0  0  0  0
 31 12  1  0  0  0  0
 32 12  1  0  0  0  0
 33 13  1  0  0  0  0
 34 13  1  0  0  0  0
 37 17  1  0  0  0  0
 39 20  1  0  0  0  0
 41 21  1  0  0  0  0
M  END
$$$$
