41

C         -0.04470        0.13740        0.07260
C          1.36010        0.12410        0.00180
C          2.15260        0.21240        1.15090
C          1.51610        0.32260        2.41490
C          0.12510        0.34440        2.47950
C         -0.65580        0.25580        1.32180
O          2.23360        0.45890        3.56750
C          3.02030       -0.65200        3.96760
O          3.50680        0.21920        1.17800
C          4.32890        0.09260        0.01780
C          4.22490       -1.24580       -0.74010
C          4.75760       -0.90050       -2.13590
C          4.16350        0.49230       -2.41370
C          4.17940        1.21610       -1.04930
C         -0.87740        0.01850       -1.18950
H         -1.93520       -0.03170       -0.89840
C         -0.47230       -1.19440       -2.05550
C          0.55050       -0.63640       -3.04400
O          1.37350       -1.25340       -3.69080
N          0.37280        0.72090       -3.05570
C         -0.66010        1.21330       -2.16370
H          1.83820        0.04660       -0.96770
H         -0.33250        0.43520        3.46660
H         -1.74570        0.26810        1.39890
H          3.47050       -0.38810        4.93480
H          3.81860       -0.87020        3.24180
H          2.39370       -1.55340        4.09920
H          5.33740        0.15960        0.45000
H          3.17870       -1.57530       -0.81300
H          4.78530       -2.04630       -0.23460
H          5.86080       -0.85040       -2.11850
H          4.46760       -1.63910       -2.89700
H          4.71360        1.04170       -3.19250
H          3.13480        0.36430       -2.78100
H          5.03130        1.90810       -0.97140
H          3.27510        1.81580       -0.87480
H         -1.32480       -1.57970       -2.64060
H         -0.04920       -2.03170       -1.48620
H          0.88460        1.30450       -3.70690
H         -0.33590        2.11830       -1.62790
H         -1.59150        1.45470       -2.70990
