41
rmsd143.gzmat
C          0.00000        0.00000        0.00000
C          1.39900        0.00000        0.00000
C          2.10400        0.00000        1.19410
C          1.39760        0.01460        2.42030
C          0.00150        0.01780        2.41230
C         -0.69460        0.00860        1.20450
O          1.90960        0.03830        3.67800
C          3.32000       -0.03810        3.83330
O          3.45610       -0.00400        1.31330
C          4.32050       -0.12260        0.19090
C          4.10110       -1.39980       -0.62740
C          4.05870       -0.99070       -2.10700
C          4.13990        0.54640       -2.18100
C          4.25300        1.08780       -0.74800
C         -0.73690       -0.00430       -1.30620
H         -1.83410       -0.07690       -1.13360
C         -0.27480       -1.16730       -2.21470
C          0.48690       -0.52030       -3.35250
O          1.12940       -1.07030       -4.21710
N          0.35150        0.85330       -3.27780
C         -0.42370        1.29820       -2.11300
H          1.92710       -0.00180       -0.95400
H         -0.53410        0.02450        3.36050
H         -1.78250        0.00640        1.21720
H          3.42870       -0.04860        4.92560
H          3.80530        0.84460        3.40350
H          3.71660       -0.95970        3.39530
H          5.28520       -0.15280        0.75450
H          3.17090       -1.91080       -0.31980
H          4.90620       -2.13040       -0.43950
H          4.89210       -1.44960       -2.66580
H          3.14000       -1.35890       -2.60150
H          5.00630        0.85780       -2.78840
H          3.25410        0.96000       -2.69290
H          5.14620        1.72480       -0.63230
H          3.39850        1.73770       -0.48770
H         -1.12590       -1.75150       -2.60710
H          0.36390       -1.89440       -1.67870
H          0.76580        1.50360       -3.90990
H          0.15850        2.02310       -1.50610
H         -1.35700        1.80230       -2.43620
