
     RDKit          3D

 41 43  0  0  0  0  0  0  0  0999 V2000
    0.0082   -0.1684    0.0361 C   0  0  0  0  0  0  0  0  0  0  0  0
    1.4129   -0.1843    0.0514 C   0  0  0  0  0  0  0  0  0  0  0  0
    2.1337   -0.1697    1.2486 C   0  0  0  0  0  0  0  0  0  0  0  0
    1.4312   -0.1179    2.4783 C   0  0  0  0  0  0  0  0  0  0  0  0
    0.0376   -0.0988    2.4593 C   0  0  0  0  0  0  0  0  0  0  0  0
   -0.6739   -0.1308    1.2545 C   0  0  0  0  0  0  0  0  0  0  0  0
    2.0768   -0.1480    3.6797 O   0  0  0  0  0  0  0  0  0  0  0  0
    2.9234    0.9496    3.9832 C   0  0  0  0  0  0  0  0  0  0  0  0
    3.4861   -0.2271    1.3150 O   0  0  0  0  0  0  0  0  0  0  0  0
    4.2487   -0.2144    0.1081 C   0  0  0  0  0  0  0  0  0  0  0  0
    5.7245   -0.0159    0.4772 C   0  0  0  0  0  0  0  0  0  0  0  0
    6.4892   -0.7625   -0.6194 C   0  0  0  0  0  0  0  0  0  0  0  0
    5.6496   -2.0350   -0.8047 C   0  0  0  0  0  0  0  0  0  0  0  0
    4.1902   -1.5442   -0.6992 C   0  0  0  0  0  0  0  0  0  0  0  0
   -0.7446   -0.1807   -1.2808 C   0  0  2  0  0  0  0  0  0  0  0  0
   -1.7961   -0.4261   -1.0781 H   0  0  0  0  0  0  0  0  0  0  0  0
   -0.1226   -1.1366   -2.3187 C   0  0  0  0  0  0  0  0  0  0  0  0
    0.8819   -0.2681   -3.0783 C   0  0  0  0  0  0  0  0  0  0  0  0
    1.8409   -0.6350   -3.7286 O   0  0  0  0  0  0  0  0  0  0  0  0
    0.4926    1.0272   -2.8762 N   0  0  0  0  0  0  0  0  0  0  0  0
   -0.6595    1.1936   -2.0106 C   0  0  0  0  0  0  0  0  0  0  0  0
    1.9600   -0.2437   -0.8842 H   0  0  0  0  0  0  0  0  0  0  0  0
   -0.4787   -0.0723    3.4210 H   0  0  0  0  0  0  0  0  0  0  0  0
   -1.7667   -0.1292    1.2699 H   0  0  0  0  0  0  0  0  0  0  0  0
    3.2977    0.7861    5.0034 H   0  0  0  0  0  0  0  0  0  0  0  0
    2.3612    1.9013    3.9575 H   0  0  0  0  0  0  0  0  0  0  0  0
    3.7748    1.0148    3.2887 H   0  0  0  0  0  0  0  0  0  0  0  0
    3.8956    0.6258   -0.5151 H   0  0  0  0  0  0  0  0  0  0  0  0
    5.8908   -0.5056    1.4509 H   0  0  0  0  0  0  0  0  0  0  0  0
    5.9987    1.0444    0.5822 H   0  0  0  0  0  0  0  0  0  0  0  0
    6.4926   -0.1711   -1.5520 H   0  0  0  0  0  0  0  0  0  0  0  0
    7.5388   -0.9622   -0.3548 H   0  0  0  0  0  0  0  0  0  0  0  0
    5.8546   -2.5588   -1.7502 H   0  0  0  0  0  0  0  0  0  0  0  0
    5.8736   -2.7396    0.0135 H   0  0  0  0  0  0  0  0  0  0  0  0
    3.7601   -1.3679   -1.6973 H   0  0  0  0  0  0  0  0  0  0  0  0
    3.5384   -2.2693   -0.1907 H   0  0  0  0  0  0  0  0  0  0  0  0
   -0.8752   -1.4885   -3.0448 H   0  0  0  0  0  0  0  0  0  0  0  0
    0.3675   -2.0181   -1.8867 H   0  0  0  0  0  0  0  0  0  0  0  0
    0.9832    1.7917   -3.3248 H   0  0  0  0  0  0  0  0  0  0  0  0
   -0.5178    2.0218   -1.2997 H   0  0  0  0  0  0  0  0  0  0  0  0
   -1.5818    1.3929   -2.5887 H   0  0  0  0  0  0  0  0  0  0  0  0
  1  2  2  0
  1  6  1  0
  1 15  1  0
  2  3  1  0
  2 22  1  0
  3  4  2  0
  3  9  1  0
  4  5  1  0
  4  7  1  0
  5  6  2  0
  5 23  1  0
  6 24  1  0
  7  8  1  0
  8 25  1  0
  8 26  1  0
  8 27  1  0
  9 10  1  0
 10 11  1  0
 10 14  1  0
 10 28  1  0
 11 12  1  0
 11 29  1  0
 11 30  1  0
 12 13  1  0
 12 31  1  0
 12 32  1  0
 13 14  1  0
 13 33  1  0
 13 34  1  0
 14 35  1  0
 14 36  1  0
 15 16  1  1
 15 17  1  0
 15 21  1  0
 17 18  1  0
 17 37  1  0
 17 38  1  0
 18 19  2  0
 18 20  1  0
 20 21  1  0
 20 39  1  0
 21 40  1  0
 21 41  1  0
M  END

