41

C          0.00820       -0.16840        0.03610
C          1.41290       -0.18430        0.05140
C          2.13370       -0.16970        1.24860
C          1.43120       -0.11790        2.47830
C          0.03760       -0.09880        2.45930
C         -0.67390       -0.13080        1.25450
O          2.07680       -0.14800        3.67970
C          2.92340        0.94960        3.98320
O          3.48610       -0.22710        1.31500
C          4.24870       -0.21440        0.10810
C          5.72450       -0.01590        0.47720
C          6.48920       -0.76250       -0.61940
C          5.64960       -2.03500       -0.80470
C          4.19020       -1.54420       -0.69920
C         -0.74460       -0.18070       -1.28080
H         -1.79610       -0.42610       -1.07810
C         -0.12260       -1.13660       -2.31870
C          0.88190       -0.26810       -3.07830
O          1.84090       -0.63500       -3.72860
N          0.49260        1.02720       -2.87620
C         -0.65950        1.19360       -2.01060
H          1.96000       -0.24370       -0.88420
H         -0.47870       -0.07230        3.42100
H         -1.76670       -0.12920        1.26990
H          3.29770        0.78610        5.00340
H          2.36120        1.90130        3.95750
H          3.77480        1.01480        3.28870
H          3.89560        0.62580       -0.51510
H          5.89080       -0.50560        1.45090
H          5.99870        1.04440        0.58220
H          6.49260       -0.17110       -1.55200
H          7.53880       -0.96220       -0.35480
H          5.85460       -2.55880       -1.75020
H          5.87360       -2.73960        0.01350
H          3.76010       -1.36790       -1.69730
H          3.53840       -2.26930       -0.19070
H         -0.87520       -1.48850       -3.04480
H          0.36750       -2.01810       -1.88670
H          0.98320        1.79170       -3.32480
H         -0.51780        2.02180       -1.29970
H         -1.58180        1.39290       -2.58870
