
     RDKit          3D

 41 43  0  0  0  0  0  0  0  0999 V2000
    0.0008    0.1001    0.0464 C   0  0  0  0  0  0  0  0  0  0  0  0
    1.4034    0.1461   -0.0274 C   0  0  0  0  0  0  0  0  0  0  0  0
    2.1958    0.1465    1.1243 C   0  0  0  0  0  0  0  0  0  0  0  0
    1.5727    0.0918    2.3962 C   0  0  0  0  0  0  0  0  0  0  0  0
    0.1804    0.0619    2.4637 C   0  0  0  0  0  0  0  0  0  0  0  0
   -0.6031    0.0688    1.3054 C   0  0  0  0  0  0  0  0  0  0  0  0
    2.2768    0.1217    3.5627 O   0  0  0  0  0  0  0  0  0  0  0  0
    3.2682   -0.8715    3.7732 C   0  0  0  0  0  0  0  0  0  0  0  0
    3.5500    0.2271    1.1147 O   0  0  0  0  0  0  0  0  0  0  0  0
    4.2770    0.0907   -0.1118 C   0  0  0  0  0  0  0  0  0  0  0  0
    5.7488    0.3031    0.2394 C   0  0  0  0  0  0  0  0  0  0  0  0
    6.2322   -1.0562    0.8036 C   0  0  0  0  0  0  0  0  0  0  0  0
    5.1734   -2.1012    0.3531 C   0  0  0  0  0  0  0  0  0  0  0  0
    4.2485   -1.3538   -0.6245 C   0  0  0  0  0  0  0  0  0  0  0  0
   -0.8358    0.0268   -1.2161 C   0  0  2  0  0  0  0  0  0  0  0  0
   -1.8894    0.1628   -0.9370 H   0  0  0  0  0  0  0  0  0  0  0  0
   -0.6258   -1.3090   -1.9670 C   0  0  0  0  0  0  0  0  0  0  0  0
    0.4480   -1.0066   -3.0126 C   0  0  0  0  0  0  0  0  0  0  0  0
    1.1178   -1.8003   -3.6388 O   0  0  0  0  0  0  0  0  0  0  0  0
    0.5022    0.3592   -3.1241 N   0  0  0  0  0  0  0  0  0  0  0  0
   -0.4339    1.0825   -2.2840 C   0  0  0  0  0  0  0  0  0  0  0  0
    1.8814    0.1846   -1.0035 H   0  0  0  0  0  0  0  0  0  0  0  0
   -0.2746    0.0313    3.4556 H   0  0  0  0  0  0  0  0  0  0  0  0
   -1.6922    0.0342    1.3878 H   0  0  0  0  0  0  0  0  0  0  0  0
    3.5144   -0.8461    4.8442 H   0  0  0  0  0  0  0  0  0  0  0  0
    4.1755   -0.6777    3.1828 H   0  0  0  0  0  0  0  0  0  0  0  0
    2.8844   -1.8767    3.5204 H   0  0  0  0  0  0  0  0  0  0  0  0
    3.9038    0.8284   -0.8419 H   0  0  0  0  0  0  0  0  0  0  0  0
    5.8701    1.1415    0.9400 H   0  0  0  0  0  0  0  0  0  0  0  0
    6.2911    0.5579   -0.6845 H   0  0  0  0  0  0  0  0  0  0  0  0
    7.2369   -1.3032    0.4288 H   0  0  0  0  0  0  0  0  0  0  0  0
    6.3072   -1.0236    1.9008 H   0  0  0  0  0  0  0  0  0  0  0  0
    5.6238   -2.9935   -0.1059 H   0  0  0  0  0  0  0  0  0  0  0  0
    4.5901   -2.4473    1.2197 H   0  0  0  0  0  0  0  0  0  0  0  0
    4.6624   -1.3623   -1.6465 H   0  0  0  0  0  0  0  0  0  0  0  0
    3.2364   -1.7767   -0.6867 H   0  0  0  0  0  0  0  0  0  0  0  0
   -1.5349   -1.6221   -2.5087 H   0  0  0  0  0  0  0  0  0  0  0  0
   -0.3181   -2.1408   -1.3205 H   0  0  0  0  0  0  0  0  0  0  0  0
    1.0685    0.7929   -3.8439 H   0  0  0  0  0  0  0  0  0  0  0  0
    0.0320    1.9673   -1.8236 H   0  0  0  0  0  0  0  0  0  0  0  0
   -1.3179    1.4230   -2.8557 H   0  0  0  0  0  0  0  0  0  0  0  0
  1  2  2  0
  1  6  1  0
  1 15  1  0
  2  3  1  0
  2 22  1  0
  3  4  2  0
  3  9  1  0
  4  5  1  0
  4  7  1  0
  5  6  2  0
  5 23  1  0
  6 24  1  0
  7  8  1  0
  8 25  1  0
  8 26  1  0
  8 27  1  0
  9 10  1  0
 10 11  1  0
 10 14  1  0
 10 28  1  0
 11 12  1  0
 11 29  1  0
 11 30  1  0
 12 13  1  0
 12 31  1  0
 12 32  1  0
 13 14  1  0
 13 33  1  0
 13 34  1  0
 14 35  1  0
 14 36  1  0
 15 16  1  1
 15 17  1  0
 15 21  1  0
 17 18  1  0
 17 37  1  0
 17 38  1  0
 18 19  2  0
 18 20  1  0
 20 21  1  0
 20 39  1  0
 21 40  1  0
 21 41  1  0
M  END

