rmsd206.gzmat
 OpenBabel08211713423D

 41 43  0  0  1  0  0  0  0  0999 V2000
    0.0000    0.0000    0.0000 C   0  0  0  0  0  0  0  0  0  0  0  0
    1.4001    0.0000    0.0000 C   0  0  0  0  0  0  0  0  0  0  0  0
    2.0979    0.0000    1.2004 C   0  0  0  0  0  0  0  0  0  0  0  0
    1.3903   -0.0041    2.4246 C   0  0  0  0  0  0  0  0  0  0  0  0
   -0.0048   -0.0119    2.4144 C   0  0  0  0  0  0  0  0  0  0  0  0
   -0.6964   -0.0080    1.2037 C   0  0  0  0  0  0  0  0  0  0  0  0
    1.9043    0.0276    3.6815 O   0  0  0  0  0  0  0  0  0  0  0  0
    3.3039   -0.1607    3.8385 C   0  0  0  0  0  0  0  0  0  0  0  0
    3.4502   -0.0047    1.3135 O   0  0  0  0  0  0  0  0  0  0  0  0
    4.2409    0.0943    0.1226 C   0  0  0  0  0  0  0  0  0  0  0  0
    4.1476    1.5048   -0.4825 C   0  0  0  0  0  0  0  0  0  0  0  0
    5.5563    2.1151   -0.3927 C   0  0  0  0  0  0  0  0  0  0  0  0
    6.2988    1.3102    0.6878 C   0  0  0  0  0  0  0  0  0  0  0  0
    5.6746   -0.0920    0.6545 C   0  0  0  0  0  0  0  0  0  0  0  0
   -0.7468    0.0054   -1.3008 C   0  0  2  0  0  0  0  0  0  0  0  0
   -1.8445    0.0353   -1.1139 H   0  0  0  0  0  0  0  0  0  0  0  0
   -0.3986   -1.2348   -2.1558 C   0  0  0  0  0  0  0  0  0  0  0  0
    0.2963   -0.7048   -3.3921 C   0  0  0  0  0  0  0  0  0  0  0  0
    0.7795   -1.3427   -4.2975 O   0  0  0  0  0  0  0  0  0  0  0  0
    0.3170    0.6777   -3.3557 N   0  0  0  0  0  0  0  0  0  0  0  0
   -0.3476    1.2391   -2.1740 C   0  0  0  0  0  0  0  0  0  0  0  0
    1.9289    0.0018   -0.9512 H   0  0  0  0  0  0  0  0  0  0  0  0
   -0.5419   -0.0191    3.3615 H   0  0  0  0  0  0  0  0  0  0  0  0
   -1.7844   -0.0121    1.2141 H   0  0  0  0  0  0  0  0  0  0  0  0
    3.4071   -0.2025    4.9310 H   0  0  0  0  0  0  0  0  0  0  0  0
    3.8552    0.6929    3.4285 H   0  0  0  0  0  0  0  0  0  0  0  0
    3.6319   -1.0989    3.3799 H   0  0  0  0  0  0  0  0  0  0  0  0
    3.9352   -0.7091   -0.5747 H   0  0  0  0  0  0  0  0  0  0  0  0
    3.4201    2.1134    0.0862 H   0  0  0  0  0  0  0  0  0  0  0  0
    3.7859    1.4813   -1.5222 H   0  0  0  0  0  0  0  0  0  0  0  0
    6.0766    2.0360   -1.3627 H   0  0  0  0  0  0  0  0  0  0  0  0
    5.5202    3.1874   -0.1471 H   0  0  0  0  0  0  0  0  0  0  0  0
    7.3839    1.2842    0.5087 H   0  0  0  0  0  0  0  0  0  0  0  0
    6.1568    1.7729    1.6802 H   0  0  0  0  0  0  0  0  0  0  0  0
    6.2418   -0.7676   -0.0070 H   0  0  0  0  0  0  0  0  0  0  0  0
    5.6719   -0.5632    1.6528 H   0  0  0  0  0  0  0  0  0  0  0  0
   -1.2963   -1.8123   -2.4376 H   0  0  0  0  0  0  0  0  0  0  0  0
    0.2562   -1.9467   -1.6178 H   0  0  0  0  0  0  0  0  0  0  0  0
    0.6973    1.2599   -4.0700 H   0  0  0  0  0  0  0  0  0  0  0  0
    0.3351    1.9236   -1.6282 H   0  0  0  0  0  0  0  0  0  0  0  0
   -1.2428    1.8237   -2.4682 H   0  0  0  0  0  0  0  0  0  0  0  0
  1  6  1  0  0  0  0
  2  1  2  0  0  0  0
  2  3  1  0  0  0  0
  3  9  1  0  0  0  0
  3  4  2  0  0  0  0
  4  7  1  0  0  0  0
  5  4  1  0  0  0  0
  5 23  1  0  0  0  0
  6 24  1  0  0  0  0
  6  5  2  0  0  0  0
  7  8  1  0  0  0  0
  8 25  1  0  0  0  0
 10 14  1  0  0  0  0
 10  9  1  0  0  0  0
 11 12  1  0  0  0  0
 11 29  1  0  0  0  0
 11 10  1  0  0  0  0
 12 32  1  0  0  0  0
 12 13  1  0  0  0  0
 13 34  1  0  0  0  0
 14 13  1  0  0  0  0
 14 36  1  0  0  0  0
 15 16  1  1  0  0  0
 15  1  1  0  0  0  0
 17 38  1  0  0  0  0
 17 15  1  0  0  0  0
 18 20  1  0  0  0  0
 18 17  1  0  0  0  0
 19 18  2  0  0  0  0
 20 21  1  0  0  0  0
 21 40  1  0  0  0  0
 21 15  1  0  0  0  0
 22  2  1  0  0  0  0
 26  8  1  0  0  0  0
 27  8  1  0  0  0  0
 28 10  1  0  0  0  0
 30 11  1  0  0  0  0
 31 12  1  0  0  0  0
 33 13  1  0  0  0  0
 35 14  1  0  0  0  0
 37 17  1  0  0  0  0
 39 20  1  0  0  0  0
 41 21  1  0  0  0  0
M  END
$$$$
