
     RDKit          3D

 41 43  0  0  0  0  0  0  0  0999 V2000
   -0.0447    0.1374    0.0726 C   0  0  0  0  0  0  0  0  0  0  0  0
    1.3601    0.1241    0.0018 C   0  0  0  0  0  0  0  0  0  0  0  0
    2.1526    0.2124    1.1509 C   0  0  0  0  0  0  0  0  0  0  0  0
    1.5161    0.3226    2.4149 C   0  0  0  0  0  0  0  0  0  0  0  0
    0.1251    0.3444    2.4795 C   0  0  0  0  0  0  0  0  0  0  0  0
   -0.6558    0.2558    1.3218 C   0  0  0  0  0  0  0  0  0  0  0  0
    2.2336    0.4589    3.5675 O   0  0  0  0  0  0  0  0  0  0  0  0
    3.0203   -0.6520    3.9676 C   0  0  0  0  0  0  0  0  0  0  0  0
    3.5068    0.2192    1.1780 O   0  0  0  0  0  0  0  0  0  0  0  0
    4.3289    0.0926    0.0178 C   0  0  0  0  0  0  0  0  0  0  0  0
    4.2249   -1.2458   -0.7401 C   0  0  0  0  0  0  0  0  0  0  0  0
    4.7576   -0.9005   -2.1359 C   0  0  0  0  0  0  0  0  0  0  0  0
    4.1635    0.4923   -2.4137 C   0  0  0  0  0  0  0  0  0  0  0  0
    4.1794    1.2161   -1.0493 C   0  0  0  0  0  0  0  0  0  0  0  0
   -0.8774    0.0185   -1.1895 C   0  0  2  0  0  0  0  0  0  0  0  0
   -1.9352   -0.0317   -0.8984 H   0  0  0  0  0  0  0  0  0  0  0  0
   -0.4723   -1.1944   -2.0555 C   0  0  0  0  0  0  0  0  0  0  0  0
    0.5505   -0.6364   -3.0440 C   0  0  0  0  0  0  0  0  0  0  0  0
    1.3735   -1.2534   -3.6908 O   0  0  0  0  0  0  0  0  0  0  0  0
    0.3728    0.7209   -3.0557 N   0  0  0  0  0  0  0  0  0  0  0  0
   -0.6601    1.2133   -2.1637 C   0  0  0  0  0  0  0  0  0  0  0  0
    1.8382    0.0466   -0.9677 H   0  0  0  0  0  0  0  0  0  0  0  0
   -0.3325    0.4352    3.4666 H   0  0  0  0  0  0  0  0  0  0  0  0
   -1.7457    0.2681    1.3989 H   0  0  0  0  0  0  0  0  0  0  0  0
    3.4705   -0.3881    4.9348 H   0  0  0  0  0  0  0  0  0  0  0  0
    3.8186   -0.8702    3.2418 H   0  0  0  0  0  0  0  0  0  0  0  0
    2.3937   -1.5534    4.0992 H   0  0  0  0  0  0  0  0  0  0  0  0
    5.3374    0.1596    0.4500 H   0  0  0  0  0  0  0  0  0  0  0  0
    3.1787   -1.5753   -0.8130 H   0  0  0  0  0  0  0  0  0  0  0  0
    4.7853   -2.0463   -0.2346 H   0  0  0  0  0  0  0  0  0  0  0  0
    5.8608   -0.8504   -2.1185 H   0  0  0  0  0  0  0  0  0  0  0  0
    4.4676   -1.6391   -2.8970 H   0  0  0  0  0  0  0  0  0  0  0  0
    4.7136    1.0417   -3.1925 H   0  0  0  0  0  0  0  0  0  0  0  0
    3.1348    0.3643   -2.7810 H   0  0  0  0  0  0  0  0  0  0  0  0
    5.0313    1.9081   -0.9714 H   0  0  0  0  0  0  0  0  0  0  0  0
    3.2751    1.8158   -0.8748 H   0  0  0  0  0  0  0  0  0  0  0  0
   -1.3248   -1.5797   -2.6406 H   0  0  0  0  0  0  0  0  0  0  0  0
   -0.0492   -2.0317   -1.4862 H   0  0  0  0  0  0  0  0  0  0  0  0
    0.8846    1.3045   -3.7069 H   0  0  0  0  0  0  0  0  0  0  0  0
   -0.3359    2.1183   -1.6279 H   0  0  0  0  0  0  0  0  0  0  0  0
   -1.5915    1.4547   -2.7099 H   0  0  0  0  0  0  0  0  0  0  0  0
  1  2  2  0
  1  6  1  0
  1 15  1  0
  2  3  1  0
  2 22  1  0
  3  4  2  0
  3  9  1  0
  4  5  1  0
  4  7  1  0
  5  6  2  0
  5 23  1  0
  6 24  1  0
  7  8  1  0
  8 25  1  0
  8 26  1  0
  8 27  1  0
  9 10  1  0
 10 11  1  0
 10 14  1  0
 10 28  1  0
 11 12  1  0
 11 29  1  0
 11 30  1  0
 12 13  1  0
 12 31  1  0
 12 32  1  0
 13 14  1  0
 13 33  1  0
 13 34  1  0
 14 35  1  0
 14 36  1  0
 15 16  1  1
 15 17  1  0
 15 21  1  0
 17 18  1  0
 17 37  1  0
 17 38  1  0
 18 19  2  0
 18 20  1  0
 20 21  1  0
 20 39  1  0
 21 40  1  0
 21 41  1  0
M  END

