65

N         -0.04970        0.03470        0.10800
C          1.36050        0.08770        0.08340
C          2.09070        0.18990        1.27660
C          3.47940        0.28930        1.23370
C          4.18440        0.27570        0.01970
C          5.66990        0.54150       -0.03860
C          5.97510        2.06220       -0.23800
C          5.26460        2.52310       -1.52020
O          4.36360        3.32020       -1.62380
O          5.78660        1.87370       -2.56840
C          5.33050        2.24960       -3.88430
C          6.04620        3.49580       -4.37100
C          5.63240        2.84660        1.07100
C          4.95360        4.21990        0.98960
N          3.50970        4.13510        0.84340
C          2.65080        3.87550        1.85090
O          1.45110        3.65040        1.69400
O          3.24450        3.91140        3.04790
C          2.50100        3.73040        4.30470
C          3.59560        3.89290        5.35700
C          1.44300        4.82460        4.44570
C          1.89310        2.32970        4.35950
C          7.45800        2.34590       -0.49810
O          7.84830        3.35430       -1.03770
O          8.25860        1.40180        0.00610
C          9.68110        1.62960       -0.07540
C         10.16060        2.52160        1.05450
C          3.44290        0.10240       -1.15900
C          2.05230        0.02260       -1.13400
S         -0.93080        1.28800        0.84650
O         -2.28070        1.11720        0.34720
O         -0.62110        1.27020        2.27090
O         -0.33290        2.61220        0.19070
H         -0.48290       -0.15790       -0.79300
H          1.55760        0.20050        2.22530
H          4.02820        0.36680        2.17570
H          6.13120       -0.01830       -0.86270
H          6.16560        0.22330        0.88880
H          4.24120        2.39620       -3.85100
H          5.55920        1.37740       -4.51220
H          5.78770        4.36180       -3.74550
H          5.74920        3.71600       -5.40840
H          7.13690        3.35570       -4.33840
H          6.57350        2.95700        1.63290
H          4.99370        2.21950        1.70330
H          5.35250        4.81620        0.15940
H          5.16410        4.76000        1.92100
H          3.17240        3.95150       -0.09700
H          4.37730        3.13020        5.22180
H          3.16990        3.78070        6.36490
H          4.06200        4.88660        5.28190
H          0.65520        4.71170        3.69160
H          1.90330        5.81920        4.34010
H          0.98550        4.76250        5.44470
H          1.09000        2.20090        3.62450
H          1.47640        2.15560        5.36340
H          2.67190        1.57170        4.18190
H          9.91070        2.07190       -1.05540
H         10.12420        0.62600       -0.01680
H          9.72030        3.52570        0.96910
H         11.25640        2.62380        1.01220
H          9.89220        2.09420        2.03310
H          3.96200        0.05660       -2.11820
H          1.49270       -0.07310       -2.06800
H          0.39550        3.02260        0.76400
