65

N         -0.05600       -0.44740        0.35340
C          1.35700       -0.36450        0.25640
C          2.16160       -0.28470        1.40270
C          3.54810       -0.23120        1.27020
C          4.17320       -0.28930        0.01470
C          5.67610       -0.34180       -0.09320
C          6.24340       -1.79080       -0.01710
C          5.78090       -2.36600        1.32660
O          6.22000       -1.99410        2.38820
O          4.78140       -3.24100        1.19120
C          4.12240       -3.70050        2.38530
C          2.73520       -4.16380        1.99680
C          5.82330       -2.68020       -1.20600
C          6.38440       -2.23370       -2.56020
N          6.04460       -3.15250       -3.62840
C          6.76670       -4.29120       -3.83830
O          7.81440       -4.55070       -3.27630
O          6.15110       -5.05870       -4.76000
C          6.72080       -6.33240       -5.19930
C          5.70040       -6.82690       -6.22270
C          8.08060       -6.09700       -5.85950
C          6.81410       -7.29860       -4.01650
C          7.77590       -1.71650        0.01950
O          8.42370       -0.71490       -0.15580
O          8.29040       -2.93330        0.21740
C          9.72530       -3.07670        0.16540
C         10.22760       -3.10210       -1.26720
C          3.35220       -0.36320       -1.11900
C          1.96240       -0.38760       -1.00680
S         -0.94710        0.61880        1.28890
O         -2.31510        0.46510        0.84770
O         -0.52570        0.49880        2.67580
O         -0.45640        2.09470        0.77720
H         -0.54510       -0.60210       -0.52580
H          1.69610       -0.26980        2.38760
H          4.16550       -0.17020        2.16920
H          6.13800        0.23050        0.72200
H          6.02160        0.11810       -1.02890
H          4.09850       -2.87660        3.11330
H          4.72660       -4.51160        2.82360
H          2.15520       -3.32920        1.57420
H          2.20340       -4.54370        2.88270
H          2.78280       -4.97030        1.24930
H          4.72590       -2.72390       -1.24990
H          6.17880       -3.70140       -1.01390
H          7.48070       -2.17150       -2.52020
H          6.01770       -1.23440       -2.83960
H          5.13030       -3.10560       -4.06130
H          4.71310       -6.95200       -5.75340
H          6.01670       -7.79550       -6.63740
H          5.60300       -6.10660       -7.04870
H          8.81180       -5.72620       -5.13100
H          7.98570       -5.36280       -6.67450
H          8.45190       -7.04010       -6.28900
H          7.53510       -6.93960       -3.27210
H          7.13280       -8.29020       -4.37270
H          5.82950       -7.40730       -3.53570
H          9.91780       -4.02880        0.67850
H         10.18070       -2.25820        0.74260
H          9.65820       -3.82750       -1.86660
H         11.29410       -3.37800       -1.28260
H         10.12560       -2.10950       -1.72960
H          3.80520       -0.38780       -2.11300
H          1.34000       -0.42500       -1.90460
H          0.21890        2.41620        1.39870
