65

N         -0.20070        0.21550       -0.02280
C          1.21130        0.12860       -0.00290
C          1.95100        0.22890        1.18370
C          3.34020        0.11770        1.13710
C          4.02890       -0.11520       -0.06240
C          5.52650       -0.29070       -0.09480
C          5.99070       -1.76410        0.08090
C          7.51800       -1.80550       -0.08980
O          8.24130       -0.84110       -0.01500
O          7.94400       -3.05240       -0.29730
C          9.36880       -3.25280       -0.46220
C          9.57270       -4.64440       -1.01670
C          5.60820       -2.36190        1.45410
C          6.28380       -1.72440        2.67460
N          7.71510       -1.97170        2.76920
C          8.27710       -3.19330        3.00320
O          9.46020       -3.43600        2.84740
O          7.34570       -4.06960        3.42870
C          7.66800       -5.47050        3.68960
C          6.31560       -6.06240        4.08160
C          8.19740       -6.12990        2.41440
C          8.66370       -5.56910        4.84620
C          5.40380       -2.57300       -1.08590
O          5.59020       -2.27730       -2.24280
O          4.65440       -3.60510       -0.68880
C          4.03400       -4.41120       -1.70850
C          2.70540       -3.82190       -2.14560
C          3.27040       -0.20810       -1.23900
C          1.88300       -0.08090       -1.21530
S         -1.13130        1.09980        1.03910
O         -2.45050        1.14380        0.42910
O         -0.88130        0.65330        2.39100
O         -0.49120        2.60440        0.98850
H         -0.65480        0.14560       -0.92910
H          1.44160        0.39230        2.13210
H          3.90090        0.21540        2.06980
H          6.00740        0.31550        0.68430
H          5.92630        0.06410       -1.05360
H          9.84210       -3.12720        0.52290
H          9.75090       -2.47300       -1.13710
H          9.17550       -5.40310       -0.32680
H         10.64820       -4.83530       -1.15350
H          9.07200       -4.75910       -1.99040
H          5.84000       -3.43360        1.45270
H          4.51730       -2.28460        1.56770
H          5.79940       -2.11930        3.57880
H          6.14270       -0.63380        2.68770
H          8.35310       -1.30010        2.35860
H          5.90970       -5.54420        4.96310
H          6.42280       -7.13080        4.32130
H          5.59510       -5.95860        3.25640
H          9.17550       -5.71820        2.13860
H          7.49520       -5.96630        1.58240
H          8.29860       -7.21440        2.57300
H          9.62470       -5.11670        4.57260
H          8.82650       -6.62630        5.10680
H          8.26700       -5.05340        5.73420
H          3.90180       -5.39610       -1.23900
H          4.72760       -4.50310       -2.55660
H          2.04470       -3.66130       -1.28020
H          2.20450       -4.50930       -2.84560
H          2.85480       -2.85900       -2.65320
H          3.77890       -0.37970       -2.18960
H          1.31380       -0.14670       -2.14670
H         -0.87920        3.07490        0.23090
