rmsd56.gzmat
 OpenBabel08211713433D

 65 65  0  0  0  0  0  0  0  0999 V2000
    0.0000    0.0000    0.0000 N   0  0  0  0  0  0  0  0  0  0  0  0
    1.4105    0.0000    0.0000 C   0  0  0  0  0  0  0  0  0  0  0  0
    2.1534    0.0000    1.1893 C   0  0  0  0  0  0  0  0  0  0  0  0
    3.5410   -0.0363    1.1283 C   0  0  0  0  0  0  0  0  0  0  0  0
    4.2037   -0.1070   -0.0980 C   0  0  0  0  0  0  0  0  0  0  0  0
    5.6971   -0.1841   -0.1479 C   0  0  0  0  0  0  0  0  0  0  0  0
    6.2125   -1.6336   -0.0585 C   0  0  0  0  0  0  0  0  0  0  0  0
    7.7247   -1.6891   -0.2253 C   0  0  0  0  0  0  0  0  0  0  0  0
    8.3679   -2.6425   -0.5741 O   0  0  0  0  0  0  0  0  0  0  0  0
    8.2759   -0.5039    0.1215 O   0  0  0  0  0  0  0  0  0  0  0  0
    9.7041   -0.4145    0.1064 C   0  0  0  0  0  0  0  0  0  0  0  0
   10.2711   -1.0786    1.3492 C   0  0  0  0  0  0  0  0  0  0  0  0
    5.8634   -2.3295    1.2656 C   0  0  0  0  0  0  0  0  0  0  0  0
    6.6078   -1.7193    2.4681 C   0  0  0  0  0  0  0  0  0  0  0  0
    6.0474   -2.2080    3.7297 N   0  0  0  0  0  0  0  0  0  0  0  0
    5.1026   -1.4323    4.3725 C   0  0  0  0  0  0  0  0  0  0  0  0
    4.8555   -0.2747    4.1008 O   0  0  0  0  0  0  0  0  0  0  0  0
    4.5351   -2.1575    5.3660 O   0  0  0  0  0  0  0  0  0  0  0  0
    3.4870   -1.5490    6.1647 C   0  0  0  0  0  0  0  0  0  0  0  0
    3.1575   -2.6986    7.1228 C   0  0  0  0  0  0  0  0  0  0  0  0
    4.0491   -0.3399    6.9014 C   0  0  0  0  0  0  0  0  0  0  0  0
    2.3135   -1.2030    5.2590 C   0  0  0  0  0  0  0  0  0  0  0  0
    5.6026   -2.4569   -1.1912 C   0  0  0  0  0  0  0  0  0  0  0  0
    4.9096   -3.4299   -1.0757 O   0  0  0  0  0  0  0  0  0  0  0  0
    5.9719   -1.9258   -2.3787 O   0  0  0  0  0  0  0  0  0  0  0  0
    5.6171   -2.6535   -3.5593 C   0  0  0  0  0  0  0  0  0  0  0  0
    4.1488   -2.4569   -3.8898 C   0  0  0  0  0  0  0  0  0  0  0  0
    3.4598   -0.1003   -1.2790 C   0  0  0  0  0  0  0  0  0  0  0  0
    2.0727   -0.0441   -1.2403 C   0  0  0  0  0  0  0  0  0  0  0  0
   -0.9802    0.6543    1.2542 S   0  0  0  0  0  0  0  0  0  0  0  0
   -2.3244    0.5726    0.7700 O   0  0  0  0  0  0  0  0  0  0  0  0
   -0.5804    0.1716    2.5449 O   0  0  0  0  0  0  0  0  0  0  0  0
   -0.4806    2.2233    1.2178 O   0  0  0  0  0  0  0  0  0  0  0  0
   -0.4387   -0.0954   -0.9168 H   0  0  0  0  0  0  0  0  0  0  0  0
    1.6728    0.0008    2.1691 H   0  0  0  0  0  0  0  0  0  0  0  0
    4.1174   -0.0094    2.0601 H   0  0  0  0  0  0  0  0  0  0  0  0
    6.1429    0.4248    0.6716 H   0  0  0  0  0  0  0  0  0  0  0  0
    6.0822    0.2841   -1.0820 H   0  0  0  0  0  0  0  0  0  0  0  0
    9.8509    0.6822    0.0985 H   0  0  0  0  0  0  0  0  0  0  0  0
   10.0951   -0.8565   -0.8276 H   0  0  0  0  0  0  0  0  0  0  0  0
    9.7970   -0.6967    2.2623 H   0  0  0  0  0  0  0  0  0  0  0  0
   11.3497   -0.9047    1.4378 H   0  0  0  0  0  0  0  0  0  0  0  0
   10.1180   -2.1675    1.3235 H   0  0  0  0  0  0  0  0  0  0  0  0
    6.0821   -3.4165    1.1908 H   0  0  0  0  0  0  0  0  0  0  0  0
    4.7630   -2.2765    1.4253 H   0  0  0  0  0  0  0  0  0  0  0  0
    6.5532   -0.6025    2.4427 H   0  0  0  0  0  0  0  0  0  0  0  0
    7.6899   -1.9855    2.4391 H   0  0  0  0  0  0  0  0  0  0  0  0
    6.1326   -3.1896    3.9406 H   0  0  0  0  0  0  0  0  0  0  0  0
    2.7982   -3.5806    6.5788 H   0  0  0  0  0  0  0  0  0  0  0  0
    2.3839   -2.4019    7.8377 H   0  0  0  0  0  0  0  0  0  0  0  0
    4.0445   -3.0083    7.6891 H   0  0  0  0  0  0  0  0  0  0  0  0
    4.2663    0.4881    6.2087 H   0  0  0  0  0  0  0  0  0  0  0  0
    4.9887   -0.5836    7.4108 H   0  0  0  0  0  0  0  0  0  0  0  0
    3.3448    0.0353    7.6499 H   0  0  0  0  0  0  0  0  0  0  0  0
    2.5426   -0.3492    4.6034 H   0  0  0  0  0  0  0  0  0  0  0  0
    1.4214   -0.9348    5.8348 H   0  0  0  0  0  0  0  0  0  0  0  0
    2.0436   -2.0429    4.6067 H   0  0  0  0  0  0  0  0  0  0  0  0
    5.8784   -3.7188   -3.4205 H   0  0  0  0  0  0  0  0  0  0  0  0
    6.2928   -2.1910   -4.3038 H   0  0  0  0  0  0  0  0  0  0  0  0
    3.5064   -2.8611   -3.0919 H   0  0  0  0  0  0  0  0  0  0  0  0
    3.8781   -2.9731   -4.8183 H   0  0  0  0  0  0  0  0  0  0  0  0
    3.8958   -1.3977   -4.0113 H   0  0  0  0  0  0  0  0  0  0  0  0
    3.9739   -0.1418   -2.2406 H   0  0  0  0  0  0  0  0  0  0  0  0
    1.5071   -0.0386   -2.1669 H   0  0  0  0  0  0  0  0  0  0  0  0
   -0.0183    2.5550    2.0027 H   0  0  0  0  0  0  0  0  0  0  0  0
  1  2  1  0  0  0  0
  1 30  1  0  0  0  0
  2  3  2  0  0  0  0
  3 35  1  0  0  0  0
  4  3  1  0  0  0  0
  4 36  1  0  0  0  0
  5  4  2  0  0  0  0
  6  5  1  0  0  0  0
  6  7  1  0  0  0  0
  6 37  1  0  0  0  0
  7 13  1  0  0  0  0
  8  7  1  0  0  0  0
  8 10  1  0  0  0  0
  9  8  2  0  0  0  0
 11 10  1  0  0  0  0
 11 12  1  0  0  0  0
 12 42  1  0  0  0  0
 12 41  1  0  0  0  0
 13 45  1  0  0  0  0
 13 14  1  0  0  0  0
 14 15  1  0  0  0  0
 15 48  1  0  0  0  0
 15 16  1  0  0  0  0
 16 18  1  0  0  0  0
 17 16  2  0  0  0  0
 18 19  1  0  0  0  0
 19 21  1  0  0  0  0
 19 20  1  0  0  0  0
 20 51  1  0  0  0  0
 20 50  1  0  0  0  0
 21 53  1  0  0  0  0
 21 54  1  0  0  0  0
 22 56  1  0  0  0  0
 22 19  1  0  0  0  0
 23 24  2  0  0  0  0
 23  7  1  0  0  0  0
 25 23  1  0  0  0  0
 26 58  1  0  0  0  0
 26 25  1  0  0  0  0
 27 26  1  0  0  0  0
 27 60  1  0  0  0  0
 28 29  2  0  0  0  0
 28  5  1  0  0  0  0
 29  2  1  0  0  0  0
 30 32  1  0  0  0  0
 31 30  1  0  0  0  0
 33 30  1  0  0  0  0
 33 65  1  0  0  0  0
 34  1  1  0  0  0  0
 38  6  1  0  0  0  0
 39 11  1  0  0  0  0
 40 11  1  0  0  0  0
 43 12  1  0  0  0  0
 44 13  1  0  0  0  0
 46 14  1  0  0  0  0
 47 14  1  0  0  0  0
 49 20  1  0  0  0  0
 52 21  1  0  0  0  0
 55 22  1  0  0  0  0
 57 22  1  0  0  0  0
 59 26  1  0  0  0  0
 61 27  1  0  0  0  0
 62 27  1  0  0  0  0
 63 28  1  0  0  0  0
 64 29  1  0  0  0  0
M  RAD  2  31   2  32   2
M  END
$$$$
