65
rmsd33.gzmat
N          0.00000        0.00000        0.00000
C          1.41240        0.00000        0.00000
C          2.14750        0.00000        1.19480
C          3.53380       -0.06540        1.14410
C          4.20460       -0.14990       -0.07880
C          5.69490       -0.27500       -0.10760
C          6.14190       -1.74710        0.01520
C          5.67690       -2.24440        1.37690
O          5.96180       -1.75250        2.43870
O          4.85220       -3.30160        1.25010
C          4.29240       -3.82080        2.47050
C          3.62930       -5.11740        2.03910
C          5.62090       -2.64130       -1.11590
C          6.15360       -2.21860       -2.49890
N          5.76750       -3.19200       -3.52290
C          6.65580       -4.20360       -3.83660
O          7.82450       -4.23420       -3.51600
O          6.00950       -5.12640       -4.59340
C          6.75470       -6.24470       -5.13130
C          5.65410       -6.96700       -5.91690
C          7.85960       -5.72900       -6.04450
C          7.28520       -7.09110       -3.97990
C          7.66730       -1.80040       -0.01320
O          8.40020       -0.92350       -0.38440
O          8.07250       -3.00970        0.41710
C          9.47100       -3.31200        0.31690
C          9.81300       -3.65310       -1.11970
C          3.46910       -0.13570       -1.26450
C          2.08170       -0.06180       -1.23400
S         -0.96420        0.86610        1.13530
O         -2.32020        0.64390        0.73700
O         -0.49750        0.67430        2.47810
O         -0.53080        2.40670        0.74580
H         -0.43350       -0.18800       -0.90530
H          1.65190        0.02700        2.16860
H          4.10520       -0.06350        2.07680
H          6.15530        0.31780        0.71850
H          6.12560        0.17160       -1.02960
H          3.57590       -3.07300        2.85260
H          5.10170       -3.97100        3.20700
H          2.91050       -4.94630        1.22650
H          3.09180       -5.58250        2.87310
H          4.36800       -5.83890        1.66530
H          4.51130       -2.63840       -1.11240
H          5.91040       -3.69760       -0.91360
H          7.26870       -2.11940       -2.48400
H          5.74890       -1.22420       -2.79620
H          4.78600       -3.30220       -3.72550
H          4.83380       -7.27750       -5.25890
H          6.04810       -7.85770       -6.41500
H          5.22060       -6.31120       -6.68200
H          8.66240       -5.24240       -5.46880
H          7.47800       -4.98290       -6.75120
H          8.31370       -6.54020       -6.62160
H          8.06750       -6.55790       -3.41760
H          7.72160       -8.02730       -4.34200
H          6.49110       -7.33950       -3.26670
H          9.54800       -4.17990        0.99870
H         10.06030       -2.46420        0.70810
H          9.13010       -4.41060       -1.53490
H         10.83320       -4.03690       -1.21400
H          9.72580       -2.77700       -1.77830
H          3.98150       -0.17780       -2.22510
H          1.52160       -0.04960       -2.16440
H         -0.15740        2.95390        1.45340
