65

N          0.22600        0.39310       -0.36520
C          1.61500        0.12490       -0.23640
C          2.24040        0.12880        1.01910
C          3.60150       -0.15650        1.10790
C          4.36540       -0.48060       -0.02240
C          5.82770       -0.82640        0.11260
C          6.22690       -2.34090        0.16440
C          5.89630       -2.98280       -1.19140
O          6.02060       -2.41600       -2.25020
O          5.45690       -4.24410       -1.06200
C          4.93500       -4.92320       -2.22250
C          5.89940       -5.98190       -2.72060
C          7.75350       -2.37760        0.42420
C          8.45480       -3.73600        0.35150
N          8.48800       -4.30750       -0.98230
C          9.14630       -3.69370       -2.00570
O          9.85410       -2.71480       -1.87210
O          8.88850       -4.33270       -3.16890
C          9.28860       -3.75620       -4.45370
C          8.68440       -4.72620       -5.46770
C          8.67640       -2.36240       -4.61050
C         10.81400       -3.73890       -4.56120
C          5.48620       -3.05800        1.29900
O          6.01620       -3.50570        2.28860
O          4.16830       -3.08730        1.07970
C          3.33240       -3.75390        2.03910
C          3.22200       -5.23320        1.71760
C          3.72540       -0.47630       -1.26990
C          2.37000       -0.16790       -1.37910
S         -0.46900        1.76370        0.30180
O         -1.76100        1.89210       -0.33430
O         -0.27620        1.73690        1.74320
O          0.44830        2.99360       -0.27170
H         -0.15530        0.25560       -1.29910
H          1.65670        0.35250        1.91140
H          4.07770       -0.15170        2.09210
H          6.22550       -0.36570        1.02920
H          6.38750       -0.40500       -0.73400
H          4.72650       -4.17550       -2.99950
H          3.98750       -5.36960       -1.88560
H          6.83210       -5.53090       -3.08780
H          5.43950       -6.53970       -3.55160
H          6.13500       -6.70590       -1.92370
H          7.91520       -1.96610        1.43120
H          8.24270       -1.70340       -0.29200
H          7.96930       -4.45760        1.02060
H          9.48800       -3.59770        0.70780
H          7.87250       -5.07460       -1.21160
H          9.05500       -5.74740       -5.29300
H          8.95820       -4.42450       -6.48950
H          7.58670       -4.73470       -5.39100
H          9.14500       -1.64700       -3.92390
H          7.59880       -2.39610       -4.39200
H          8.81990       -2.01110       -5.64390
H         11.24800       -3.07130       -3.80700
H         11.11160       -3.38940       -5.56210
H         11.21880       -4.75250       -4.41590
H          2.36120       -3.24510        1.96250
H          3.74650       -3.59560        3.04520
H          2.84170       -5.38300        0.69560
H          2.53000       -5.72250        2.42100
H          4.20380       -5.72170        1.80340
H          4.29970       -0.71190       -2.16680
H          1.89180       -0.14880       -2.36220
H          1.13220        3.18950        0.39130
