
     RDKit          3D

 65 65  0  0  0  0  0  0  0  0999 V2000
   -0.1152   -0.1052   -0.0523 N   0  0  0  0  0  0  0  0  0  0  0  0
    1.3048    0.0312   -0.0453 C   0  0  0  0  0  0  0  0  0  0  0  0
    2.0051   -0.1314    1.1555 C   0  0  0  0  0  0  0  0  0  0  0  0
    3.3977   -0.0772    1.1613 C   0  0  0  0  0  0  0  0  0  0  0  0
    4.1181    0.1487   -0.0221 C   0  0  0  0  0  0  0  0  0  0  0  0
    5.6241    0.0797   -0.0328 C   0  0  0  0  0  0  0  0  0  0  0  0
    6.1653   -1.3425   -0.3699 C   0  0  0  0  0  0  0  0  0  0  0  0
    7.6968   -1.3030   -0.3328 C   0  0  0  0  0  0  0  0  0  0  0  0
    8.3641   -0.4024    0.1068 O   0  0  0  0  0  0  0  0  0  0  0  0
    8.2090   -2.4432   -0.8243 O   0  0  0  0  0  0  0  0  0  0  0  0
    9.6431   -2.5541   -0.8537 C   0  0  0  0  0  0  0  0  0  0  0  0
    9.9913   -3.8942   -1.4625 C   0  0  0  0  0  0  0  0  0  0  0  0
    5.6589   -2.4295    0.6001 C   0  0  0  0  0  0  0  0  0  0  0  0
    6.2036   -2.3246    2.0285 C   0  0  0  0  0  0  0  0  0  0  0  0
    5.4659   -3.1667    2.9482 N   0  0  0  0  0  0  0  0  0  0  0  0
    4.4611   -2.6567    3.7236 C   0  0  0  0  0  0  0  0  0  0  0  0
    4.2802   -1.4667    3.9130 O   0  0  0  0  0  0  0  0  0  0  0  0
    3.7278   -3.6569    4.2397 O   0  0  0  0  0  0  0  0  0  0  0  0
    2.5723   -3.3952    5.1052 C   0  0  0  0  0  0  0  0  0  0  0  0
    2.0392   -4.7983    5.3868 C   0  0  0  0  0  0  0  0  0  0  0  0
    3.0414   -2.7198    6.3946 C   0  0  0  0  0  0  0  0  0  0  0  0
    1.5291   -2.5600    4.3612 C   0  0  0  0  0  0  0  0  0  0  0  0
    5.7365   -1.7311   -1.7903 C   0  0  0  0  0  0  0  0  0  0  0  0
    4.9690   -2.6170   -2.0682 O   0  0  0  0  0  0  0  0  0  0  0  0
    6.3286   -0.9374   -2.6997 O   0  0  0  0  0  0  0  0  0  0  0  0
    6.0965   -1.2353   -4.0900 C   0  0  0  0  0  0  0  0  0  0  0  0
    4.8090   -0.6161   -4.6023 C   0  0  0  0  0  0  0  0  0  0  0  0
    3.4000    0.3632   -1.2076 C   0  0  0  0  0  0  0  0  0  0  0  0
    2.0072    0.2917   -1.2283 C   0  0  0  0  0  0  0  0  0  0  0  0
   -0.7492   -1.6473    0.1651 S   0  0  0  0  0  0  0  0  0  0  0  0
   -0.2783   -2.1632    1.4408 O   0  0  0  0  0  0  0  0  0  0  0  0
   -2.1437   -1.5690   -0.2076 O   0  0  0  0  0  0  0  0  0  0  0  0
   -0.0276   -2.5373   -1.0077 O   0  0  0  0  0  0  0  0  0  0  0  0
   -0.5869    0.3237   -0.8475 H   0  0  0  0  0  0  0  0  0  0  0  0
    1.4522   -0.3191    2.0751 H   0  0  0  0  0  0  0  0  0  0  0  0
    3.9199   -0.2312    2.1074 H   0  0  0  0  0  0  0  0  0  0  0  0
    6.0338    0.3730    0.9426 H   0  0  0  0  0  0  0  0  0  0  0  0
    6.0440    0.7780   -0.7691 H   0  0  0  0  0  0  0  0  0  0  0  0
   10.0271   -2.4502    0.1737 H   0  0  0  0  0  0  0  0  0  0  0  0
   10.0492   -1.7125   -1.4371 H   0  0  0  0  0  0  0  0  0  0  0  0
    9.5734   -4.7185   -0.8645 H   0  0  0  0  0  0  0  0  0  0  0  0
   11.0845   -4.0160   -1.5040 H   0  0  0  0  0  0  0  0  0  0  0  0
    9.5939   -3.9753   -2.4856 H   0  0  0  0  0  0  0  0  0  0  0  0
    5.9098   -3.4134    0.1781 H   0  0  0  0  0  0  0  0  0  0  0  0
    4.5620   -2.3750    0.6275 H   0  0  0  0  0  0  0  0  0  0  0  0
    6.1265   -1.3005    2.4146 H   0  0  0  0  0  0  0  0  0  0  0  0
    7.2718   -2.5975    2.0558 H   0  0  0  0  0  0  0  0  0  0  0  0
    5.4364   -4.1661    2.7821 H   0  0  0  0  0  0  0  0  0  0  0  0
    1.7366   -5.2896    4.4501 H   0  0  0  0  0  0  0  0  0  0  0  0
    1.1641   -4.7446    6.0511 H   0  0  0  0  0  0  0  0  0  0  0  0
    2.8111   -5.4152    5.8708 H   0  0  0  0  0  0  0  0  0  0  0  0
    3.4534   -1.7244    6.1866 H   0  0  0  0  0  0  0  0  0  0  0  0
    3.8135   -3.3305    6.8877 H   0  0  0  0  0  0  0  0  0  0  0  0
    2.1922   -2.6143    7.0871 H   0  0  0  0  0  0  0  0  0  0  0  0
    1.8938   -1.5415    4.1837 H   0  0  0  0  0  0  0  0  0  0  0  0
    0.6084   -2.5037    4.9617 H   0  0  0  0  0  0  0  0  0  0  0  0
    1.2698   -3.0144    3.3941 H   0  0  0  0  0  0  0  0  0  0  0  0
    6.0820   -2.3280   -4.2150 H   0  0  0  0  0  0  0  0  0  0  0  0
    6.9736   -0.8243   -4.6092 H   0  0  0  0  0  0  0  0  0  0  0  0
    3.9393   -1.0428   -4.0830 H   0  0  0  0  0  0  0  0  0  0  0  0
    4.7017   -0.8213   -5.6791 H   0  0  0  0  0  0  0  0  0  0  0  0
    4.8125    0.4760   -4.4622 H   0  0  0  0  0  0  0  0  0  0  0  0
    3.9386    0.5644   -2.1345 H   0  0  0  0  0  0  0  0  0  0  0  0
    1.4622    0.4179   -2.1673 H   0  0  0  0  0  0  0  0  0  0  0  0
    0.8289   -2.8521   -0.6699 H   0  0  0  0  0  0  0  0  0  0  0  0
  1  2  1  0
  1 30  1  0
  1 34  1  0
  2  3  2  0
  2 29  1  0
  3  4  1  0
  3 35  1  0
  4  5  2  0
  4 36  1  0
  5  6  1  0
  5 28  1  0
  6  7  1  0
  6 37  1  0
  6 38  1  0
  7  8  1  0
  7 13  1  0
  7 23  1  0
  8  9  2  0
  8 10  1  0
 10 11  1  0
 11 12  1  0
 11 39  1  0
 11 40  1  0
 12 41  1  0
 12 42  1  0
 12 43  1  0
 13 14  1  0
 13 44  1  0
 13 45  1  0
 14 15  1  0
 14 46  1  0
 14 47  1  0
 15 16  1  0
 15 48  1  0
 16 17  2  0
 16 18  1  0
 19 18  1  0
 19 20  1  0
 19 21  1  0
 19 22  1  0
 20 49  1  0
 20 50  1  0
 20 51  1  0
 21 52  1  0
 21 53  1  0
 21 54  1  0
 22 55  1  0
 22 56  1  0
 22 57  1  0
 23 24  2  0
 23 25  1  0
 25 26  1  0
 26 27  1  0
 26 58  1  0
 26 59  1  0
 27 60  1  0
 27 61  1  0
 27 62  1  0
 28 29  2  0
 28 63  1  0
 29 64  1  0
 30 31  2  0
 30 32  2  0
 30 33  1  0
 33 65  1  0
M  END

