65
rmsd56.gzmat
N          0.00000        0.00000        0.00000
C          1.41050        0.00000        0.00000
C          2.15340        0.00000        1.18930
C          3.54100       -0.03630        1.12830
C          4.20370       -0.10700       -0.09800
C          5.69710       -0.18410       -0.14790
C          6.21250       -1.63360       -0.05850
C          7.72470       -1.68910       -0.22530
O          8.36790       -2.64250       -0.57410
O          8.27590       -0.50390        0.12150
C          9.70410       -0.41450        0.10640
C         10.27110       -1.07860        1.34920
C          5.86340       -2.32950        1.26560
C          6.60780       -1.71930        2.46810
N          6.04740       -2.20800        3.72970
C          5.10260       -1.43230        4.37250
O          4.85550       -0.27470        4.10080
O          4.53510       -2.15750        5.36600
C          3.48700       -1.54900        6.16470
C          3.15750       -2.69860        7.12280
C          4.04910       -0.33990        6.90140
C          2.31350       -1.20300        5.25900
C          5.60260       -2.45690       -1.19120
O          4.90960       -3.42990       -1.07570
O          5.97190       -1.92580       -2.37870
C          5.61710       -2.65350       -3.55930
C          4.14880       -2.45690       -3.88980
C          3.45980       -0.10030       -1.27900
C          2.07270       -0.04410       -1.24030
S         -0.98020        0.65430        1.25420
O         -2.32440        0.57260        0.77000
O         -0.58040        0.17160        2.54490
O         -0.48060        2.22330        1.21780
H         -0.43870       -0.09540       -0.91680
H          1.67280        0.00080        2.16910
H          4.11740       -0.00940        2.06010
H          6.14290        0.42480        0.67160
H          6.08220        0.28410       -1.08200
H          9.85090        0.68220        0.09850
H         10.09510       -0.85650       -0.82760
H          9.79700       -0.69670        2.26230
H         11.34970       -0.90470        1.43780
H         10.11800       -2.16750        1.32350
H          6.08210       -3.41650        1.19080
H          4.76300       -2.27650        1.42530
H          6.55320       -0.60250        2.44270
H          7.68990       -1.98550        2.43910
H          6.13260       -3.18960        3.94060
H          2.79820       -3.58060        6.57880
H          2.38390       -2.40190        7.83770
H          4.04450       -3.00830        7.68910
H          4.26630        0.48810        6.20870
H          4.98870       -0.58360        7.41080
H          3.34480        0.03530        7.64990
H          2.54260       -0.34920        4.60340
H          1.42140       -0.93480        5.83480
H          2.04360       -2.04290        4.60670
H          5.87840       -3.71880       -3.42050
H          6.29280       -2.19100       -4.30380
H          3.50640       -2.86110       -3.09190
H          3.87810       -2.97310       -4.81830
H          3.89580       -1.39770       -4.01130
H          3.97390       -0.14180       -2.24060
H          1.50710       -0.03860       -2.16690
H         -0.01830        2.55500        2.00270
