
     RDKit          3D

 65 65  0  0  0  0  0  0  0  0999 V2000
   -0.1178    0.0873   -0.2826 N   0  0  0  0  0  0  0  0  0  0  0  0
    1.2940    0.0010   -0.1703 C   0  0  0  0  0  0  0  0  0  0  0  0
    1.9163   -0.1673    1.0746 C   0  0  0  0  0  0  0  0  0  0  0  0
    3.3054   -0.2673    1.1445 C   0  0  0  0  0  0  0  0  0  0  0  0
    4.1059   -0.2342   -0.0073 C   0  0  0  0  0  0  0  0  0  0  0  0
    5.6023   -0.4055    0.0868 C   0  0  0  0  0  0  0  0  0  0  0  0
    6.0786   -1.8876   -0.0156 C   0  0  0  0  0  0  0  0  0  0  0  0
    5.4082   -2.6506    1.1404 C   0  0  0  0  0  0  0  0  0  0  0  0
    5.5662   -2.3448    2.2972 O   0  0  0  0  0  0  0  0  0  0  0  0
    4.6082   -3.6384    0.7280 O   0  0  0  0  0  0  0  0  0  0  0  0
    3.9072   -4.3990    1.7343 C   0  0  0  0  0  0  0  0  0  0  0  0
    2.6025   -3.7337    2.1297 C   0  0  0  0  0  0  0  0  0  0  0  0
    5.7545   -2.4637   -1.4155 C   0  0  0  0  0  0  0  0  0  0  0  0
    6.3165   -3.8494   -1.7649 C   0  0  0  0  0  0  0  0  0  0  0  0
    7.7234   -3.8598   -2.1147 N   0  0  0  0  0  0  0  0  0  0  0  0
    8.1444   -3.5067   -3.3577 C   0  0  0  0  0  0  0  0  0  0  0  0
    7.4023   -3.1920   -4.2695 O   0  0  0  0  0  0  0  0  0  0  0  0
    9.4968   -3.5536   -3.4185 O   0  0  0  0  0  0  0  0  0  0  0  0
   10.2137   -3.2666   -4.6595 C   0  0  0  0  0  0  0  0  0  0  0  0
   11.6770   -3.4496   -4.2607 C   0  0  0  0  0  0  0  0  0  0  0  0
    9.8148   -4.2794   -5.7348 C   0  0  0  0  0  0  0  0  0  0  0  0
    9.9495   -1.8259   -5.1038 C   0  0  0  0  0  0  0  0  0  0  0  0
    7.5859   -2.0000    0.2476 C   0  0  0  0  0  0  0  0  0  0  0  0
    8.1168   -3.0222    0.6181 O   0  0  0  0  0  0  0  0  0  0  0  0
    8.2378   -0.8651   -0.0143 O   0  0  0  0  0  0  0  0  0  0  0  0
    9.6733   -0.8461    0.1379 C   0  0  0  0  0  0  0  0  0  0  0  0
   10.3489   -0.9962   -1.2110 C   0  0  0  0  0  0  0  0  0  0  0  0
    3.4657   -0.0641   -1.2440 C   0  0  0  0  0  0  0  0  0  0  0  0
    2.0804    0.0636   -1.3287 C   0  0  0  0  0  0  0  0  0  0  0  0
   -1.0213    1.1307    0.6658 S   0  0  0  0  0  0  0  0  0  0  0  0
   -2.3133    1.2148    0.0227 O   0  0  0  0  0  0  0  0  0  0  0  0
   -0.8355    0.7810    2.0654 O   0  0  0  0  0  0  0  0  0  0  0  0
   -0.3001    2.5851    0.4481 O   0  0  0  0  0  0  0  0  0  0  0  0
   -0.4784    0.1111   -1.2342 H   0  0  0  0  0  0  0  0  0  0  0  0
    1.3090   -0.2260    1.9772 H   0  0  0  0  0  0  0  0  0  0  0  0
    3.7821   -0.3993    2.1178 H   0  0  0  0  0  0  0  0  0  0  0  0
    5.9607   -0.0058    1.0447 H   0  0  0  0  0  0  0  0  0  0  0  0
    6.1034    0.1592   -0.7102 H   0  0  0  0  0  0  0  0  0  0  0  0
    4.5704   -4.5258    2.6020 H   0  0  0  0  0  0  0  0  0  0  0  0
    3.7337   -5.3771    1.2643 H   0  0  0  0  0  0  0  0  0  0  0  0
    2.7883   -2.7855    2.6516 H   0  0  0  0  0  0  0  0  0  0  0  0
    2.0392   -4.3955    2.8063 H   0  0  0  0  0  0  0  0  0  0  0  0
    1.9805   -3.5285    1.2454 H   0  0  0  0  0  0  0  0  0  0  0  0
    6.1111   -1.7541   -2.1781 H   0  0  0  0  0  0  0  0  0  0  0  0
    4.6607   -2.5027   -1.5040 H   0  0  0  0  0  0  0  0  0  0  0  0
    5.7564   -4.2253   -2.6333 H   0  0  0  0  0  0  0  0  0  0  0  0
    6.1614   -4.5508   -0.9363 H   0  0  0  0  0  0  0  0  0  0  0  0
    8.4123   -4.0474   -1.3971 H   0  0  0  0  0  0  0  0  0  0  0  0
   11.9537   -2.7417   -3.4653 H   0  0  0  0  0  0  0  0  0  0  0  0
   12.3315   -3.2742   -5.1275 H   0  0  0  0  0  0  0  0  0  0  0  0
   11.8502   -4.4710   -3.8906 H   0  0  0  0  0  0  0  0  0  0  0  0
    8.7596   -4.1615   -6.0102 H   0  0  0  0  0  0  0  0  0  0  0  0
    9.9757   -5.3052   -5.3687 H   0  0  0  0  0  0  0  0  0  0  0  0
   10.4363   -4.1331   -6.6316 H   0  0  0  0  0  0  0  0  0  0  0  0
    8.8942   -1.6861   -5.3670 H   0  0  0  0  0  0  0  0  0  0  0  0
   10.5717   -1.5902   -5.9809 H   0  0  0  0  0  0  0  0  0  0  0  0
   10.2129   -1.1231   -4.2991 H   0  0  0  0  0  0  0  0  0  0  0  0
    9.9629   -1.6488    0.8295 H   0  0  0  0  0  0  0  0  0  0  0  0
    9.8970    0.1275    0.5972 H   0  0  0  0  0  0  0  0  0  0  0  0
   10.1187   -1.9670   -1.6715 H   0  0  0  0  0  0  0  0  0  0  0  0
   11.4415   -0.9218   -1.0914 H   0  0  0  0  0  0  0  0  0  0  0  0
   10.0242   -0.2021   -1.9009 H   0  0  0  0  0  0  0  0  0  0  0  0
    4.0610   -0.0149   -2.1585 H   0  0  0  0  0  0  0  0  0  0  0  0
    1.6030    0.2155   -2.3002 H   0  0  0  0  0  0  0  0  0  0  0  0
    0.3133    2.7265    1.1892 H   0  0  0  0  0  0  0  0  0  0  0  0
  1  2  1  0
  1 30  1  0
  1 34  1  0
  2  3  2  0
  2 29  1  0
  3  4  1  0
  3 35  1  0
  4  5  2  0
  4 36  1  0
  5  6  1  0
  5 28  1  0
  6  7  1  0
  6 37  1  0
  6 38  1  0
  7  8  1  0
  7 13  1  0
  7 23  1  0
  8  9  2  0
  8 10  1  0
 10 11  1  0
 11 12  1  0
 11 39  1  0
 11 40  1  0
 12 41  1  0
 12 42  1  0
 12 43  1  0
 13 14  1  0
 13 44  1  0
 13 45  1  0
 14 15  1  0
 14 46  1  0
 14 47  1  0
 15 16  1  0
 15 48  1  0
 16 17  2  0
 16 18  1  0
 19 18  1  0
 19 20  1  0
 19 21  1  0
 19 22  1  0
 20 49  1  0
 20 50  1  0
 20 51  1  0
 21 52  1  0
 21 53  1  0
 21 54  1  0
 22 55  1  0
 22 56  1  0
 22 57  1  0
 23 24  2  0
 23 25  1  0
 25 26  1  0
 26 27  1  0
 26 58  1  0
 26 59  1  0
 27 60  1  0
 27 61  1  0
 27 62  1  0
 28 29  2  0
 28 63  1  0
 29 64  1  0
 30 31  2  0
 30 32  2  0
 30 33  1  0
 33 65  1  0
M  END

