65
rmsd206.gzmat
N          0.00000        0.00000        0.00000
C          1.41140        0.00000        0.00000
C          2.15170        0.00000        1.19080
C          3.53850       -0.07530        1.13460
C          4.20110       -0.16970       -0.09080
C          5.68970       -0.31070       -0.13310
C          6.12370       -1.79390       -0.13120
C          7.63830       -1.88730       -0.22000
O          8.26900       -2.76810       -0.74940
O          8.21480       -0.85930        0.42980
C          9.65020       -0.92070        0.56560
C         10.01850        0.43250        1.14640
C          5.64690       -2.49760        1.14850
C          6.14350       -3.94580        1.32560
N          7.55120       -4.02850        1.71810
C          7.99300       -3.49700        2.91020
O          9.16620       -3.38830        3.20420
O          6.93870       -3.14530        3.69040
C          7.17380       -2.60510        5.00800
C          5.73090       -2.39090        5.48610
C          7.90670       -3.62880        5.86420
C          7.93270       -1.28840        4.88400
C          5.53210       -2.49210       -1.34900
O          4.77500       -3.42480       -1.35030
O          5.96580       -1.87690       -2.47180
C          5.64040       -2.49850       -3.72070
C          6.50560       -3.73030       -3.91630
C          3.46080       -0.15240       -1.27460
C          2.07530       -0.06680       -1.23850
S         -0.98360        0.78470        1.17270
O         -2.33570        0.49650        0.80550
O         -0.47410        0.59620        2.50120
O         -0.65270        2.35810        0.81080
H         -0.43600       -0.19430       -0.90300
H          1.66230        0.03010        2.16720
H          4.11050       -0.07360        2.06300
H          6.15880        0.21290        0.73040
H          6.11020        0.19820       -1.02890
H         10.09960       -1.10500       -0.42560
H          9.88220       -1.76250        1.24730
H          9.81950        1.24590        0.43770
H         11.08230        0.46540        1.41250
H          9.44170        0.64630        2.05630
H          4.53290       -2.51320        1.15130
H          5.93780       -1.89340        2.03460
H          6.00220       -4.52950        0.38480
H          5.52160       -4.44360        2.11020
H          8.23700       -4.22120        0.99240
H          5.20580       -1.66110        4.86010
H          5.71200       -2.03340        6.51950
H          5.15970       -3.32700        5.44030
H          8.92440       -3.81300        5.48370
H          7.38850       -4.59460        5.86710
H          8.00090       -3.29060        6.90050
H          8.96720       -1.45830        4.54690
H          7.98190       -0.76530        5.84380
H          7.46190       -0.62070        4.15460
H          5.87840       -1.68690       -4.43360
H          4.56050       -2.72830       -3.74580
H          7.56010       -3.51540       -3.68800
H          6.45230       -4.10530       -4.94310
H          6.19790       -4.54600       -3.24580
H          3.97440       -0.21560       -2.23570
H          1.51110       -0.05990       -2.16700
H         -0.35820        2.92430        1.53940
