65
rmsd200.gzmat
N          0.00000        0.00000        0.00000
C          1.41900        0.00000        0.00000
C          2.13740        0.00000        1.20280
C          3.52610        0.03060        1.16950
C          4.20960        0.06340       -0.04800
C          5.70550        0.05790       -0.07430
C          6.27870       -1.35530       -0.30150
C          7.79470       -1.27510       -0.19420
O          8.43590       -0.45040        0.40110
O          8.34840       -2.31290       -0.85440
C          9.78550       -2.37280       -0.86460
C         10.09090       -3.58410       -1.72810
C          5.76460       -2.39490        0.70210
C          6.26180       -2.14920        2.14000
N          5.59120       -3.06210        3.06940
C          4.43580       -2.62150        3.69590
O          4.10140       -1.45990        3.79200
O          3.78420       -3.69100        4.21040
C          2.46360       -3.50210        4.78590
C          2.10310       -4.95100        5.13630
C          2.57680       -2.62980        6.02890
C          1.53910       -2.92100        3.73110
C          5.91610       -1.84680       -1.69940
O          5.29930       -2.83860       -1.97700
O          6.41340       -0.98950       -2.62120
C          6.28300       -1.36020       -3.99680
C          4.86860       -1.10580       -4.48660
C          3.48670        0.10090       -1.24090
C          2.09750        0.06510       -1.22730
S         -0.92030       -1.07160        0.97960
O         -0.39130       -1.14150        2.30660
O         -2.30690       -0.80760        0.71130
O         -0.60210       -2.49670        0.21010
H         -0.42830        0.28480       -0.88080
H          1.62750       -0.02040        2.17010
H          4.07980        0.02280        2.11470
H          6.12050        0.47600        0.87230
H          6.08570        0.74460       -0.86430
H         10.13400       -2.48180        0.17710
H         10.17300       -1.42960       -1.28820
H          9.63200       -4.49430       -1.31760
H         11.17100       -3.75360       -1.80410
H          9.69490       -3.46140       -2.74500
H          6.05250       -3.41440        0.36780
H          4.65040       -2.39460        0.68380
H          6.07690       -1.09210        2.45170
H          7.36080       -2.31510        2.21740
H          5.74580       -4.05130        2.94630
H          2.08450       -5.58080        4.23910
H          1.11760       -5.00160        5.60860
H          2.83780       -5.38730        5.82400
H          2.87620       -1.60260        5.76630
H          3.32750       -3.01830        6.72580
H          1.61950       -2.56350        6.55500
H          1.77410       -1.86680        3.50840
H          0.49020       -2.92830        4.05160
H          1.60100       -3.46850        2.78440
H          6.58560       -2.41610       -4.11930
H          7.02920       -0.69270       -4.46840
H          4.14450       -1.73310       -3.94390
H          4.76760       -1.34450       -5.55160
H          4.57290       -0.05890       -4.35020
H          4.01660        0.14880       -2.19280
H          1.54710        0.07820       -2.16270
H         -1.35450       -3.06580        0.00050
