rmsd5.gzmat
 OpenBabel08211713433D

 65 65  0  0  0  0  0  0  0  0999 V2000
    0.0000    0.0000    0.0000 N   0  0  0  0  0  0  0  0  0  0  0  0
    1.4125    0.0000    0.0000 C   0  0  0  0  0  0  0  0  0  0  0  0
    2.1527    0.0000    1.1902 C   0  0  0  0  0  0  0  0  0  0  0  0
    3.5393   -0.0809    1.1307 C   0  0  0  0  0  0  0  0  0  0  0  0
    4.2010   -0.1732   -0.0955 C   0  0  0  0  0  0  0  0  0  0  0  0
    5.6898   -0.3213   -0.1350 C   0  0  0  0  0  0  0  0  0  0  0  0
    6.1357   -1.8086   -0.1522 C   0  0  0  0  0  0  0  0  0  0  0  0
    5.7081   -2.4067   -1.4818 C   0  0  0  0  0  0  0  0  0  0  0  0
    5.6730   -1.8261   -2.5347 O   0  0  0  0  0  0  0  0  0  0  0  0
    5.3757   -3.7113   -1.3487 O   0  0  0  0  0  0  0  0  0  0  0  0
    4.7661   -4.3532   -2.4764 C   0  0  0  0  0  0  0  0  0  0  0  0
    5.8256   -4.8062   -3.4601 C   0  0  0  0  0  0  0  0  0  0  0  0
    7.6690   -1.8601   -0.0295 C   0  0  0  0  0  0  0  0  0  0  0  0
    8.2787   -3.2585    0.1864 C   0  0  0  0  0  0  0  0  0  0  0  0
    8.2267   -4.1068   -1.0059 N   0  0  0  0  0  0  0  0  0  0  0  0
    9.1421   -3.8511   -2.0131 C   0  0  0  0  0  0  0  0  0  0  0  0
   10.1175   -3.1395   -1.9063 O   0  0  0  0  0  0  0  0  0  0  0  0
    8.7927   -4.5685   -3.1121 O   0  0  0  0  0  0  0  0  0  0  0  0
    9.6391   -4.5236   -4.2835 C   0  0  0  0  0  0  0  0  0  0  0  0
    8.9184   -5.5204   -5.2001 C   0  0  0  0  0  0  0  0  0  0  0  0
    9.6159   -3.1085   -4.8482 C   0  0  0  0  0  0  0  0  0  0  0  0
   11.0409   -5.0017   -3.9277 C   0  0  0  0  0  0  0  0  0  0  0  0
    5.4853   -2.5075    1.0311 C   0  0  0  0  0  0  0  0  0  0  0  0
    6.0012   -2.7267    2.0969 O   0  0  0  0  0  0  0  0  0  0  0  0
    4.2020   -2.7998    0.7471 O   0  0  0  0  0  0  0  0  0  0  0  0
    3.4522   -3.5197    1.7310 C   0  0  0  0  0  0  0  0  0  0  0  0
    3.8393   -4.9873    1.6834 C   0  0  0  0  0  0  0  0  0  0  0  0
    3.4598   -0.1484   -1.2786 C   0  0  0  0  0  0  0  0  0  0  0  0
    2.0743   -0.0637   -1.2394 C   0  0  0  0  0  0  0  0  0  0  0  0
   -0.9774    0.7820    1.1802 S   0  0  0  0  0  0  0  0  0  0  0  0
   -2.3303    0.5492    0.7770 O   0  0  0  0  0  0  0  0  0  0  0  0
   -0.5032    0.5322    2.5112 O   0  0  0  0  0  0  0  0  0  0  0  0
   -0.5862    2.3525    0.8739 O   0  0  0  0  0  0  0  0  0  0  0  0
   -0.4333   -0.1549   -0.9119 H   0  0  0  0  0  0  0  0  0  0  0  0
    1.6664    0.0333    2.1672 H   0  0  0  0  0  0  0  0  0  0  0  0
    4.1124   -0.0905    2.0587 H   0  0  0  0  0  0  0  0  0  0  0  0
    6.1553    0.1920    0.7336 H   0  0  0  0  0  0  0  0  0  0  0  0
    6.1065    0.1880   -1.0350 H   0  0  0  0  0  0  0  0  0  0  0  0
    4.0301   -3.6675   -2.9343 H   0  0  0  0  0  0  0  0  0  0  0  0
    4.2414   -5.1942   -1.9844 H   0  0  0  0  0  0  0  0  0  0  0  0
    6.4413   -3.9583   -3.8028 H   0  0  0  0  0  0  0  0  0  0  0  0
    5.3767   -5.2634   -4.3492 H   0  0  0  0  0  0  0  0  0  0  0  0
    6.5174   -5.5400   -3.0253 H   0  0  0  0  0  0  0  0  0  0  0  0
    7.9802   -1.2243    0.8292 H   0  0  0  0  0  0  0  0  0  0  0  0
    8.1302   -1.3962   -0.9292 H   0  0  0  0  0  0  0  0  0  0  0  0
    7.7670   -3.7993    1.0177 H   0  0  0  0  0  0  0  0  0  0  0  0
    9.3481   -3.1406    0.4974 H   0  0  0  0  0  0  0  0  0  0  0  0
    7.3267   -4.5144   -1.2327 H   0  0  0  0  0  0  0  0  0  0  0  0
    8.7873   -6.4877   -4.6997 H   0  0  0  0  0  0  0  0  0  0  0  0
    9.4889   -5.6885   -6.1184 H   0  0  0  0  0  0  0  0  0  0  0  0
    7.9218   -5.1599   -5.4782 H   0  0  0  0  0  0  0  0  0  0  0  0
   10.1559   -2.4090   -4.1920 H   0  0  0  0  0  0  0  0  0  0  0  0
    8.5904   -2.7313   -4.9405 H   0  0  0  0  0  0  0  0  0  0  0  0
   10.0830   -3.0638   -5.8365 H   0  0  0  0  0  0  0  0  0  0  0  0
   11.5646   -4.2736   -3.2879 H   0  0  0  0  0  0  0  0  0  0  0  0
   11.6528   -5.1507   -4.8225 H   0  0  0  0  0  0  0  0  0  0  0  0
   11.0109   -5.9466   -3.3728 H   0  0  0  0  0  0  0  0  0  0  0  0
    2.4160   -3.3322    1.3884 H   0  0  0  0  0  0  0  0  0  0  0  0
    3.6081   -3.0674    2.7260 H   0  0  0  0  0  0  0  0  0  0  0  0
    3.8532   -5.3595    0.6502 H   0  0  0  0  0  0  0  0  0  0  0  0
    3.1412   -5.6060    2.2574 H   0  0  0  0  0  0  0  0  0  0  0  0
    4.8453   -5.1462    2.0974 H   0  0  0  0  0  0  0  0  0  0  0  0
    3.9715   -0.2024   -2.2435 H   0  0  0  0  0  0  0  0  0  0  0  0
    1.5098   -0.0503   -2.1673 H   0  0  0  0  0  0  0  0  0  0  0  0
   -0.2330    2.8729    1.6107 H   0  0  0  0  0  0  0  0  0  0  0  0
  1  2  1  0  0  0  0
  1 30  1  0  0  0  0
  2  3  2  0  0  0  0
  3 35  1  0  0  0  0
  4  3  1  0  0  0  0
  4 36  1  0  0  0  0
  5  4  2  0  0  0  0
  6  5  1  0  0  0  0
  6 37  1  0  0  0  0
  7  6  1  0  0  0  0
  7 13  1  0  0  0  0
  7 23  1  0  0  0  0
  8 10  1  0  0  0  0
  8  7  1  0  0  0  0
  9  8  2  0  0  0  0
 11 40  1  0  0  0  0
 11 10  1  0  0  0  0
 12 43  1  0  0  0  0
 12 11  1  0  0  0  0
 13 14  1  0  0  0  0
 13 44  1  0  0  0  0
 14 47  1  0  0  0  0
 14 46  1  0  0  0  0
 15 14  1  0  0  0  0
 16 17  2  0  0  0  0
 16 15  1  0  0  0  0
 18 16  1  0  0  0  0
 19 22  1  0  0  0  0
 19 18  1  0  0  0  0
 20 49  1  0  0  0  0
 20 19  1  0  0  0  0
 21 19  1  0  0  0  0
 21 52  1  0  0  0  0
 22 57  1  0  0  0  0
 22 55  1  0  0  0  0
 23 24  2  0  0  0  0
 25 23  1  0  0  0  0
 25 26  1  0  0  0  0
 26 59  1  0  0  0  0
 27 26  1  0  0  0  0
 27 62  1  0  0  0  0
 27 61  1  0  0  0  0
 28 29  2  0  0  0  0
 28  5  1  0  0  0  0
 29  2  1  0  0  0  0
 30 32  1  0  0  0  0
 31 30  1  0  0  0  0
 33 30  1  0  0  0  0
 33 65  1  0  0  0  0
 34  1  1  0  0  0  0
 38  6  1  0  0  0  0
 39 11  1  0  0  0  0
 41 12  1  0  0  0  0
 42 12  1  0  0  0  0
 45 13  1  0  0  0  0
 48 15  1  0  0  0  0
 50 20  1  0  0  0  0
 51 20  1  0  0  0  0
 53 21  1  0  0  0  0
 54 21  1  0  0  0  0
 56 22  1  0  0  0  0
 58 26  1  0  0  0  0
 60 27  1  0  0  0  0
 63 28  1  0  0  0  0
 64 29  1  0  0  0  0
M  RAD  2  31   2  32   2
M  END
$$$$
