65

N         -0.25040       -0.05530        0.09400
C          1.16800       -0.10930        0.06030
C          1.91880       -0.06790        1.24350
C          3.30990       -0.13580        1.17860
C          3.98680       -0.27250       -0.04250
C          5.48990       -0.39820       -0.08550
C          5.99950       -1.87220       -0.12040
C          7.53310       -1.89580       -0.18510
O          8.16420       -2.65490       -0.88620
O          8.08540       -1.01640        0.64870
C          9.53190       -0.99340        0.73020
C          9.92440        0.22990        1.52660
C          5.51210       -2.63890        1.13090
C          6.11570       -4.02740        1.37910
N          7.53200       -4.02120        1.71410
C          8.07420       -3.50230        2.85020
O          9.27030       -3.33850        3.01900
O          7.10940       -3.20070        3.74380
C          7.41930       -2.58910        5.03330
C          6.03880       -2.39220        5.65670
C          8.26550       -3.54710        5.87310
C          8.11390       -1.24200        4.82160
C          5.50970       -2.56980       -1.39590
O          4.90590       -3.61310       -1.42860
O          5.83170       -1.85700       -2.48570
C          5.60640       -2.47240       -3.76870
C          6.73670       -3.42280       -4.11830
C          3.21820       -0.31830       -1.21540
C          1.82830       -0.22570       -1.16970
S         -1.05970        1.18900        0.86970
O         -2.42550        1.11420        0.40220
O         -0.68210        1.19510        2.27440
O         -0.42010        2.54640        0.21040
H         -0.71510       -0.24920       -0.79090
H          1.40740        0.01610        2.20170
H          3.88470       -0.09680        2.10700
H          5.93200        0.07520        0.80050
H          5.88700        0.12210       -0.96790
H          9.93530       -0.97760       -0.29310
H          9.85760       -1.92100        1.22320
H          9.57210        1.15270        1.04020
H         11.02070        0.27940        1.61260
H          9.50390        0.18520        2.54170
H          4.42230       -2.75250        1.04410
H          5.70450       -2.01500        2.01490
H          5.98360       -4.65820        0.49170
H          5.55850       -4.49620        2.20340
H          8.20500       -4.20350        0.97970
H          5.42450       -1.72410        5.03410
H          6.13290       -1.94750        6.65850
H          5.51680       -3.35610        5.74810
H          9.24500       -3.71130        5.40760
H          7.75280       -4.51580        5.97640
H          8.41340       -3.12730        6.88000
H          9.11150       -1.38130        4.38880
H          8.21130       -0.71990        5.78570
H          7.51830       -0.60900        4.14560
H          5.55100       -1.63100       -4.47380
H          4.63680       -2.99130       -3.74780
H          7.70650       -2.90570       -4.07500
H          6.59090       -3.82080       -5.13490
H          6.76460       -4.26670       -3.41470
H          3.71830       -0.41180       -2.18080
H          1.24790       -0.24010       -2.09590
H          0.27640        2.86550        0.80920
