
     RDKit          3D

 31 33  0  0  0  0  0  0  0  0999 V2000
    0.0721   -0.0087   -0.0408 O   0  0  0  0  0  0  0  0  0  0  0  0
    1.4216    0.0278    0.0696 C   0  0  0  0  0  0  0  0  0  0  0  0
    1.8421    0.0330    1.3726 C   0  0  0  0  0  0  0  0  0  0  0  0
    0.6230    0.0314    2.1707 C   0  0  0  0  0  0  0  0  0  0  0  0
    0.2986    0.0967    3.5376 C   0  0  0  0  0  0  0  0  0  0  0  0
   -1.0463    0.1069    3.9032 C   0  0  0  0  0  0  0  0  0  0  0  0
   -2.0729    0.0595    2.9393 C   0  0  0  0  0  0  0  0  0  0  0  0
   -1.7787    0.0121    1.5762 C   0  0  0  0  0  0  0  0  0  0  0  0
   -0.4308    0.0052    1.2317 C   0  0  0  0  0  0  0  0  0  0  0  0
    3.2815    0.1176    1.7384 C   0  0  0  0  0  0  0  0  0  0  0  0
    4.0646    0.6852    0.9905 O   0  0  0  0  0  0  0  0  0  0  0  0
    3.7524   -0.5090    3.0060 C   0  0  0  0  0  0  0  0  0  0  0  0
    4.9669   -0.0711    3.5540 C   0  0  0  0  0  0  0  0  0  0  0  0
    5.4867   -0.6411    4.7136 C   0  0  0  0  0  0  0  0  0  0  0  0
    4.7962   -1.6958    5.3373 C   0  0  0  0  0  0  0  0  0  0  0  0
    3.5916   -2.1626    4.7806 C   0  0  0  0  0  0  0  0  0  0  0  0
    3.0770   -1.5725    3.6345 C   0  0  0  0  0  0  0  0  0  0  0  0
    5.2134   -2.3194    6.4604 O   0  0  0  0  0  0  0  0  0  0  0  0
    6.4214   -1.9145    7.0674 C   0  0  0  0  0  0  0  0  0  0  0  0
    1.9883    0.0369   -0.8577 H   0  0  0  0  0  0  0  0  0  0  0  0
    1.0803    0.1416    4.2962 H   0  0  0  0  0  0  0  0  0  0  0  0
   -1.3121    0.1559    4.9615 H   0  0  0  0  0  0  0  0  0  0  0  0
   -3.1159    0.0677    3.2632 H   0  0  0  0  0  0  0  0  0  0  0  0
   -2.5562   -0.0118    0.8113 H   0  0  0  0  0  0  0  0  0  0  0  0
    5.5006    0.7339    3.0455 H   0  0  0  0  0  0  0  0  0  0  0  0
    6.4249   -0.2662    5.1213 H   0  0  0  0  0  0  0  0  0  0  0  0
    3.0840   -2.9954    5.2702 H   0  0  0  0  0  0  0  0  0  0  0  0
    2.1489   -1.9557    3.2089 H   0  0  0  0  0  0  0  0  0  0  0  0
    6.5564   -2.5533    7.9498 H   0  0  0  0  0  0  0  0  0  0  0  0
    6.3824   -0.8590    7.3898 H   0  0  0  0  0  0  0  0  0  0  0  0
    7.2833   -2.0487    6.3903 H   0  0  0  0  0  0  0  0  0  0  0  0
  1  2  1  0
  1  9  1  0
  2  3  2  0
  2 20  1  0
  3  4  1  0
  3 10  1  0
  4  5  1  0
  4  9  2  0
  5  6  2  0
  5 21  1  0
  6  7  1  0
  6 22  1  0
  7  8  2  0
  7 23  1  0
  8  9  1  0
  8 24  1  0
 10 11  2  0
 10 12  1  0
 12 13  2  0
 12 17  1  0
 13 14  1  0
 13 25  1  0
 14 15  2  0
 14 26  1  0
 15 16  1  0
 15 18  1  0
 16 17  2  0
 16 27  1  0
 17 28  1  0
 18 19  1  0
 19 29  1  0
 19 30  1  0
 19 31  1  0
M  END

