rmsd32.gzmat
 OpenBabel08211713393D

 31 33  0  0  0  0  0  0  0  0999 V2000
    0.0000    0.0000    0.0000 O   0  0  0  0  0  0  0  0  0  0  0  0
    1.3802    0.0000    0.0000 C   0  0  0  0  0  0  0  0  0  0  0  0
    1.8990    0.0000    1.2663 C   0  0  0  0  0  0  0  0  0  0  0  0
    0.7676    0.0260    2.1715 C   0  0  0  0  0  0  0  0  0  0  0  0
    0.5869    0.0671    3.5501 C   0  0  0  0  0  0  0  0  0  0  0  0
   -0.7153    0.0934    4.0415 C   0  0  0  0  0  0  0  0  0  0  0  0
   -1.8284    0.0891    3.1857 C   0  0  0  0  0  0  0  0  0  0  0  0
   -1.6811    0.0554    1.8014 C   0  0  0  0  0  0  0  0  0  0  0  0
   -0.3777    0.0264    1.3359 C   0  0  0  0  0  0  0  0  0  0  0  0
    3.3255    0.0332    1.5946 C   0  0  0  0  0  0  0  0  0  0  0  0
    4.0992    0.6307    0.8772 O   0  0  0  0  0  0  0  0  0  0  0  0
    3.8042   -0.6816    2.7947 C   0  0  0  0  0  0  0  0  0  0  0  0
    4.9584   -0.2162    3.4272 C   0  0  0  0  0  0  0  0  0  0  0  0
    5.4682   -0.8752    4.5428 C   0  0  0  0  0  0  0  0  0  0  0  0
    4.8101   -2.0187    4.9988 C   0  0  0  0  0  0  0  0  0  0  0  0
    3.6502   -2.5071    4.3685 C   0  0  0  0  0  0  0  0  0  0  0  0
    3.1573   -1.8310    3.2655 C   0  0  0  0  0  0  0  0  0  0  0  0
    5.1847   -2.7753    6.0594 O   0  0  0  0  0  0  0  0  0  0  0  0
    6.3684   -2.3978    6.7503 C   0  0  0  0  0  0  0  0  0  0  0  0
    1.8030   -0.0072   -0.9844 H   0  0  0  0  0  0  0  0  0  0  0  0
    1.4434    0.0779    4.2224 H   0  0  0  0  0  0  0  0  0  0  0  0
   -0.8801    0.1194    5.1183 H   0  0  0  0  0  0  0  0  0  0  0  0
   -2.8291    0.1168    3.6156 H   0  0  0  0  0  0  0  0  0  0  0  0
   -2.5320    0.0552    1.1286 H   0  0  0  0  0  0  0  0  0  0  0  0
    5.4651    0.6714    3.0359 H   0  0  0  0  0  0  0  0  0  0  0  0
    6.3595   -0.4995    5.0309 H   0  0  0  0  0  0  0  0  0  0  0  0
    3.1667   -3.4026    4.7492 H   0  0  0  0  0  0  0  0  0  0  0  0
    2.2629   -2.1981    2.7557 H   0  0  0  0  0  0  0  0  0  0  0  0
    6.4429   -3.1744    7.5249 H   0  0  0  0  0  0  0  0  0  0  0  0
    6.2541   -1.4104    7.2081 H   0  0  0  0  0  0  0  0  0  0  0  0
    7.2382   -2.4369    6.0866 H   0  0  0  0  0  0  0  0  0  0  0  0
  1  9  1  0  0  0  0
  2  1  1  0  0  0  0
  2  3  2  0  0  0  0
  3 10  1  0  0  0  0
  3  4  1  0  0  0  0
  4  5  2  0  0  0  0
  5  6  1  0  0  0  0
  5 21  1  0  0  0  0
  6 22  1  0  0  0  0
  7 23  1  0  0  0  0
  7  6  2  0  0  0  0
  8  7  1  0  0  0  0
  9  8  2  0  0  0  0
  9  4  1  0  0  0  0
 10 12  1  0  0  0  0
 11 10  2  0  0  0  0
 12 17  2  0  0  0  0
 12 13  1  0  0  0  0
 13 14  2  0  0  0  0
 14 15  1  0  0  0  0
 14 26  1  0  0  0  0
 15 18  1  0  0  0  0
 16 27  1  0  0  0  0
 16 15  2  0  0  0  0
 17 16  1  0  0  0  0
 18 19  1  0  0  0  0
 19 30  1  0  0  0  0
 19 29  1  0  0  0  0
 20  2  1  0  0  0  0
 24  8  1  0  0  0  0
 25 13  1  0  0  0  0
 28 17  1  0  0  0  0
 31 19  1  0  0  0  0
M  END
$$$$
