31
rmsd1.gzmat
O          0.00000        0.00000        0.00000
C          1.38010        0.00000        0.00000
C          1.89850        0.00000        1.26650
C          0.76710       -0.02720        2.17170
C          0.58780       -0.07670        3.55020
C         -0.71400       -0.11010        4.04170
C         -1.82750       -0.09920        3.18660
C         -1.68120       -0.05880        1.80220
C         -0.37810       -0.02690        1.33630
C          3.32270       -0.03060        1.60260
O          4.10950       -0.59410        0.87300
C          3.77660        0.64420        2.83630
C          4.87880        0.11000        3.51820
C          5.35520        0.72460        4.66390
C          4.72450        1.89940        5.11140
C          3.63370        2.45170        4.43680
C          3.16540        1.81100        3.29290
O          5.29170        2.39930        6.23660
C          4.78390        3.62750        6.74090
H          1.80310        0.00600       -0.98460
H          1.44510       -0.09250        4.22170
H         -0.87720       -0.15020        5.11810
H         -2.82780       -0.12790        3.61740
H         -2.53190       -0.05800        1.12920
H          5.36220       -0.79310        3.13250
H          6.20490        0.32660        5.21240
H          3.15440        3.35970        4.78380
H          2.31460        2.22970        2.74960
H          5.43540        3.80570        7.60830
H          3.74270        3.51930        7.05980
H          4.89820        4.43080        6.00610
