31
rmsd23.gzmat
O          0.00000        0.00000        0.00000
C          1.37820        0.00000        0.00000
C          1.89830        0.00000        1.26740
C          0.76610        0.02430        2.17290
C          0.58150        0.06710        3.55080
C         -0.72110        0.07830        4.04150
C         -1.83290        0.06180        3.18490
C         -1.68280        0.03670        1.80010
C         -0.37870        0.01960        1.33690
C          3.32310        0.01840        1.59180
O          4.13410        0.40010        0.77620
C          3.74780       -0.43210        2.93550
C          4.68420        0.33060        3.63130
C          5.11060       -0.06150        4.89850
C          4.59500       -1.24030        5.43860
C          3.66690       -2.03300        4.73850
C          3.24960       -1.61920        3.48460
O          4.90080       -1.75040        6.65770
C          5.87990       -1.06690        7.42860
H          1.80260       -0.00360       -0.98490
H          1.43480        0.09290        4.22730
H         -0.88340        0.10220        5.11850
H         -2.83440        0.07230        3.61340
H         -2.53260        0.03290        1.12590
H          5.08510        1.24000        3.17590
H          5.83150        0.54180        5.43740
H          3.29720       -2.95110        5.18810
H          2.53130       -2.21920        2.92130
H          5.93290       -1.68500        8.33590
H          5.54930       -0.05330        7.67400
H          6.84650       -1.06120        6.91510
