
     RDKit          3D

 31 33  0  0  0  0  0  0  0  0999 V2000
    0.0604   -0.0291   -0.0325 O   0  0  0  0  0  0  0  0  0  0  0  0
    1.4099   -0.0660    0.0811 C   0  0  0  0  0  0  0  0  0  0  0  0
    1.8278   -0.0506    1.3848 C   0  0  0  0  0  0  0  0  0  0  0  0
    0.6072   -0.0343    2.1802 C   0  0  0  0  0  0  0  0  0  0  0  0
    0.2801   -0.0776    3.5474 C   0  0  0  0  0  0  0  0  0  0  0  0
   -1.0655   -0.0803    3.9106 C   0  0  0  0  0  0  0  0  0  0  0  0
   -2.0902   -0.0464    2.9441 C   0  0  0  0  0  0  0  0  0  0  0  0
   -1.7935   -0.0209    1.5810 C   0  0  0  0  0  0  0  0  0  0  0  0
   -0.4449   -0.0215    1.2389 C   0  0  0  0  0  0  0  0  0  0  0  0
    3.2665   -0.1320    1.7555 C   0  0  0  0  0  0  0  0  0  0  0  0
    4.0496   -0.7165    1.0210 O   0  0  0  0  0  0  0  0  0  0  0  0
    3.7373    0.5197    3.0099 C   0  0  0  0  0  0  0  0  0  0  0  0
    3.0641    1.5913    3.6110 C   0  0  0  0  0  0  0  0  0  0  0  0
    3.5736    2.2193    4.7494 C   0  0  0  0  0  0  0  0  0  0  0  0
    4.7777    1.7655    5.3113 C   0  0  0  0  0  0  0  0  0  0  0  0
    5.4679    0.6952    4.7078 C   0  0  0  0  0  0  0  0  0  0  0  0
    4.9594    0.0944    3.5688 C   0  0  0  0  0  0  0  0  0  0  0  0
    5.3491    2.2921    6.4158 O   0  0  0  0  0  0  0  0  0  0  0  0
    4.7182    3.3699    7.0723 C   0  0  0  0  0  0  0  0  0  0  0  0
    1.9782   -0.0916   -0.8449 H   0  0  0  0  0  0  0  0  0  0  0  0
    1.0609   -0.1127    4.3076 H   0  0  0  0  0  0  0  0  0  0  0  0
   -1.3335   -0.1134    4.9691 H   0  0  0  0  0  0  0  0  0  0  0  0
   -3.1339   -0.0485    3.2662 H   0  0  0  0  0  0  0  0  0  0  0  0
   -2.5695   -0.0083    0.8144 H   0  0  0  0  0  0  0  0  0  0  0  0
    2.1348    1.9623    3.1771 H   0  0  0  0  0  0  0  0  0  0  0  0
    3.0308    3.0577    5.1842 H   0  0  0  0  0  0  0  0  0  0  0  0
    6.4052    0.3661    5.1599 H   0  0  0  0  0  0  0  0  0  0  0  0
    5.4944   -0.7212    3.0791 H   0  0  0  0  0  0  0  0  0  0  0  0
    5.3512    3.6257    7.9319 H   0  0  0  0  0  0  0  0  0  0  0  0
    3.7122    3.0941    7.4351 H   0  0  0  0  0  0  0  0  0  0  0  0
    4.6301    4.2528    6.4148 H   0  0  0  0  0  0  0  0  0  0  0  0
  1  2  1  0
  1  9  1  0
  2  3  2  0
  2 20  1  0
  3  4  1  0
  3 10  1  0
  4  5  1  0
  4  9  2  0
  5  6  2  0
  5 21  1  0
  6  7  1  0
  6 22  1  0
  7  8  2  0
  7 23  1  0
  8  9  1  0
  8 24  1  0
 10 11  2  0
 10 12  1  0
 12 13  2  0
 12 17  1  0
 13 14  1  0
 13 25  1  0
 14 15  2  0
 14 26  1  0
 15 16  1  0
 15 18  1  0
 16 17  2  0
 16 27  1  0
 17 28  1  0
 18 19  1  0
 19 29  1  0
 19 30  1  0
 19 31  1  0
M  END

