31
rmsd33.gzmat
O          0.00000        0.00000        0.00000
C          1.37940        0.00000        0.00000
C          1.89890        0.00000        1.26680
C          0.76710        0.02940        2.17200
C          0.58330        0.07940        3.55000
C         -0.71950        0.10850        4.03950
C         -1.83170        0.09950        3.18300
C         -1.68190        0.06070        1.79900
C         -0.37770        0.02810        1.33600
C          3.32670        0.02470        1.58870
O          4.11220        0.54650        0.82650
C          3.78900       -0.60350        2.84350
C          4.89910       -0.06370        3.49400
C          5.37350       -0.63400        4.67300
C          4.72530       -1.76430        5.17340
C          3.61740       -2.33390        4.51880
C          3.15920       -1.74600        3.35260
O          5.05970       -2.43170        6.30490
C          6.20650       -1.98870        7.01840
H          1.80280       -0.00270       -0.98500
H          1.43810        0.09710        4.22490
H         -0.88370        0.14200        5.11610
H         -2.83320        0.12980        3.61080
H         -2.53090        0.06180        1.12380
H          5.39990        0.81160        3.06920
H          6.23150       -0.20350        5.17590
H          3.14430       -3.22070        4.93200
H          2.30480       -2.17560        2.82310
H          6.25430       -2.70970        7.84710
H          6.06110       -0.97430        7.40200
H          7.10520       -2.05960        6.39750
