rmsd103.gzmat
 OpenBabel08211713363D

 35 37  0  0  1  0  0  0  0  0999 V2000
    0.0000    0.0000    0.0000 C   0  0  0  0  0  0  0  0  0  0  0  0
    1.4131    0.0000    0.0000 C   0  0  0  0  0  0  0  0  0  0  0  0
    2.1395    0.0000    1.1761 C   0  0  0  0  0  0  0  0  0  0  0  0
    1.4287   -0.0060    2.3798 C   0  0  0  0  0  0  0  0  0  0  0  0
   -0.0427   -0.0040    2.3875 C   0  0  0  0  0  0  0  0  0  0  0  0
   -0.7397   -0.0021    1.2024 C   0  0  0  0  0  0  0  0  0  0  0  0
   -0.4905   -0.0127    3.7031 N   0  0  0  0  0  0  0  0  0  0  0  0
    0.6075   -0.0239    4.4923 C   0  0  0  0  0  0  0  0  0  0  0  0
    1.8008   -0.0191    3.6894 N   0  0  0  0  0  0  0  0  0  0  0  0
    2.7378   -0.0206    4.1388 H   0  0  0  0  0  0  0  0  0  0  0  0
    0.7014   -0.0470    5.9053 C   0  0  1  0  0  0  0  0  0  0  0  0
   -0.4641   -0.0638    6.6951 C   0  0  0  0  0  0  0  0  0  0  0  0
   -0.3393   -0.0971    8.0603 C   0  0  0  0  0  0  0  0  0  0  0  0
   -1.4788    0.0312    8.8510 O   0  0  0  0  0  0  0  0  0  0  0  0
   -2.0663   -1.1619    9.1992 C   0  0  0  0  0  0  0  0  0  0  0  0
   -3.0390   -0.9117   10.0656 F   0  0  0  0  0  0  0  0  0  0  0  0
   -2.6232   -1.8005    8.1769 F   0  0  0  0  0  0  0  0  0  0  0  0
   -1.2478   -2.0298    9.7805 F   0  0  0  0  0  0  0  0  0  0  0  0
    0.9149   -0.1155    8.7275 C   0  0  0  0  0  0  0  0  0  0  0  0
    2.0555   -0.0983    7.9893 C   0  0  0  0  0  0  0  0  0  0  0  0
    2.0053   -0.0629    6.5366 C   0  0  0  0  0  0  0  0  0  0  0  0
    3.0491   -0.0476    5.8678 O   0  0  0  0  0  0  0  0  0  0  0  0
   -0.7190    0.0083   -1.2539 C   0  0  0  0  0  0  0  0  0  0  0  0
   -1.8315    0.7727   -1.4054 N   0  0  0  0  0  0  0  0  0  0  0  0
   -2.4052    0.7656   -2.2251 H   0  0  0  0  0  0  0  0  0  0  0  0
   -2.1381    1.3637   -0.6410 H   0  0  0  0  0  0  0  0  0  0  0  0
   -0.3005   -0.7447   -2.3051 N   0  0  0  0  0  0  0  0  0  0  0  0
    1.9485    0.0283   -0.9482 H   0  0  0  0  0  0  0  0  0  0  0  0
    3.2273    0.0087    1.1719 H   0  0  0  0  0  0  0  0  0  0  0  0
   -1.8268   -0.0339    1.2158 H   0  0  0  0  0  0  0  0  0  0  0  0
   -1.4436   -0.0459    6.2092 H   0  0  0  0  0  0  0  0  0  0  0  0
    0.9294   -0.1354    9.8169 H   0  0  0  0  0  0  0  0  0  0  0  0
    3.0440   -0.1099    8.4358 H   0  0  0  0  0  0  0  0  0  0  0  0
    0.4916   -1.3634   -2.1979 H   0  0  0  0  0  0  0  0  0  0  0  0
   -0.7373   -0.7320   -3.2054 H   0  0  0  0  0  0  0  0  0  0  0  0
  1  2  1  0  0  0  0
  1  6  2  0  0  0  0
  2  3  1  0  0  0  0
  3  4  2  0  0  0  0
  4  5  1  0  0  0  0
  4  9  1  0  0  0  0
  5  7  2  0  0  0  0
  6 30  1  0  0  0  0
  6  5  1  0  0  0  0
  7  8  2  0  0  0  0
  9 10  1  0  0  0  0
  9  8  1  0  0  0  0
 11  8  1  6  0  0  0
 11 21  1  0  0  0  0
 11 12  1  0  0  0  0
 12 13  2  0  0  0  0
 13 19  1  0  0  0  0
 13 14  1  0  0  0  0
 14 15  1  0  0  0  0
 15 18  1  0  0  0  0
 15 16  1  0  0  0  0
 17 15  1  0  0  0  0
 19 32  1  0  0  0  0
 20 33  1  0  0  0  0
 20 19  2  0  0  0  0
 21 20  1  0  0  0  0
 22 21  2  0  0  0  0
 23  1  1  0  0  0  0
 24 23  1  0  0  0  0
 24 26  1  0  0  0  0
 25 24  1  0  0  0  0
 27 34  1  0  0  0  0
 27 23  2  0  0  0  0
 28  2  1  0  0  0  0
 29  3  1  0  0  0  0
 31 12  1  0  0  0  0
 35 27  1  0  0  0  0
M  RAD  2   2   2  11   2
M  END
$$$$
