35
rmsd146.gzmat
C          0.00000        0.00000        0.00000
C          1.41330        0.00000        0.00000
C          2.13910        0.00000        1.17620
C          1.42860       -0.00670        2.37960
C         -0.04270       -0.01570        2.38810
C         -0.73890       -0.01410        1.20240
N         -0.48940       -0.02030        3.70420
C          0.60920       -0.01040        4.49280
N          1.80190       -0.00320        3.68880
H          2.73970        0.00290        4.13530
C          0.70390       -0.00280        5.90570
C         -0.46090       -0.01000        6.69620
C         -0.33670       -0.00130        8.06200
O         -1.48280       -0.16160        8.83660
C         -2.05450        1.01420        9.26180
F         -2.21410        1.93230        8.31760
F         -3.26100        0.74370        9.74270
F         -1.37780        1.59990       10.24340
C          0.91680        0.02100        8.72970
C          2.05710        0.02990        7.99030
C          2.00780        0.01660        6.53720
O          3.05140        0.02160        5.86830
C         -0.71890        0.03410       -1.25370
N         -1.83080        0.80250       -1.38820
H         -2.40210        0.81770       -2.20980
H         -2.13560        1.37890       -0.61150
N         -0.29900       -0.69400       -2.32200
H          1.94950        0.03080       -0.94760
H          3.22710        0.01170        1.17370
H         -1.82570       -0.05080        1.21430
H         -1.44140       -0.02950        6.21220
H          0.93360        0.02200        9.81890
H          3.04560        0.04520        8.43670
H          0.48920       -1.31890       -2.22640
H         -0.73170       -0.65690       -3.22340
