35
rmsd10.gzmat
C          0.00000        0.00000        0.00000
C          1.41280        0.00000        0.00000
C          2.13830        0.00000        1.17650
C          1.42650        0.01060        2.37920
C         -0.04480        0.01600        2.38740
C         -0.74080        0.00830        1.20160
N         -0.49170        0.03170        3.70320
C          0.60720        0.03940        4.49190
N          1.79950        0.02680        3.68850
H          2.73680        0.00350        4.13590
C          0.70310        0.06090        5.90450
C         -0.46000        0.13250        6.69440
C         -0.33530        0.14410        8.06000
O         -1.48790        0.07120        8.83890
C         -1.98160        1.29050        9.23940
F         -2.20160        2.14830        8.25120
F         -3.14720        1.09250        9.84160
F         -1.20400        1.91770       10.11470
C          0.91730        0.08110        8.72710
C          2.05620        0.01580        7.98850
C          2.00630        0.01130        6.53550
O          3.04870       -0.03540        5.86610
C         -0.71860       -0.02150       -1.25450
N         -0.31340        0.73760       -2.30620
H         -0.74690        0.71340       -3.20790
H          0.46200        1.37760       -2.19590
N         -1.81560       -0.80800       -1.40360
H          1.94830       -0.02900       -0.94800
H          3.22610       -0.01030        1.17480
H         -1.82820        0.03700        1.21210
H         -1.43900        0.17250        6.20880
H          0.93390        0.07780        9.81640
H          3.04330       -0.03540        8.43580
H         -2.10500       -1.40790       -0.63910
H         -2.39340       -0.81210       -2.22040
