rmsd150.gzmat
 OpenBabel08211713363D

 35 37  0  0  1  0  0  0  0  0999 V2000
    0.0000    0.0000    0.0000 C   0  0  0  0  0  0  0  0  0  0  0  0
    1.4133    0.0000    0.0000 C   0  0  0  0  0  0  0  0  0  0  0  0
    2.1404    0.0000    1.1754 C   0  0  0  0  0  0  0  0  0  0  0  0
    1.4299   -0.0024    2.3791 C   0  0  0  0  0  0  0  0  0  0  0  0
   -0.0413   -0.0116    2.3881 C   0  0  0  0  0  0  0  0  0  0  0  0
   -0.7385   -0.0131    1.2030 C   0  0  0  0  0  0  0  0  0  0  0  0
   -0.4872   -0.0126    3.7045 N   0  0  0  0  0  0  0  0  0  0  0  0
    0.6119    0.0008    4.4925 C   0  0  0  0  0  0  0  0  0  0  0  0
    1.8039    0.0057    3.6879 N   0  0  0  0  0  0  0  0  0  0  0  0
    2.7424    0.0112    4.1337 H   0  0  0  0  0  0  0  0  0  0  0  0
    0.7091    0.0143    5.9053 C   0  0  2  0  0  0  0  0  0  0  0  0
   -0.4541    0.0181    6.6984 C   0  0  0  0  0  0  0  0  0  0  0  0
   -0.3275    0.0309    8.0641 C   0  0  0  0  0  0  0  0  0  0  0  0
   -1.4737   -0.1167    8.8410 O   0  0  0  0  0  0  0  0  0  0  0  0
   -2.0348    1.0658    9.2619 C   0  0  0  0  0  0  0  0  0  0  0  0
   -2.2070    1.9720    8.3084 F   0  0  0  0  0  0  0  0  0  0  0  0
   -3.2342    0.8045    9.7652 F   0  0  0  0  0  0  0  0  0  0  0  0
   -1.3427    1.6633   10.2256 F   0  0  0  0  0  0  0  0  0  0  0  0
    0.9273    0.0435    8.7296 C   0  0  0  0  0  0  0  0  0  0  0  0
    2.0659    0.0422    7.9877 C   0  0  0  0  0  0  0  0  0  0  0  0
    2.0138    0.0290    6.5347 C   0  0  0  0  0  0  0  0  0  0  0  0
    3.0566    0.0295    5.8643 O   0  0  0  0  0  0  0  0  0  0  0  0
   -0.7193    0.0308   -1.2531 C   0  0  0  0  0  0  0  0  0  0  0  0
   -0.2968   -0.6937   -2.3228 N   0  0  0  0  0  0  0  0  0  0  0  0
   -0.7318   -0.6578   -3.2233 H   0  0  0  0  0  0  0  0  0  0  0  0
    0.4956   -1.3137   -2.2300 H   0  0  0  0  0  0  0  0  0  0  0  0
   -1.8366    0.7916   -1.3874 N   0  0  0  0  0  0  0  0  0  0  0  0
    1.9495    0.0309   -0.9473 H   0  0  0  0  0  0  0  0  0  0  0  0
    3.2282    0.0089    1.1712 H   0  0  0  0  0  0  0  0  0  0  0  0
   -1.8255   -0.0509    1.2156 H   0  0  0  0  0  0  0  0  0  0  0  0
   -1.4351    0.0046    6.2153 H   0  0  0  0  0  0  0  0  0  0  0  0
    0.9468    0.0457    9.8191 H   0  0  0  0  0  0  0  0  0  0  0  0
    3.0555    0.0498    8.4318 H   0  0  0  0  0  0  0  0  0  0  0  0
   -2.1475    1.3635   -0.6102 H   0  0  0  0  0  0  0  0  0  0  0  0
   -2.4078    0.8017   -2.2091 H   0  0  0  0  0  0  0  0  0  0  0  0
  1  2  1  0  0  0  0
  1  6  2  0  0  0  0
  2  3  1  0  0  0  0
  3  4  2  0  0  0  0
  4  5  1  0  0  0  0
  4  9  1  0  0  0  0
  5  7  2  0  0  0  0
  6 30  1  0  0  0  0
  6  5  1  0  0  0  0
  7  8  2  0  0  0  0
  9 10  1  0  0  0  0
  9  8  1  0  0  0  0
 11  8  1  6  0  0  0
 11 21  1  0  0  0  0
 11 12  1  0  0  0  0
 12 13  2  0  0  0  0
 13 19  1  0  0  0  0
 13 14  1  0  0  0  0
 14 15  1  0  0  0  0
 15 17  1  0  0  0  0
 15 18  1  0  0  0  0
 16 15  1  0  0  0  0
 19 32  1  0  0  0  0
 20 33  1  0  0  0  0
 20 19  2  0  0  0  0
 21 20  1  0  0  0  0
 22 21  2  0  0  0  0
 23  1  1  0  0  0  0
 24 26  1  0  0  0  0
 24 23  2  0  0  0  0
 25 24  1  0  0  0  0
 27 23  1  0  0  0  0
 27 34  1  0  0  0  0
 28  2  1  0  0  0  0
 29  3  1  0  0  0  0
 31 12  1  0  0  0  0
 35 27  1  0  0  0  0
M  RAD  2   2   2  11   2
M  END
$$$$
