rmsd146.gzmat
 OpenBabel08211713363D

 35 37  0  0  1  0  0  0  0  0999 V2000
    0.0000    0.0000    0.0000 C   0  0  0  0  0  0  0  0  0  0  0  0
    1.4133    0.0000    0.0000 C   0  0  0  0  0  0  0  0  0  0  0  0
    2.1391    0.0000    1.1762 C   0  0  0  0  0  0  0  0  0  0  0  0
    1.4286   -0.0067    2.3796 C   0  0  0  0  0  0  0  0  0  0  0  0
   -0.0427   -0.0157    2.3881 C   0  0  0  0  0  0  0  0  0  0  0  0
   -0.7389   -0.0141    1.2024 C   0  0  0  0  0  0  0  0  0  0  0  0
   -0.4894   -0.0203    3.7042 N   0  0  0  0  0  0  0  0  0  0  0  0
    0.6092   -0.0104    4.4928 C   0  0  0  0  0  0  0  0  0  0  0  0
    1.8019   -0.0032    3.6888 N   0  0  0  0  0  0  0  0  0  0  0  0
    2.7397    0.0029    4.1353 H   0  0  0  0  0  0  0  0  0  0  0  0
    0.7039   -0.0028    5.9057 C   0  0  2  0  0  0  0  0  0  0  0  0
   -0.4609   -0.0100    6.6962 C   0  0  0  0  0  0  0  0  0  0  0  0
   -0.3367   -0.0013    8.0620 C   0  0  0  0  0  0  0  0  0  0  0  0
   -1.4828   -0.1616    8.8366 O   0  0  0  0  0  0  0  0  0  0  0  0
   -2.0545    1.0142    9.2618 C   0  0  0  0  0  0  0  0  0  0  0  0
   -2.2141    1.9323    8.3176 F   0  0  0  0  0  0  0  0  0  0  0  0
   -3.2610    0.7437    9.7427 F   0  0  0  0  0  0  0  0  0  0  0  0
   -1.3778    1.5999   10.2434 F   0  0  0  0  0  0  0  0  0  0  0  0
    0.9168    0.0210    8.7297 C   0  0  0  0  0  0  0  0  0  0  0  0
    2.0571    0.0299    7.9903 C   0  0  0  0  0  0  0  0  0  0  0  0
    2.0078    0.0166    6.5372 C   0  0  0  0  0  0  0  0  0  0  0  0
    3.0514    0.0216    5.8683 O   0  0  0  0  0  0  0  0  0  0  0  0
   -0.7189    0.0341   -1.2537 C   0  0  0  0  0  0  0  0  0  0  0  0
   -1.8308    0.8025   -1.3882 N   0  0  0  0  0  0  0  0  0  0  0  0
   -2.4021    0.8177   -2.2098 H   0  0  0  0  0  0  0  0  0  0  0  0
   -2.1356    1.3789   -0.6115 H   0  0  0  0  0  0  0  0  0  0  0  0
   -0.2990   -0.6940   -2.3220 N   0  0  0  0  0  0  0  0  0  0  0  0
    1.9495    0.0308   -0.9476 H   0  0  0  0  0  0  0  0  0  0  0  0
    3.2271    0.0117    1.1737 H   0  0  0  0  0  0  0  0  0  0  0  0
   -1.8257   -0.0508    1.2143 H   0  0  0  0  0  0  0  0  0  0  0  0
   -1.4414   -0.0295    6.2122 H   0  0  0  0  0  0  0  0  0  0  0  0
    0.9336    0.0220    9.8189 H   0  0  0  0  0  0  0  0  0  0  0  0
    3.0456    0.0452    8.4367 H   0  0  0  0  0  0  0  0  0  0  0  0
    0.4892   -1.3189   -2.2264 H   0  0  0  0  0  0  0  0  0  0  0  0
   -0.7317   -0.6569   -3.2234 H   0  0  0  0  0  0  0  0  0  0  0  0
  1  2  1  0  0  0  0
  1  6  2  0  0  0  0
  2  3  1  0  0  0  0
  3  4  2  0  0  0  0
  4  5  1  0  0  0  0
  4  9  1  0  0  0  0
  5  7  2  0  0  0  0
  6 30  1  0  0  0  0
  6  5  1  0  0  0  0
  7  8  2  0  0  0  0
  9 10  1  0  0  0  0
  9  8  1  0  0  0  0
 11  8  1  6  0  0  0
 11 21  1  0  0  0  0
 11 12  1  0  0  0  0
 12 13  2  0  0  0  0
 13 19  1  0  0  0  0
 13 14  1  0  0  0  0
 14 15  1  0  0  0  0
 15 17  1  0  0  0  0
 15 18  1  0  0  0  0
 16 15  1  0  0  0  0
 19 32  1  0  0  0  0
 20 33  1  0  0  0  0
 20 19  2  0  0  0  0
 21 20  1  0  0  0  0
 22 21  2  0  0  0  0
 23  1  1  0  0  0  0
 24 23  1  0  0  0  0
 24 26  1  0  0  0  0
 25 24  1  0  0  0  0
 27 34  1  0  0  0  0
 27 23  2  0  0  0  0
 28  2  1  0  0  0  0
 29  3  1  0  0  0  0
 31 12  1  0  0  0  0
 35 27  1  0  0  0  0
M  RAD  2   2   2  11   2
M  END
$$$$
