35
rmsd108.gzmat
C          0.00000        0.00000        0.00000
C          1.41340        0.00000        0.00000
C          2.13990        0.00000        1.17540
C          1.42920        0.00300        2.37900
C         -0.04200        0.01470        2.38910
C         -0.73850        0.01630        1.20380
N         -0.48620        0.01190        3.70660
C          0.61340       -0.00740        4.49330
N          1.80470       -0.00370        3.68680
H          2.74380       -0.03360        4.13260
C          0.71570       -0.03990        5.90590
C         -0.44330       -0.03210        6.70570
C         -0.30910       -0.07830        8.06990
O         -1.43650        0.08270        8.87170
C         -2.06430       -1.08980        9.21890
F         -3.04490       -0.80430       10.06580
F         -2.61990       -1.72270        8.19250
F         -1.28060       -1.97380        9.82430
C          0.94970       -0.13540        8.72630
C          2.08420       -0.14310        7.97850
C          2.02350       -0.09350        6.52730
O          3.06340       -0.09830        5.85190
C         -0.71880       -0.04270       -1.25280
N         -1.84100       -0.79900       -1.37360
H         -2.41900       -0.81290       -2.19020
H         -2.14990       -1.36030       -0.58780
N         -0.29280        0.66060       -2.33560
H          1.94950       -0.03130       -0.94750
H          3.22770       -0.01020        1.17310
H         -1.82560        0.05540        1.21540
H         -1.42560        0.01570        6.22760
H          0.97400       -0.16260        9.81520
H          3.07550       -0.18470        8.41720
H          0.50640        1.27370       -2.25710
H         -0.72650        0.60840       -3.23630
