35
rmsd154.gzmat
C          0.00000        0.00000        0.00000
C          1.41320        0.00000        0.00000
C          2.13920        0.00000        1.17600
C          1.42710        0.00350        2.37860
C         -0.04410        0.00040        2.38760
C         -0.74030        0.00170        1.20150
N         -0.48950       -0.00040        3.70430
C          0.61010        0.00490        4.49180
N          1.80180        0.01120        3.68700
H          2.74070        0.00470        4.13290
C          0.70970        0.00440        5.90460
C         -0.45240        0.02010        6.69890
C         -0.32350        0.00940        8.06430
O         -1.47220       -0.12800        8.83960
C         -1.99960        1.05680        9.29590
F         -2.14580        1.99580        8.37060
F         -3.20590        0.81440        9.79240
F         -1.29070        1.60480       10.27640
C          0.93240       -0.01320        8.72740
C          2.07040       -0.02270        7.98450
C          2.01560       -0.01160        6.53170
O          3.05730       -0.01790        5.85940
C         -0.71490       -0.01270       -1.25640
N         -0.29350        0.73910       -2.30740
H         -0.72070        0.71820       -3.21210
H          0.49210        1.36500       -2.19470
N         -1.82420       -0.78050       -1.41160
H          1.94890       -0.02960       -0.94790
H          3.22700       -0.00830        1.17460
H         -1.82740        0.03380        1.21200
H         -1.43420        0.03400        6.21750
H          0.95240       -0.03040        9.81650
H          3.06040       -0.03940        8.42780
H         -2.13290       -1.37160       -0.64830
H         -2.38930       -0.78260       -2.23760
