35
rmsd150.gzmat
C          0.00000        0.00000        0.00000
C          1.41330        0.00000        0.00000
C          2.14040        0.00000        1.17540
C          1.42990       -0.00240        2.37910
C         -0.04130       -0.01160        2.38810
C         -0.73850       -0.01310        1.20300
N         -0.48720       -0.01260        3.70450
C          0.61190        0.00080        4.49250
N          1.80390        0.00570        3.68790
H          2.74240        0.01120        4.13370
C          0.70910        0.01430        5.90530
C         -0.45410        0.01810        6.69840
C         -0.32750        0.03090        8.06410
O         -1.47370       -0.11670        8.84100
C         -2.03480        1.06580        9.26190
F         -2.20700        1.97200        8.30840
F         -3.23420        0.80450        9.76520
F         -1.34270        1.66330       10.22560
C          0.92730        0.04350        8.72960
C          2.06590        0.04220        7.98770
C          2.01380        0.02900        6.53470
O          3.05660        0.02950        5.86430
C         -0.71930        0.03080       -1.25310
N         -0.29680       -0.69370       -2.32280
H         -0.73180       -0.65780       -3.22330
H          0.49560       -1.31370       -2.23000
N         -1.83660        0.79160       -1.38740
H          1.94950        0.03090       -0.94730
H          3.22820        0.00890        1.17120
H         -1.82550       -0.05090        1.21560
H         -1.43510        0.00460        6.21530
H          0.94680        0.04570        9.81910
H          3.05550        0.04980        8.43180
H         -2.14750        1.36350       -0.61020
H         -2.40780        0.80170       -2.20910
