rmsd154.gzmat
 OpenBabel08211713363D

 35 37  0  0  1  0  0  0  0  0999 V2000
    0.0000    0.0000    0.0000 C   0  0  0  0  0  0  0  0  0  0  0  0
    1.4132    0.0000    0.0000 C   0  0  0  0  0  0  0  0  0  0  0  0
    2.1392    0.0000    1.1760 C   0  0  0  0  0  0  0  0  0  0  0  0
    1.4271    0.0035    2.3786 C   0  0  0  0  0  0  0  0  0  0  0  0
   -0.0441    0.0004    2.3876 C   0  0  0  0  0  0  0  0  0  0  0  0
   -0.7403    0.0017    1.2015 C   0  0  0  0  0  0  0  0  0  0  0  0
   -0.4895   -0.0004    3.7043 N   0  0  0  0  0  0  0  0  0  0  0  0
    0.6101    0.0049    4.4918 C   0  0  0  0  0  0  0  0  0  0  0  0
    1.8018    0.0112    3.6870 N   0  0  0  0  0  0  0  0  0  0  0  0
    2.7407    0.0047    4.1329 H   0  0  0  0  0  0  0  0  0  0  0  0
    0.7097    0.0044    5.9046 C   0  0  2  0  0  0  0  0  0  0  0  0
   -0.4524    0.0201    6.6989 C   0  0  0  0  0  0  0  0  0  0  0  0
   -0.3235    0.0094    8.0643 C   0  0  0  0  0  0  0  0  0  0  0  0
   -1.4722   -0.1280    8.8396 O   0  0  0  0  0  0  0  0  0  0  0  0
   -1.9996    1.0568    9.2959 C   0  0  0  0  0  0  0  0  0  0  0  0
   -2.1458    1.9958    8.3706 F   0  0  0  0  0  0  0  0  0  0  0  0
   -3.2059    0.8144    9.7924 F   0  0  0  0  0  0  0  0  0  0  0  0
   -1.2907    1.6048   10.2764 F   0  0  0  0  0  0  0  0  0  0  0  0
    0.9324   -0.0132    8.7274 C   0  0  0  0  0  0  0  0  0  0  0  0
    2.0704   -0.0227    7.9845 C   0  0  0  0  0  0  0  0  0  0  0  0
    2.0156   -0.0116    6.5317 C   0  0  0  0  0  0  0  0  0  0  0  0
    3.0573   -0.0179    5.8594 O   0  0  0  0  0  0  0  0  0  0  0  0
   -0.7149   -0.0127   -1.2564 C   0  0  0  0  0  0  0  0  0  0  0  0
   -0.2935    0.7391   -2.3074 N   0  0  0  0  0  0  0  0  0  0  0  0
   -0.7207    0.7182   -3.2121 H   0  0  0  0  0  0  0  0  0  0  0  0
    0.4921    1.3650   -2.1947 H   0  0  0  0  0  0  0  0  0  0  0  0
   -1.8242   -0.7805   -1.4116 N   0  0  0  0  0  0  0  0  0  0  0  0
    1.9489   -0.0296   -0.9479 H   0  0  0  0  0  0  0  0  0  0  0  0
    3.2270   -0.0083    1.1746 H   0  0  0  0  0  0  0  0  0  0  0  0
   -1.8274    0.0338    1.2120 H   0  0  0  0  0  0  0  0  0  0  0  0
   -1.4342    0.0340    6.2175 H   0  0  0  0  0  0  0  0  0  0  0  0
    0.9524   -0.0304    9.8165 H   0  0  0  0  0  0  0  0  0  0  0  0
    3.0604   -0.0394    8.4278 H   0  0  0  0  0  0  0  0  0  0  0  0
   -2.1329   -1.3716   -0.6483 H   0  0  0  0  0  0  0  0  0  0  0  0
   -2.3893   -0.7826   -2.2376 H   0  0  0  0  0  0  0  0  0  0  0  0
  1  2  1  0  0  0  0
  1  6  2  0  0  0  0
  2  3  1  0  0  0  0
  3  4  2  0  0  0  0
  4  5  1  0  0  0  0
  4  9  1  0  0  0  0
  5  7  2  0  0  0  0
  6 30  1  0  0  0  0
  6  5  1  0  0  0  0
  7  8  2  0  0  0  0
  9 10  1  0  0  0  0
  9  8  1  0  0  0  0
 11  8  1  6  0  0  0
 11 21  1  0  0  0  0
 11 12  1  0  0  0  0
 12 13  2  0  0  0  0
 13 19  1  0  0  0  0
 13 14  1  0  0  0  0
 14 15  1  0  0  0  0
 15 17  1  0  0  0  0
 15 18  1  0  0  0  0
 16 15  1  0  0  0  0
 19 32  1  0  0  0  0
 20 33  1  0  0  0  0
 20 19  2  0  0  0  0
 21 20  1  0  0  0  0
 22 21  2  0  0  0  0
 23  1  1  0  0  0  0
 24 26  1  0  0  0  0
 24 23  2  0  0  0  0
 25 24  1  0  0  0  0
 27 23  1  0  0  0  0
 27 34  1  0  0  0  0
 28  2  1  0  0  0  0
 29  3  1  0  0  0  0
 31 12  1  0  0  0  0
 35 27  1  0  0  0  0
M  RAD  2   2   2  11   2
M  END
$$$$
