rmsd148.gzmat
 OpenBabel08211713363D

 35 37  0  0  1  0  0  0  0  0999 V2000
    0.0000    0.0000    0.0000 C   0  0  0  0  0  0  0  0  0  0  0  0
    1.4134    0.0000    0.0000 C   0  0  0  0  0  0  0  0  0  0  0  0
    2.1394    0.0000    1.1760 C   0  0  0  0  0  0  0  0  0  0  0  0
    1.4275    0.0058    2.3788 C   0  0  0  0  0  0  0  0  0  0  0  0
   -0.0438    0.0012    2.3874 C   0  0  0  0  0  0  0  0  0  0  0  0
   -0.7401    0.0005    1.2017 C   0  0  0  0  0  0  0  0  0  0  0  0
   -0.4901    0.0036    3.7037 N   0  0  0  0  0  0  0  0  0  0  0  0
    0.6088    0.0143    4.4918 C   0  0  0  0  0  0  0  0  0  0  0  0
    1.8008    0.0183    3.6876 N   0  0  0  0  0  0  0  0  0  0  0  0
    2.7390    0.0157    4.1358 H   0  0  0  0  0  0  0  0  0  0  0  0
    0.7078    0.0247    5.9047 C   0  0  2  0  0  0  0  0  0  0  0  0
   -0.4539    0.0484    6.6994 C   0  0  0  0  0  0  0  0  0  0  0  0
   -0.3251    0.0537    8.0649 C   0  0  0  0  0  0  0  0  0  0  0  0
   -1.4729   -0.0749    8.8431 O   0  0  0  0  0  0  0  0  0  0  0  0
   -2.0030    1.1152    9.2822 C   0  0  0  0  0  0  0  0  0  0  0  0
   -2.1678    2.0339    8.3394 F   0  0  0  0  0  0  0  0  0  0  0  0
   -3.2010    0.8746    9.7992 F   0  0  0  0  0  0  0  0  0  0  0  0
   -1.2863    1.6890   10.2424 F   0  0  0  0  0  0  0  0  0  0  0  0
    0.9311    0.0382    8.7275 C   0  0  0  0  0  0  0  0  0  0  0  0
    2.0686    0.0191    7.9841 C   0  0  0  0  0  0  0  0  0  0  0  0
    2.0138    0.0157    6.5314 C   0  0  0  0  0  0  0  0  0  0  0  0
    3.0557    0.0056    5.8592 O   0  0  0  0  0  0  0  0  0  0  0  0
   -0.7170   -0.0081   -1.2550 C   0  0  0  0  0  0  0  0  0  0  0  0
   -1.8286   -0.7730   -1.4106 N   0  0  0  0  0  0  0  0  0  0  0  0
   -2.3983   -0.7669   -2.2334 H   0  0  0  0  0  0  0  0  0  0  0  0
   -2.1360   -1.3678   -0.6495 H   0  0  0  0  0  0  0  0  0  0  0  0
   -0.2971    0.7474   -2.3038 N   0  0  0  0  0  0  0  0  0  0  0  0
    1.9492   -0.0288   -0.9481 H   0  0  0  0  0  0  0  0  0  0  0  0
    3.2273   -0.0100    1.1745 H   0  0  0  0  0  0  0  0  0  0  0  0
   -1.8273    0.0303    1.2126 H   0  0  0  0  0  0  0  0  0  0  0  0
   -1.4355    0.0565    6.2179 H   0  0  0  0  0  0  0  0  0  0  0  0
    0.9532    0.0342    9.8166 H   0  0  0  0  0  0  0  0  0  0  0  0
    3.0583    0.0052    8.4278 H   0  0  0  0  0  0  0  0  0  0  0  0
    0.4907    1.3708   -2.1916 H   0  0  0  0  0  0  0  0  0  0  0  0
   -0.7248    0.7284   -3.2085 H   0  0  0  0  0  0  0  0  0  0  0  0
  1  2  1  0  0  0  0
  1  6  2  0  0  0  0
  2  3  1  0  0  0  0
  3  4  2  0  0  0  0
  4  5  1  0  0  0  0
  4  9  1  0  0  0  0
  5  7  2  0  0  0  0
  6 30  1  0  0  0  0
  6  5  1  0  0  0  0
  7  8  2  0  0  0  0
  9 10  1  0  0  0  0
  9  8  1  0  0  0  0
 11  8  1  6  0  0  0
 11 21  1  0  0  0  0
 11 12  1  0  0  0  0
 12 13  2  0  0  0  0
 13 19  1  0  0  0  0
 13 14  1  0  0  0  0
 14 15  1  0  0  0  0
 15 17  1  0  0  0  0
 15 18  1  0  0  0  0
 16 15  1  0  0  0  0
 19 32  1  0  0  0  0
 20 33  1  0  0  0  0
 20 19  2  0  0  0  0
 21 20  1  0  0  0  0
 22 21  2  0  0  0  0
 23  1  1  0  0  0  0
 24 23  1  0  0  0  0
 24 26  1  0  0  0  0
 25 24  1  0  0  0  0
 27 34  1  0  0  0  0
 27 23  2  0  0  0  0
 28  2  1  0  0  0  0
 29  3  1  0  0  0  0
 31 12  1  0  0  0  0
 35 27  1  0  0  0  0
M  RAD  2   2   2  11   2
M  END
$$$$
