rmsd153.gzmat
 OpenBabel08211713423D

 38 40  0  0  1  0  0  0  0  0999 V2000
    0.0000    0.0000    0.0000 C   0  0  0  0  0  0  0  0  0  0  0  0
    1.2217    0.0000    0.0000 O   0  0  0  0  0  0  0  0  0  0  0  0
   -0.6700    0.0000   -1.1924 N   0  0  0  0  0  0  0  0  0  0  0  0
   -2.1153   -0.2082   -1.3368 C   0  0  0  0  0  0  0  0  0  0  0  0
   -2.4417   -1.6827   -1.5855 C   0  0  0  0  0  0  0  0  0  0  0  0
   -0.7696    0.0657    1.3197 C   0  0  1  0  0  0  0  0  0  0  0  0
   -1.4606    0.9407    1.3616 H   0  0  0  0  0  0  0  0  0  0  0  0
   -1.6139   -1.0692    1.4204 O   0  0  0  0  0  0  0  0  0  0  0  0
   -1.0211   -2.0792    2.2166 C   0  0  2  0  0  0  0  0  0  0  0  0
   -1.8801   -2.5180    2.7973 H   0  0  0  0  0  0  0  0  0  0  0  0
    0.0537   -1.3973    3.1096 C   0  0  1  0  0  0  0  0  0  0  0  0
    1.0100   -1.9582    3.1622 H   0  0  0  0  0  0  0  0  0  0  0  0
    0.1926    0.0374    2.5222 C   0  0  2  0  0  0  0  0  0  0  0  0
    1.2388    0.3075    2.2614 H   0  0  0  0  0  0  0  0  0  0  0  0
   -0.3271    0.9794    3.4327 O   0  0  0  0  0  0  0  0  0  0  0  0
   -0.3846   -1.3719    4.4328 O   0  0  0  0  0  0  0  0  0  0  0  0
   -0.4658   -3.0881    1.3319 N   0  0  0  0  0  0  0  0  0  0  0  0
    0.7160   -3.0303    0.5327 C   0  0  0  0  0  0  0  0  0  0  0  0
    0.7660   -4.0197   -0.3487 N   0  0  0  0  0  0  0  0  0  0  0  0
   -0.4085   -4.7571   -0.1882 C   0  0  0  0  0  0  0  0  0  0  0  0
   -0.9499   -5.9024   -0.8270 C   0  0  0  0  0  0  0  0  0  0  0  0
   -0.3236   -6.5499   -1.8426 N   0  0  0  0  0  0  0  0  0  0  0  0
   -2.1670   -6.3739   -0.4147 N   0  0  0  0  0  0  0  0  0  0  0  0
   -2.8190   -5.7408    0.5901 C   0  0  0  0  0  0  0  0  0  0  0  0
   -2.4038   -4.6443    1.2613 N   0  0  0  0  0  0  0  0  0  0  0  0
   -1.2001   -4.1724    0.8542 C   0  0  0  0  0  0  0  0  0  0  0  0
   -0.1177   -0.1100   -2.0387 H   0  0  0  0  0  0  0  0  0  0  0  0
   -2.4666    0.4169   -2.1915 H   0  0  0  0  0  0  0  0  0  0  0  0
   -2.6545    0.1554   -0.4332 H   0  0  0  0  0  0  0  0  0  0  0  0
   -1.8909   -2.0912   -2.4394 H   0  0  0  0  0  0  0  0  0  0  0  0
   -3.5112   -1.8263   -1.7751 H   0  0  0  0  0  0  0  0  0  0  0  0
   -2.1873   -2.2974   -0.7107 H   0  0  0  0  0  0  0  0  0  0  0  0
    0.2780    1.0786    4.2017 H   0  0  0  0  0  0  0  0  0  0  0  0
   -1.1569   -0.7594    4.5346 H   0  0  0  0  0  0  0  0  0  0  0  0
    1.4672   -2.2588    0.6678 H   0  0  0  0  0  0  0  0  0  0  0  0
   -0.7315   -7.3656   -2.2561 H   0  0  0  0  0  0  0  0  0  0  0  0
    0.5793   -6.2421   -2.1504 H   0  0  0  0  0  0  0  0  0  0  0  0
   -3.7934   -6.1688    0.8864 H   0  0  0  0  0  0  0  0  0  0  0  0
  1  2  2  0  0  0  0
  1  6  1  0  0  0  0
  3  1  1  0  0  0  0
  4  3  1  0  0  0  0
  4 29  1  0  0  0  0
  5  4  1  0  0  0  0
  5 32  1  0  0  0  0
  6  7  1  1  0  0  0
  6  8  1  0  0  0  0
  6 13  1  0  0  0  0
  8  9  1  0  0  0  0
  9 10  1  1  0  0  0
  9 11  1  0  0  0  0
 11 13  1  0  0  0  0
 11 12  1  6  0  0  0
 11 16  1  0  0  0  0
 13 14  1  6  0  0  0
 13 15  1  0  0  0  0
 15 33  1  0  0  0  0
 16 34  1  0  0  0  0
 17  9  1  0  0  0  0
 18 35  1  0  0  0  0
 18 17  1  0  0  0  0
 19 20  2  0  0  0  0
 19 18  2  0  0  0  0
 20 26  1  0  0  0  0
 21 23  2  0  0  0  0
 21 20  1  0  0  0  0
 22 21  1  0  0  0  0
 23 24  2  0  0  0  0
 24 38  1  0  0  0  0
 24 25  2  0  0  0  0
 26 25  2  0  0  0  0
 26 17  1  0  0  0  0
 27  3  1  0  0  0  0
 28  4  1  0  0  0  0
 30  5  1  0  0  0  0
 31  5  1  0  0  0  0
 36 22  1  0  0  0  0
 37 22  1  0  0  0  0
M  END
$$$$
