
     RDKit          3D

 38 40  0  0  0  0  0  0  0  0999 V2000
    0.1706    0.4601    0.3465 C   0  0  0  0  0  0  0  0  0  0  0  0
    1.2611    0.6618    0.8792 O   0  0  0  0  0  0  0  0  0  0  0  0
   -0.1020    0.5627   -0.9655 N   0  0  0  0  0  0  0  0  0  0  0  0
    0.9039    0.8335   -1.9749 C   0  0  0  0  0  0  0  0  0  0  0  0
    0.5483    2.0331   -2.8476 C   0  0  0  0  0  0  0  0  0  0  0  0
   -0.9646    0.0052    1.2385 C   0  0  1  0  0  0  0  0  0  0  0  0
   -1.1227    0.7774    2.0122 H   0  0  0  0  0  0  0  0  0  0  0  0
   -2.1800   -0.2747    0.5609 O   0  0  0  0  0  0  0  0  0  0  0  0
   -2.8120   -1.4037    1.1370 C   0  0  2  0  0  0  0  0  0  0  0  0
   -3.7951   -1.1250    1.5475 H   0  0  0  0  0  0  0  0  0  0  0  0
   -1.9207   -1.8744    2.3099 C   0  0  1  0  0  0  0  0  0  0  0  0
   -1.9250   -2.9767    2.3903 H   0  0  0  0  0  0  0  0  0  0  0  0
   -0.5521   -1.3040    1.9340 C   0  0  2  0  0  0  0  0  0  0  0  0
   -0.0600   -1.9630    1.2020 H   0  0  0  0  0  0  0  0  0  0  0  0
    0.2352   -1.0794    3.0727 O   0  0  0  0  0  0  0  0  0  0  0  0
   -2.3870   -1.2597    3.4838 O   0  0  0  0  0  0  0  0  0  0  0  0
   -3.0555   -2.3955    0.1070 N   0  0  0  0  0  0  0  0  0  0  0  0
   -4.2773   -2.9869   -0.1791 C   0  0  0  0  0  0  0  0  0  0  0  0
   -4.2330   -3.8293   -1.1786 N   0  0  0  0  0  0  0  0  0  0  0  0
   -2.9174   -3.7978   -1.5943 C   0  0  0  0  0  0  0  0  0  0  0  0
   -2.2236   -4.4634   -2.6343 C   0  0  0  0  0  0  0  0  0  0  0  0
   -2.8377   -5.3381   -3.4569 N   0  0  0  0  0  0  0  0  0  0  0  0
   -0.9158   -4.2065   -2.7998 N   0  0  0  0  0  0  0  0  0  0  0  0
   -0.3168   -3.3364   -1.9787 C   0  0  0  0  0  0  0  0  0  0  0  0
   -0.8566   -2.6484   -0.9693 N   0  0  0  0  0  0  0  0  0  0  0  0
   -2.1591   -2.9120   -0.8129 C   0  0  0  0  0  0  0  0  0  0  0  0
   -1.0230    0.2407   -1.2469 H   0  0  0  0  0  0  0  0  0  0  0  0
    1.0414   -0.0677   -2.5994 H   0  0  0  0  0  0  0  0  0  0  0  0
    1.8463    1.0039   -1.4356 H   0  0  0  0  0  0  0  0  0  0  0  0
   -0.4081    1.8767   -3.3735 H   0  0  0  0  0  0  0  0  0  0  0  0
    1.3257    2.2004   -3.6095 H   0  0  0  0  0  0  0  0  0  0  0  0
    0.4561    2.9463   -2.2396 H   0  0  0  0  0  0  0  0  0  0  0  0
    0.9496   -0.4830    2.7827 H   0  0  0  0  0  0  0  0  0  0  0  0
   -1.5899   -1.0417    3.9976 H   0  0  0  0  0  0  0  0  0  0  0  0
   -5.1641   -2.7385    0.4056 H   0  0  0  0  0  0  0  0  0  0  0  0
   -2.2995   -5.7961   -4.1798 H   0  0  0  0  0  0  0  0  0  0  0  0
   -3.8194   -5.5422   -3.3328 H   0  0  0  0  0  0  0  0  0  0  0  0
    0.7514   -3.1676   -2.1583 H   0  0  0  0  0  0  0  0  0  0  0  0
  1  2  2  0
  1  3  1  0
  1  6  1  0
  3  4  1  0
  3 27  1  0
  4  5  1  0
  4 28  1  0
  4 29  1  0
  5 30  1  0
  5 31  1  0
  5 32  1  0
  6  7  1  1
  6  8  1  0
  6 13  1  0
  8  9  1  0
  9 10  1  1
  9 11  1  0
  9 17  1  0
 11 12  1  1
 11 13  1  0
 11 16  1  0
 13 14  1  6
 13 15  1  0
 15 33  1  0
 16 34  1  0
 17 18  1  0
 17 26  1  0
 18 19  2  0
 18 35  1  0
 19 20  1  0
 20 21  1  0
 20 26  2  0
 21 22  1  0
 21 23  2  0
 22 36  1  0
 22 37  1  0
 23 24  1  0
 24 25  2  0
 24 38  1  0
 25 26  1  0
M  END

