38

C          0.17060        0.46010        0.34650
O          1.26110        0.66180        0.87920
N         -0.10200        0.56270       -0.96550
C          0.90390        0.83350       -1.97490
C          0.54830        2.03310       -2.84760
C         -0.96460        0.00520        1.23850
H         -1.12270        0.77740        2.01220
O         -2.18000       -0.27470        0.56090
C         -2.81200       -1.40370        1.13700
H         -3.79510       -1.12500        1.54750
C         -1.92070       -1.87440        2.30990
H         -1.92500       -2.97670        2.39030
C         -0.55210       -1.30400        1.93400
H         -0.06000       -1.96300        1.20200
O          0.23520       -1.07940        3.07270
O         -2.38700       -1.25970        3.48380
N         -3.05550       -2.39550        0.10700
C         -4.27730       -2.98690       -0.17910
N         -4.23300       -3.82930       -1.17860
C         -2.91740       -3.79780       -1.59430
C         -2.22360       -4.46340       -2.63430
N         -2.83770       -5.33810       -3.45690
N         -0.91580       -4.20650       -2.79980
C         -0.31680       -3.33640       -1.97870
N         -0.85660       -2.64840       -0.96930
C         -2.15910       -2.91200       -0.81290
H         -1.02300        0.24070       -1.24690
H          1.04140       -0.06770       -2.59940
H          1.84630        1.00390       -1.43560
H         -0.40810        1.87670       -3.37350
H          1.32570        2.20040       -3.60950
H          0.45610        2.94630       -2.23960
H          0.94960       -0.48300        2.78270
H         -1.58990       -1.04170        3.99760
H         -5.16410       -2.73850        0.40560
H         -2.29950       -5.79610       -4.17980
H         -3.81940       -5.54220       -3.33280
H          0.75140       -3.16760       -2.15830
