rmsd128.gzmat
 OpenBabel08211713423D

 38 40  0  0  1  0  0  0  0  0999 V2000
    0.0000    0.0000    0.0000 C   0  0  0  0  0  0  0  0  0  0  0  0
    1.2171    0.0000    0.0000 O   0  0  0  0  0  0  0  0  0  0  0  0
   -0.7501    0.0000   -1.1423 N   0  0  0  0  0  0  0  0  0  0  0  0
   -0.1155   -0.0990   -2.4632 C   0  0  0  0  0  0  0  0  0  0  0  0
   -0.6736   -1.2872   -3.2481 C   0  0  0  0  0  0  0  0  0  0  0  0
   -0.7512    0.0624    1.3289 C   0  0  1  0  0  0  0  0  0  0  0  0
   -0.4037    0.9497    1.9122 H   0  0  0  0  0  0  0  0  0  0  0  0
   -2.1347    0.2996    1.1144 O   0  0  0  0  0  0  0  0  0  0  0  0
   -2.9263   -0.7785    1.5714 C   0  0  2  0  0  0  0  0  0  0  0  0
   -3.7866   -0.3007    2.1086 H   0  0  0  0  0  0  0  0  0  0  0  0
   -2.0434   -1.6572    2.5068 C   0  0  1  0  0  0  0  0  0  0  0  0
   -2.2336   -2.7495    2.4117 H   0  0  0  0  0  0  0  0  0  0  0  0
   -0.5961   -1.2518    2.1250 C   0  0  2  0  0  0  0  0  0  0  0  0
   -0.0817   -2.0574    1.5528 H   0  0  0  0  0  0  0  0  0  0  0  0
    0.1054   -1.0052    3.3189 O   0  0  0  0  0  0  0  0  0  0  0  0
   -2.4223   -1.3323    3.8127 O   0  0  0  0  0  0  0  0  0  0  0  0
   -3.4120   -1.4724    0.3844 N   0  0  0  0  0  0  0  0  0  0  0  0
   -4.4547   -0.9876   -0.4599 C   0  0  0  0  0  0  0  0  0  0  0  0
   -4.5588   -1.6941   -1.5782 N   0  0  0  0  0  0  0  0  0  0  0  0
   -3.5578   -2.6631   -1.5268 C   0  0  0  0  0  0  0  0  0  0  0  0
   -3.1494   -3.6991   -2.4070 C   0  0  0  0  0  0  0  0  0  0  0  0
   -3.7561   -3.9444   -3.5947 N   0  0  0  0  0  0  0  0  0  0  0  0
   -2.0816   -4.4800   -2.0543 N   0  0  0  0  0  0  0  0  0  0  0  0
   -1.4548   -4.2541   -0.8762 C   0  0  0  0  0  0  0  0  0  0  0  0
   -1.7627   -3.3068    0.0373 N   0  0  0  0  0  0  0  0  0  0  0  0
   -2.8162   -2.5237   -0.3046 C   0  0  0  0  0  0  0  0  0  0  0  0
   -1.7465   -0.1393   -1.0949 H   0  0  0  0  0  0  0  0  0  0  0  0
    0.9920   -0.1930   -2.3429 H   0  0  0  0  0  0  0  0  0  0  0  0
   -0.3020    0.8546   -3.0106 H   0  0  0  0  0  0  0  0  0  0  0  0
   -0.4419   -2.2403   -2.7562 H   0  0  0  0  0  0  0  0  0  0  0  0
   -0.2412   -1.3293   -4.2547 H   0  0  0  0  0  0  0  0  0  0  0  0
   -1.7623   -1.2284   -3.3627 H   0  0  0  0  0  0  0  0  0  0  0  0
    1.0486   -0.8113    3.1155 H   0  0  0  0  0  0  0  0  0  0  0  0
   -1.7154   -0.8159    4.2691 H   0  0  0  0  0  0  0  0  0  0  0  0
   -5.0745   -0.1506   -0.1713 H   0  0  0  0  0  0  0  0  0  0  0  0
   -3.4488   -4.6980   -4.1799 H   0  0  0  0  0  0  0  0  0  0  0  0
   -4.5563   -3.4062   -3.8705 H   0  0  0  0  0  0  0  0  0  0  0  0
   -0.6005   -4.9154   -0.6410 H   0  0  0  0  0  0  0  0  0  0  0  0
  1  2  2  0  0  0  0
  1  6  1  0  0  0  0
  3 27  1  0  0  0  0
  3  1  1  0  0  0  0
  4 28  1  0  0  0  0
  4  3  1  0  0  0  0
  5 30  1  0  0  0  0
  5  4  1  0  0  0  0
  6  7  1  1  0  0  0
  6 13  1  0  0  0  0
  8  6  1  0  0  0  0
  8  9  1  0  0  0  0
  9 10  1  1  0  0  0
  9 11  1  0  0  0  0
 11 13  1  0  0  0  0
 11 16  1  0  0  0  0
 11 12  1  6  0  0  0
 13 14  1  6  0  0  0
 13 15  1  0  0  0  0
 16 34  1  0  0  0  0
 17  9  1  0  0  0  0
 18 35  1  0  0  0  0
 18 17  1  0  0  0  0
 19 20  2  0  0  0  0
 19 18  2  0  0  0  0
 20 26  1  0  0  0  0
 21 23  2  0  0  0  0
 21 20  1  0  0  0  0
 22 21  1  0  0  0  0
 23 24  2  0  0  0  0
 24 38  1  0  0  0  0
 24 25  2  0  0  0  0
 26 25  2  0  0  0  0
 26 17  1  0  0  0  0
 29  4  1  0  0  0  0
 31  5  1  0  0  0  0
 32  5  1  0  0  0  0
 33 15  1  0  0  0  0
 36 22  1  0  0  0  0
 37 22  1  0  0  0  0
M  END
$$$$
