
     RDKit          3D

 38 40  0  0  0  0  0  0  0  0999 V2000
   -0.0380   -0.1785   -0.0028 C   0  0  0  0  0  0  0  0  0  0  0  0
    1.1724   -0.3321    0.0637 O   0  0  0  0  0  0  0  0  0  0  0  0
   -0.7553   -0.1889   -1.1468 N   0  0  0  0  0  0  0  0  0  0  0  0
   -0.1719   -0.5321   -2.4329 C   0  0  0  0  0  0  0  0  0  0  0  0
   -1.2262   -0.4937   -3.5295 C   0  0  0  0  0  0  0  0  0  0  0  0
   -0.8523    0.0335    1.2792 C   0  0  1  0  0  0  0  0  0  0  0  0
   -0.5784    1.0131    1.7003 H   0  0  0  0  0  0  0  0  0  0  0  0
   -2.2629    0.0240    1.0553 O   0  0  0  0  0  0  0  0  0  0  0  0
   -2.8162   -1.2022    1.4859 C   0  0  2  0  0  0  0  0  0  0  0  0
   -3.8239   -1.0020    1.8724 H   0  0  0  0  0  0  0  0  0  0  0  0
   -1.9204   -1.7001    2.6299 C   0  0  1  0  0  0  0  0  0  0  0  0
   -1.8594   -2.8016    2.6426 H   0  0  0  0  0  0  0  0  0  0  0  0
   -0.5372   -1.0695    2.3182 C   0  0  2  0  0  0  0  0  0  0  0  0
    0.1224   -1.8222    1.8740 H   0  0  0  0  0  0  0  0  0  0  0  0
    0.0010   -0.5609    3.5239 O   0  0  0  0  0  0  0  0  0  0  0  0
   -2.4471   -1.1904    3.8258 O   0  0  0  0  0  0  0  0  0  0  0  0
   -2.9659   -2.1221    0.3624 N   0  0  0  0  0  0  0  0  0  0  0  0
   -4.0145   -2.0430   -0.5454 C   0  0  0  0  0  0  0  0  0  0  0  0
   -3.8216   -2.7332   -1.6400 N   0  0  0  0  0  0  0  0  0  0  0  0
   -2.5714   -3.2967   -1.4720 C   0  0  0  0  0  0  0  0  0  0  0  0
   -1.7595   -4.0909   -2.3157 C   0  0  0  0  0  0  0  0  0  0  0  0
   -2.1694   -4.4806   -3.5411 N   0  0  0  0  0  0  0  0  0  0  0  0
   -0.5369   -4.4410   -1.8853 N   0  0  0  0  0  0  0  0  0  0  0  0
   -0.1315   -4.0267   -0.6787 C   0  0  0  0  0  0  0  0  0  0  0  0
   -0.8001   -3.2755    0.1991 N   0  0  0  0  0  0  0  0  0  0  0  0
   -2.0112   -2.9268   -0.2412 C   0  0  0  0  0  0  0  0  0  0  0  0
   -1.7575   -0.0598   -1.0619 H   0  0  0  0  0  0  0  0  0  0  0  0
    0.2819   -1.5363   -2.3664 H   0  0  0  0  0  0  0  0  0  0  0  0
    0.6549    0.1637   -2.6532 H   0  0  0  0  0  0  0  0  0  0  0  0
   -2.0433   -1.2027   -3.3221 H   0  0  0  0  0  0  0  0  0  0  0  0
   -0.7815   -0.7669   -4.4978 H   0  0  0  0  0  0  0  0  0  0  0  0
   -1.6614    0.5141   -3.6290 H   0  0  0  0  0  0  0  0  0  0  0  0
    0.9614   -0.5242    3.4376 H   0  0  0  0  0  0  0  0  0  0  0  0
   -1.6836   -0.8862    4.3454 H   0  0  0  0  0  0  0  0  0  0  0  0
   -4.8983   -1.4454   -0.3181 H   0  0  0  0  0  0  0  0  0  0  0  0
   -1.5638   -5.0687   -4.0976 H   0  0  0  0  0  0  0  0  0  0  0  0
   -3.1042   -4.2583   -3.8534 H   0  0  0  0  0  0  0  0  0  0  0  0
    0.8759   -4.3366   -0.3796 H   0  0  0  0  0  0  0  0  0  0  0  0
  1  2  2  0
  1  3  1  0
  1  6  1  0
  3  4  1  0
  3 27  1  0
  4  5  1  0
  4 28  1  0
  4 29  1  0
  5 30  1  0
  5 31  1  0
  5 32  1  0
  6  7  1  1
  6  8  1  0
  6 13  1  0
  8  9  1  0
  9 10  1  1
  9 11  1  0
  9 17  1  0
 11 12  1  1
 11 13  1  0
 11 16  1  0
 13 14  1  6
 13 15  1  0
 15 33  1  0
 16 34  1  0
 17 18  1  0
 17 26  1  0
 18 19  2  0
 18 35  1  0
 19 20  1  0
 20 21  1  0
 20 26  2  0
 21 22  1  0
 21 23  2  0
 22 36  1  0
 22 37  1  0
 23 24  1  0
 24 25  2  0
 24 38  1  0
 25 26  1  0
M  END

