38

C         -0.03800       -0.17850       -0.00280
O          1.17240       -0.33210        0.06370
N         -0.75530       -0.18890       -1.14680
C         -0.17190       -0.53210       -2.43290
C         -1.22620       -0.49370       -3.52950
C         -0.85230        0.03350        1.27920
H         -0.57840        1.01310        1.70030
O         -2.26290        0.02400        1.05530
C         -2.81620       -1.20220        1.48590
H         -3.82390       -1.00200        1.87240
C         -1.92040       -1.70010        2.62990
H         -1.85940       -2.80160        2.64260
C         -0.53720       -1.06950        2.31820
H          0.12240       -1.82220        1.87400
O          0.00100       -0.56090        3.52390
O         -2.44710       -1.19040        3.82580
N         -2.96590       -2.12210        0.36240
C         -4.01450       -2.04300       -0.54540
N         -3.82160       -2.73320       -1.64000
C         -2.57140       -3.29670       -1.47200
C         -1.75950       -4.09090       -2.31570
N         -2.16940       -4.48060       -3.54110
N         -0.53690       -4.44100       -1.88530
C         -0.13150       -4.02670       -0.67870
N         -0.80010       -3.27550        0.19910
C         -2.01120       -2.92680       -0.24120
H         -1.75750       -0.05980       -1.06190
H          0.28190       -1.53630       -2.36640
H          0.65490        0.16370       -2.65320
H         -2.04330       -1.20270       -3.32210
H         -0.78150       -0.76690       -4.49780
H         -1.66140        0.51410       -3.62900
H          0.96140       -0.52420        3.43760
H         -1.68360       -0.88620        4.34540
H         -4.89830       -1.44540       -0.31810
H         -1.56380       -5.06870       -4.09760
H         -3.10420       -4.25830       -3.85340
H          0.87590       -4.33660       -0.37960
