38

C          0.10210        0.39560        0.13720
O          1.27320        0.41250        0.51380
N         -0.32450        0.62380       -1.11760
C          0.58650        0.78730       -2.23670
C          0.84180       -0.51660       -2.99020
C         -0.95700        0.05780        1.16300
H         -0.90980        0.81560        1.96580
O         -2.27410       -0.03800        0.64420
C         -2.98280       -1.07150        1.30700
H         -3.83770       -0.65520        1.86260
C         -2.01220       -1.70410        2.33280
H         -2.16290       -2.79710        2.39580
C         -0.64140       -1.31750        1.77460
H         -0.35640       -2.01410        0.97110
O          0.31950       -1.24220        2.79340
O         -2.21740       -1.07300        3.57120
N         -3.53010       -1.98540        0.32520
C         -4.86740       -2.33210        0.19770
N         -5.10450       -3.16270       -0.78400
C         -3.86640       -3.38110       -1.35350
C         -3.44200       -4.16910       -2.45080
N         -4.30590       -4.90790       -3.17650
N         -2.13780       -4.17210       -2.77140
C         -1.29030       -3.43270       -2.04700
N         -1.56450       -2.64990       -1.00010
C         -2.86510       -2.65850       -0.68570
H         -1.30700        0.43170       -1.28840
H          1.52670        1.17870       -1.82310
H          0.17550        1.55370       -2.91440
H          1.28600       -1.26610       -2.31810
H          1.53410       -0.34850       -3.83040
H         -0.09320       -0.93470       -3.39510
H          1.06390       -0.74060        2.41320
H         -1.33350       -0.98870        3.96940
H         -5.61340       -1.92260        0.88030
H         -3.95430       -5.46590       -3.94270
H         -5.28630       -4.92020       -2.93270
H         -0.23940       -3.47320       -2.35450
