rmsd8.gzmat
 OpenBabel08211713423D

 38 40  0  0  1  0  0  0  0  0999 V2000
    0.0000    0.0000    0.0000 C   0  0  0  0  0  0  0  0  0  0  0  0
    1.2153    0.0000    0.0000 O   0  0  0  0  0  0  0  0  0  0  0  0
   -0.7348    0.0000   -1.1561 N   0  0  0  0  0  0  0  0  0  0  0  0
   -0.0517   -0.0806   -2.4568 C   0  0  0  0  0  0  0  0  0  0  0  0
   -0.9250   -0.8031   -3.4810 C   0  0  0  0  0  0  0  0  0  0  0  0
   -0.7796    0.0978    1.3126 C   0  0  1  0  0  0  0  0  0  0  0  0
   -0.6240    1.1107    1.7637 H   0  0  0  0  0  0  0  0  0  0  0  0
   -2.1801    0.0306    1.0731 O   0  0  0  0  0  0  0  0  0  0  0  0
   -2.7291   -1.1918    1.5185 C   0  0  2  0  0  0  0  0  0  0  0  0
   -3.7073   -0.9115    1.9877 H   0  0  0  0  0  0  0  0  0  0  0  0
   -1.7255   -1.8206    2.5262 C   0  0  1  0  0  0  0  0  0  0  0  0
   -1.6128   -2.9219    2.4232 H   0  0  0  0  0  0  0  0  0  0  0  0
   -0.4066   -1.0288    2.2911 C   0  0  2  0  0  0  0  0  0  0  0  0
    0.4249   -1.6693    1.9250 H   0  0  0  0  0  0  0  0  0  0  0  0
   -0.0388   -0.3788    3.4883 O   0  0  0  0  0  0  0  0  0  0  0  0
   -2.2388   -1.6477    3.8124 O   0  0  0  0  0  0  0  0  0  0  0  0
   -2.9696   -2.0173    0.3421 N   0  0  0  0  0  0  0  0  0  0  0  0
   -4.0728   -1.8650   -0.5491 C   0  0  0  0  0  0  0  0  0  0  0  0
   -3.9407   -2.6134   -1.6369 N   0  0  0  0  0  0  0  0  0  0  0  0
   -2.7167   -3.2711   -1.5169 C   0  0  0  0  0  0  0  0  0  0  0  0
   -2.0070   -4.1847   -2.3395 C   0  0  0  0  0  0  0  0  0  0  0  0
   -2.4786   -4.6264   -3.5328 N   0  0  0  0  0  0  0  0  0  0  0  0
   -0.7806   -4.6293   -1.9256 N   0  0  0  0  0  0  0  0  0  0  0  0
   -0.2826   -4.1990   -0.7425 C   0  0  0  0  0  0  0  0  0  0  0  0
   -0.8755   -3.3483    0.1241 N   0  0  0  0  0  0  0  0  0  0  0  0
   -2.0862   -2.8918   -0.2838 C   0  0  0  0  0  0  0  0  0  0  0  0
   -1.7291   -0.1528   -1.1325 H   0  0  0  0  0  0  0  0  0  0  0  0
    0.9297   -0.6010   -2.3348 H   0  0  0  0  0  0  0  0  0  0  0  0
    0.1781    0.9574   -2.7960 H   0  0  0  0  0  0  0  0  0  0  0  0
   -1.1431   -1.8331   -3.1747 H   0  0  0  0  0  0  0  0  0  0  0  0
   -0.4225   -0.8541   -4.4547 H   0  0  0  0  0  0  0  0  0  0  0  0
   -1.8854   -0.2962   -3.6338 H   0  0  0  0  0  0  0  0  0  0  0  0
    0.4263   -1.0053    4.0850 H   0  0  0  0  0  0  0  0  0  0  0  0
   -1.9860   -0.7604    4.1743 H   0  0  0  0  0  0  0  0  0  0  0  0
   -4.9074   -1.2205   -0.3135 H   0  0  0  0  0  0  0  0  0  0  0  0
   -1.9578   -5.2915   -4.0728 H   0  0  0  0  0  0  0  0  0  0  0  0
   -3.3868   -4.3419   -3.8493 H   0  0  0  0  0  0  0  0  0  0  0  0
    0.7136   -4.5866   -0.4592 H   0  0  0  0  0  0  0  0  0  0  0  0
  1  2  2  0  0  0  0
  1  6  1  0  0  0  0
  3 27  1  0  0  0  0
  3  1  1  0  0  0  0
  4 28  1  0  0  0  0
  4  3  1  0  0  0  0
  5 30  1  0  0  0  0
  5  4  1  0  0  0  0
  6  7  1  1  0  0  0
  6 13  1  0  0  0  0
  8  6  1  0  0  0  0
  8  9  1  0  0  0  0
  9 10  1  1  0  0  0
  9 11  1  0  0  0  0
 11 13  1  0  0  0  0
 11 16  1  0  0  0  0
 11 12  1  6  0  0  0
 13 14  1  6  0  0  0
 13 15  1  0  0  0  0
 15 33  1  0  0  0  0
 16 34  1  0  0  0  0
 17  9  1  0  0  0  0
 18 35  1  0  0  0  0
 18 17  1  0  0  0  0
 19 20  2  0  0  0  0
 19 18  2  0  0  0  0
 20 26  1  0  0  0  0
 21 23  2  0  0  0  0
 21 20  1  0  0  0  0
 22 21  1  0  0  0  0
 23 24  2  0  0  0  0
 24 38  1  0  0  0  0
 24 25  2  0  0  0  0
 26 25  2  0  0  0  0
 26 17  1  0  0  0  0
 29  4  1  0  0  0  0
 31  5  1  0  0  0  0
 32  5  1  0  0  0  0
 36 22  1  0  0  0  0
 37 22  1  0  0  0  0
M  END
$$$$
