rmsd249.gzmat
 OpenBabel08211713423D

 38 40  0  0  1  0  0  0  0  0999 V2000
    0.0000    0.0000    0.0000 C   0  0  0  0  0  0  0  0  0  0  0  0
    1.2151    0.0000    0.0000 O   0  0  0  0  0  0  0  0  0  0  0  0
   -0.7297    0.0000   -1.1592 N   0  0  0  0  0  0  0  0  0  0  0  0
   -0.0311   -0.1415   -2.4478 C   0  0  0  0  0  0  0  0  0  0  0  0
   -1.0455   -0.3022   -3.5777 C   0  0  0  0  0  0  0  0  0  0  0  0
   -0.7835    0.0704    1.3119 C   0  0  1  0  0  0  0  0  0  0  0  0
   -0.6331    1.0712    1.7894 H   0  0  0  0  0  0  0  0  0  0  0  0
   -2.1833    0.0014    1.0696 O   0  0  0  0  0  0  0  0  0  0  0  0
   -2.7206   -1.2462    1.4582 C   0  0  2  0  0  0  0  0  0  0  0  0
   -3.7034   -0.9994    1.9361 H   0  0  0  0  0  0  0  0  0  0  0  0
   -1.7135   -1.9084    2.4405 C   0  0  1  0  0  0  0  0  0  0  0  0
   -1.5799   -3.0008    2.2801 H   0  0  0  0  0  0  0  0  0  0  0  0
   -0.4065   -1.0830    2.2586 C   0  0  2  0  0  0  0  0  0  0  0  0
    0.4433   -1.6947    1.8866 H   0  0  0  0  0  0  0  0  0  0  0  0
   -0.0761   -0.4677    3.4845 O   0  0  0  0  0  0  0  0  0  0  0  0
   -2.2411   -1.8118    3.7287 O   0  0  0  0  0  0  0  0  0  0  0  0
   -2.9482   -2.0157    0.2410 N   0  0  0  0  0  0  0  0  0  0  0  0
   -4.0254   -1.7899   -0.6671 C   0  0  0  0  0  0  0  0  0  0  0  0
   -3.8561   -2.4377   -1.8122 N   0  0  0  0  0  0  0  0  0  0  0  0
   -2.6306   -3.0971   -1.7150 C   0  0  0  0  0  0  0  0  0  0  0  0
   -1.8841   -3.9185   -2.5993 C   0  0  0  0  0  0  0  0  0  0  0  0
   -2.3067   -4.2378   -3.8486 N   0  0  0  0  0  0  0  0  0  0  0  0
   -0.6688   -4.3956   -2.1884 N   0  0  0  0  0  0  0  0  0  0  0  0
   -0.2139   -4.0789   -0.9537 C   0  0  0  0  0  0  0  0  0  0  0  0
   -0.8403   -3.3145   -0.0314 N   0  0  0  0  0  0  0  0  0  0  0  0
   -2.0412   -2.8290   -0.4329 C   0  0  0  0  0  0  0  0  0  0  0  0
   -1.7249   -0.1467   -1.1414 H   0  0  0  0  0  0  0  0  0  0  0  0
    0.6626   -1.0145   -2.4067 H   0  0  0  0  0  0  0  0  0  0  0  0
    0.6084    0.7595   -2.6047 H   0  0  0  0  0  0  0  0  0  0  0  0
   -1.7136   -1.1577   -3.4131 H   0  0  0  0  0  0  0  0  0  0  0  0
   -0.5375   -0.4668   -4.5353 H   0  0  0  0  0  0  0  0  0  0  0  0
   -1.6764    0.5890   -3.6861 H   0  0  0  0  0  0  0  0  0  0  0  0
    0.4482   -1.0808    4.0442 H   0  0  0  0  0  0  0  0  0  0  0  0
   -2.0031   -0.9419    4.1399 H   0  0  0  0  0  0  0  0  0  0  0  0
   -4.8713   -1.1726   -0.4000 H   0  0  0  0  0  0  0  0  0  0  0  0
   -1.7591   -4.8409   -4.4333 H   0  0  0  0  0  0  0  0  0  0  0  0
   -3.2074   -3.9333   -4.1674 H   0  0  0  0  0  0  0  0  0  0  0  0
    0.7750   -4.4873   -0.6752 H   0  0  0  0  0  0  0  0  0  0  0  0
  1  2  2  0  0  0  0
  1  6  1  0  0  0  0
  3 27  1  0  0  0  0
  3  1  1  0  0  0  0
  4 28  1  0  0  0  0
  4  3  1  0  0  0  0
  5 30  1  0  0  0  0
  5  4  1  0  0  0  0
  6  7  1  1  0  0  0
  6 13  1  0  0  0  0
  8  6  1  0  0  0  0
  8  9  1  0  0  0  0
  9 10  1  1  0  0  0
  9 11  1  0  0  0  0
 11 13  1  0  0  0  0
 11 16  1  0  0  0  0
 11 12  1  6  0  0  0
 13 14  1  6  0  0  0
 13 15  1  0  0  0  0
 15 33  1  0  0  0  0
 16 34  1  0  0  0  0
 17  9  1  0  0  0  0
 18 35  1  0  0  0  0
 18 17  1  0  0  0  0
 19 20  2  0  0  0  0
 19 18  2  0  0  0  0
 20 26  1  0  0  0  0
 21 23  2  0  0  0  0
 21 20  1  0  0  0  0
 22 21  1  0  0  0  0
 23 24  2  0  0  0  0
 24 38  1  0  0  0  0
 24 25  2  0  0  0  0
 26 25  2  0  0  0  0
 26 17  1  0  0  0  0
 29  4  1  0  0  0  0
 31  5  1  0  0  0  0
 32  5  1  0  0  0  0
 36 22  1  0  0  0  0
 37 22  1  0  0  0  0
M  END
$$$$
