rmsd146.gzmat
 OpenBabel08211713423D

 38 40  0  0  1  0  0  0  0  0999 V2000
    0.0000    0.0000    0.0000 C   0  0  0  0  0  0  0  0  0  0  0  0
    1.2151    0.0000    0.0000 O   0  0  0  0  0  0  0  0  0  0  0  0
   -0.7410    0.0000   -1.1507 N   0  0  0  0  0  0  0  0  0  0  0  0
   -0.0951   -0.0210   -2.4681 C   0  0  0  0  0  0  0  0  0  0  0  0
   -0.3622    1.2911   -3.2119 C   0  0  0  0  0  0  0  0  0  0  0  0
   -0.7755    0.0373    1.3197 C   0  0  1  0  0  0  0  0  0  0  0  0
   -0.6572    1.0419    1.7978 H   0  0  0  0  0  0  0  0  0  0  0  0
   -2.1737   -0.0836    1.0937 O   0  0  0  0  0  0  0  0  0  0  0  0
   -2.6551   -1.3583    1.4730 C   0  0  2  0  0  0  0  0  0  0  0  0
   -3.6440   -1.1587    1.9590 H   0  0  0  0  0  0  0  0  0  0  0  0
   -1.6125   -1.9871    2.4397 C   0  0  1  0  0  0  0  0  0  0  0  0
   -1.4317   -3.0699    2.2606 H   0  0  0  0  0  0  0  0  0  0  0  0
   -0.3451   -1.1026    2.2599 C   0  0  2  0  0  0  0  0  0  0  0  0
    0.5308   -1.6734    1.8822 H   0  0  0  0  0  0  0  0  0  0  0  0
   -0.0410   -0.4792    3.4887 O   0  0  0  0  0  0  0  0  0  0  0  0
   -2.1337   -1.9339    3.7328 O   0  0  0  0  0  0  0  0  0  0  0  0
   -2.8532   -2.1237    0.2490 N   0  0  0  0  0  0  0  0  0  0  0  0
   -3.9320   -1.9129   -0.6632 C   0  0  0  0  0  0  0  0  0  0  0  0
   -3.7071   -2.4776   -1.8418 N   0  0  0  0  0  0  0  0  0  0  0  0
   -2.4409   -3.0595   -1.7659 C   0  0  0  0  0  0  0  0  0  0  0  0
   -1.6258   -3.7631   -2.6899 C   0  0  0  0  0  0  0  0  0  0  0  0
   -1.9963   -4.0022   -3.9733 N   0  0  0  0  0  0  0  0  0  0  0  0
   -0.3938   -4.1999   -2.2835 N   0  0  0  0  0  0  0  0  0  0  0  0
    0.0157   -3.9491   -1.0180 C   0  0  0  0  0  0  0  0  0  0  0  0
   -0.6704   -3.2822   -0.0627 N   0  0  0  0  0  0  0  0  0  0  0  0
   -1.8884   -2.8381   -0.4596 C   0  0  0  0  0  0  0  0  0  0  0  0
   -1.7446   -0.0683   -1.1202 H   0  0  0  0  0  0  0  0  0  0  0  0
   -0.4861   -0.8859   -3.0506 H   0  0  0  0  0  0  0  0  0  0  0  0
    1.0044   -0.1820   -2.3439 H   0  0  0  0  0  0  0  0  0  0  0  0
   -1.4345    1.4797   -3.3332 H   0  0  0  0  0  0  0  0  0  0  0  0
    0.0899    1.2740   -4.2094 H   0  0  0  0  0  0  0  0  0  0  0  0
    0.0624    2.1450   -2.6678 H   0  0  0  0  0  0  0  0  0  0  0  0
    0.5304   -1.0612    4.0344 H   0  0  0  0  0  0  0  0  0  0  0  0
   -1.9285   -1.0622    4.1572 H   0  0  0  0  0  0  0  0  0  0  0  0
   -4.8225   -1.3760   -0.3698 H   0  0  0  0  0  0  0  0  0  0  0  0
   -1.3978   -4.5180   -4.5899 H   0  0  0  0  0  0  0  0  0  0  0  0
   -2.9056   -3.7251   -4.2923 H   0  0  0  0  0  0  0  0  0  0  0  0
    1.0182   -4.3243   -0.7417 H   0  0  0  0  0  0  0  0  0  0  0  0
  1  2  2  0  0  0  0
  1  6  1  0  0  0  0
  3 27  1  0  0  0  0
  3  1  1  0  0  0  0
  4 29  1  0  0  0  0
  4  3  1  0  0  0  0
  5 32  1  0  0  0  0
  5  4  1  0  0  0  0
  6  7  1  1  0  0  0
  6 13  1  0  0  0  0
  8  6  1  0  0  0  0
  8  9  1  0  0  0  0
  9 10  1  1  0  0  0
  9 11  1  0  0  0  0
 11 13  1  0  0  0  0
 11 16  1  0  0  0  0
 11 12  1  6  0  0  0
 13 14  1  6  0  0  0
 13 15  1  0  0  0  0
 15 33  1  0  0  0  0
 16 34  1  0  0  0  0
 17  9  1  0  0  0  0
 18 35  1  0  0  0  0
 18 17  1  0  0  0  0
 19 20  2  0  0  0  0
 19 18  2  0  0  0  0
 20 26  1  0  0  0  0
 21 23  2  0  0  0  0
 21 20  1  0  0  0  0
 22 21  1  0  0  0  0
 23 24  2  0  0  0  0
 24 38  1  0  0  0  0
 24 25  2  0  0  0  0
 26 25  2  0  0  0  0
 26 17  1  0  0  0  0
 28  4  1  0  0  0  0
 30  5  1  0  0  0  0
 31  5  1  0  0  0  0
 36 22  1  0  0  0  0
 37 22  1  0  0  0  0
M  END
$$$$
