38
rmsd147.gzmat
C          0.00000        0.00000        0.00000
O          1.21740        0.00000        0.00000
N         -0.73710        0.00000       -1.14990
C         -0.05630       -0.10370       -2.45100
C         -1.05400       -0.48930       -3.54080
C         -0.75970        0.05370        1.32430
H         -0.50230        0.99630        1.86510
O         -2.15890        0.14970        1.10320
C         -2.83640       -1.01350        1.53180
H         -3.75340       -0.63870        2.05590
C         -1.88190       -1.80560        2.47570
H         -1.92150       -2.90840        2.32750
C         -0.48330       -1.20400        2.17760
H          0.18320       -1.94000        1.67200
O          0.08210       -0.82410        3.40890
O         -2.35200       -1.60520        3.77520
N         -3.21960       -1.74760        0.33220
C         -4.34090       -1.43140       -0.49090
N         -4.33040       -2.11220       -1.62980
C         -3.17280       -2.88980       -1.61380
C         -2.59420       -3.80870       -2.52780
N         -3.15270       -4.11050       -3.72710
N         -1.40570       -4.40370       -2.20100
C         -0.81870       -4.10810       -1.01760
N         -1.28090       -3.25760       -0.07410
C         -2.45630       -2.65910       -0.39070
H         -1.73640       -0.11520       -1.12330
H          0.76980       -0.85210       -2.38230
H          0.42620        0.87650       -2.67810
H         -1.53850       -1.45090       -3.33090
H         -0.55140       -0.58630       -4.51130
H         -1.84710        0.26020       -3.65500
H          1.01630       -0.54940        3.27760
H         -1.79380       -0.95210        4.26140
H         -5.09840       -0.72960       -0.17190
H         -2.72630       -4.78690       -4.33240
H         -4.04230       -3.72120       -3.97800
H          0.14010       -4.61620       -0.80530
