38
rmsd240.gzmat
C          0.00000        0.00000        0.00000
O          1.21720        0.00000        0.00000
N         -0.74990        0.00000       -1.13990
C         -0.11460       -0.01100       -2.46350
C         -0.31230        1.33930       -3.15880
C         -0.79230       -0.00270        1.31230
H         -1.15700        1.02130        1.56550
O         -1.97090       -0.77550        1.14100
C         -1.78340       -2.08990        1.62890
H         -2.79010       -2.38260        2.03650
C         -0.65720       -2.01940        2.70160
H          0.04640       -2.87590        2.66660
C          0.01300       -0.63340        2.46160
H          1.10230       -0.69590        2.25340
O         -0.21270        0.20150        3.57350
O         -1.22170       -2.11120        3.97220
N         -1.43090       -2.95140        0.51260
C         -0.16540       -3.11560       -0.12630
N         -0.26140       -3.82740       -1.24160
C         -1.61310       -4.13380       -1.40160
C         -2.35280       -4.85080       -2.37730
N         -1.77820       -5.43800       -3.45840
N         -3.70930       -4.95290       -2.23220
C         -4.30820       -4.37770       -1.16120
N         -3.70650       -3.68180       -0.17200
C         -2.36360       -3.57160       -0.31490
H         -1.75610       -0.07390       -1.10480
H         -0.55640       -0.83520       -3.06940
H          0.97470       -0.23790       -2.35700
H         -1.37290        1.58890       -3.27350
H          0.13960        1.33500       -4.15650
H          0.15650        2.15100       -2.58750
H          0.35780       -0.07110        4.32670
H         -1.71140       -1.27860        4.19830
H          0.74540       -2.69760        0.28250
H         -2.33260       -5.94710       -4.11820
H         -0.78410       -5.39830       -3.57940
H         -5.40500       -4.49210       -1.09570
