38

C          0.05190        0.15670        0.17630
O          1.26920        0.23060        0.31510
N         -0.52710        0.05030       -1.04340
C         -1.92580       -0.16940       -1.39190
C         -2.23770       -1.62020       -1.75100
C         -0.88280        0.14230        1.40080
H         -1.57600        0.99750        1.36830
O         -1.66840       -1.04690        1.43260
C         -0.94570       -2.07400        2.10080
H         -1.63420       -2.58490        2.78630
C          0.21020       -1.38680        2.88450
H          1.17190       -1.61430        2.40510
C         -0.09500        0.12080        2.70980
H          0.82580        0.71500        2.64780
O         -0.91340        0.50270        3.80580
O          0.29050       -1.77080        4.22090
N         -0.50120       -3.08400        1.16030
C          0.55000       -3.04620        0.24850
N          0.55010       -4.05810       -0.58340
C         -0.55400       -4.80770       -0.22610
C         -1.11330       -6.00810       -0.72540
N         -0.56540       -6.67690       -1.76410
N         -2.22830       -6.48300       -0.14880
C         -2.77010       -5.80760        0.87460
N         -2.34110       -4.67460        1.43370
C         -1.23080       -4.21900        0.85070
H          0.15270       -0.01770       -1.79720
H         -2.16710        0.49500       -2.23910
H         -2.55470        0.14970       -0.55140
H         -1.57290       -1.98610       -2.54950
H         -3.27730       -1.71120       -2.10260
H         -2.11280       -2.26700       -0.87350
H         -0.71420        1.41360        4.05010
H         -0.30510       -1.16600        4.69620
H          1.27700       -2.23440        0.25120
H         -0.97070       -7.55860       -2.04720
H          0.30700       -6.35800       -2.16110
H         -3.68010       -6.24440        1.30240
