
     RDKit          3D

 38 40  0  0  0  0  0  0  0  0999 V2000
    0.1021    0.3956    0.1372 C   0  0  0  0  0  0  0  0  0  0  0  0
    1.2732    0.4125    0.5138 O   0  0  0  0  0  0  0  0  0  0  0  0
   -0.3245    0.6238   -1.1176 N   0  0  0  0  0  0  0  0  0  0  0  0
    0.5865    0.7873   -2.2367 C   0  0  0  0  0  0  0  0  0  0  0  0
    0.8418   -0.5166   -2.9902 C   0  0  0  0  0  0  0  0  0  0  0  0
   -0.9570    0.0578    1.1630 C   0  0  1  0  0  0  0  0  0  0  0  0
   -0.9098    0.8156    1.9658 H   0  0  0  0  0  0  0  0  0  0  0  0
   -2.2741   -0.0380    0.6442 O   0  0  0  0  0  0  0  0  0  0  0  0
   -2.9828   -1.0715    1.3070 C   0  0  2  0  0  0  0  0  0  0  0  0
   -3.8377   -0.6552    1.8626 H   0  0  0  0  0  0  0  0  0  0  0  0
   -2.0122   -1.7041    2.3328 C   0  0  1  0  0  0  0  0  0  0  0  0
   -2.1629   -2.7971    2.3958 H   0  0  0  0  0  0  0  0  0  0  0  0
   -0.6414   -1.3175    1.7746 C   0  0  2  0  0  0  0  0  0  0  0  0
   -0.3564   -2.0141    0.9711 H   0  0  0  0  0  0  0  0  0  0  0  0
    0.3195   -1.2422    2.7934 O   0  0  0  0  0  0  0  0  0  0  0  0
   -2.2174   -1.0730    3.5712 O   0  0  0  0  0  0  0  0  0  0  0  0
   -3.5301   -1.9854    0.3252 N   0  0  0  0  0  0  0  0  0  0  0  0
   -4.8674   -2.3321    0.1977 C   0  0  0  0  0  0  0  0  0  0  0  0
   -5.1045   -3.1627   -0.7840 N   0  0  0  0  0  0  0  0  0  0  0  0
   -3.8664   -3.3811   -1.3535 C   0  0  0  0  0  0  0  0  0  0  0  0
   -3.4420   -4.1691   -2.4508 C   0  0  0  0  0  0  0  0  0  0  0  0
   -4.3059   -4.9079   -3.1765 N   0  0  0  0  0  0  0  0  0  0  0  0
   -2.1378   -4.1721   -2.7714 N   0  0  0  0  0  0  0  0  0  0  0  0
   -1.2903   -3.4327   -2.0470 C   0  0  0  0  0  0  0  0  0  0  0  0
   -1.5645   -2.6499   -1.0001 N   0  0  0  0  0  0  0  0  0  0  0  0
   -2.8651   -2.6585   -0.6857 C   0  0  0  0  0  0  0  0  0  0  0  0
   -1.3070    0.4317   -1.2884 H   0  0  0  0  0  0  0  0  0  0  0  0
    1.5267    1.1787   -1.8231 H   0  0  0  0  0  0  0  0  0  0  0  0
    0.1755    1.5537   -2.9144 H   0  0  0  0  0  0  0  0  0  0  0  0
    1.2860   -1.2661   -2.3181 H   0  0  0  0  0  0  0  0  0  0  0  0
    1.5341   -0.3485   -3.8304 H   0  0  0  0  0  0  0  0  0  0  0  0
   -0.0932   -0.9347   -3.3951 H   0  0  0  0  0  0  0  0  0  0  0  0
    1.0639   -0.7406    2.4132 H   0  0  0  0  0  0  0  0  0  0  0  0
   -1.3335   -0.9887    3.9694 H   0  0  0  0  0  0  0  0  0  0  0  0
   -5.6134   -1.9226    0.8803 H   0  0  0  0  0  0  0  0  0  0  0  0
   -3.9543   -5.4659   -3.9427 H   0  0  0  0  0  0  0  0  0  0  0  0
   -5.2863   -4.9202   -2.9327 H   0  0  0  0  0  0  0  0  0  0  0  0
   -0.2394   -3.4732   -2.3545 H   0  0  0  0  0  0  0  0  0  0  0  0
  1  2  2  0
  1  3  1  0
  1  6  1  0
  3  4  1  0
  3 27  1  0
  4  5  1  0
  4 28  1  0
  4 29  1  0
  5 30  1  0
  5 31  1  0
  5 32  1  0
  6  7  1  1
  6  8  1  0
  6 13  1  0
  8  9  1  0
  9 10  1  1
  9 11  1  0
  9 17  1  0
 11 12  1  1
 11 13  1  0
 11 16  1  0
 13 14  1  6
 13 15  1  0
 15 33  1  0
 16 34  1  0
 17 18  1  0
 17 26  1  0
 18 19  2  0
 18 35  1  0
 19 20  1  0
 20 21  1  0
 20 26  2  0
 21 22  1  0
 21 23  2  0
 22 36  1  0
 22 37  1  0
 23 24  1  0
 24 25  2  0
 24 38  1  0
 25 26  1  0
M  END

