55
rmsd3.gzmat
C          0.00000        0.00000        0.00000
C          1.53600        0.00000        0.00000
C          2.04960        0.00000        1.46400
O          1.77220        0.76190        2.35680
N          2.94260       -1.04390        1.61270
C          3.05980       -1.85790        0.39580
N          2.02810       -1.30480       -0.52620
C          2.15940       -1.58080       -1.89510
C          1.32210       -0.95970       -2.84240
C          1.39020       -1.32010       -4.18120
C          2.28060       -2.30290       -4.61110
C          3.10040       -2.93190       -3.67880
C          3.04920       -2.58230       -2.33320
C          2.12370        1.22860       -0.71220
C          1.47730        2.52260       -0.18410
N          0.00970        2.42880       -0.36600
C         -0.66230        3.72050       -0.13810
C         -0.56940        4.28010        1.29820
C         -1.14380        5.69660        1.36850
C         -0.23220        6.65890        0.64460
O         -0.49070        7.00370       -0.48540
C          0.98630        7.17020        1.32040
C          1.36180        6.75930        2.60110
C          2.51920        7.26000        3.19040
C          3.27860        8.17950        2.46660
C          2.93040        8.61250        1.18760
C          1.77160        8.09300        0.61950
F          4.37980        8.66270        3.01910
C         -0.54940        1.35240        0.48500
H         -0.38690       -0.82150        0.63180
H         -0.37950       -0.20490       -1.02250
H          3.36150       -1.32370        2.47540
H          4.09630       -1.77230       -0.01710
H          2.81450       -2.92990        0.59950
H          0.60570       -0.19710       -2.53590
H          0.73850       -0.82660       -4.90300
H          2.33140       -2.57490       -5.66050
H          3.79330       -3.70850       -4.00270
H          3.69750       -3.10510       -1.63980
H          3.22010        1.27160       -0.58280
H          1.94950        1.16280       -1.80590
H          1.77340        2.68750        0.87660
H          1.85300        3.38970       -0.76990
H         -1.72980        3.59900       -0.42910
H         -0.23910        4.45400       -0.86400
H          0.48230        4.26480        1.64380
H         -1.11800        3.61880        1.99590
H         -1.30360        6.00830        2.41740
H         -2.15170        5.72240        0.89980
H          0.75410        6.03950        3.15360
H          2.82010        6.94000        4.18630
H          3.54420        9.33180        0.64840
H          1.46580        8.40240       -0.38670
H         -1.65600        1.35940        0.38170
H         -0.31810        1.49100        1.56550
