rmsd239.gzmat
 OpenBabel08211713383D

 55 58  0  0  0  0  0  0  0  0999 V2000
    0.0000    0.0000    0.0000 C   0  0  0  0  0  0  0  0  0  0  0  0
    1.5383    0.0000    0.0000 C   0  0  0  0  0  0  0  0  0  0  0  0
    2.0700    0.0000    1.4531 C   0  0  0  0  0  0  0  0  0  0  0  0
    2.0486    0.8950    2.2616 O   0  0  0  0  0  0  0  0  0  0  0  0
    2.6267   -1.2405    1.7059 N   0  0  0  0  0  0  0  0  0  0  0  0
    2.4340   -2.1677    0.5764 C   0  0  0  0  0  0  0  0  0  0  0  0
    1.9661   -1.3283   -0.5619 N   0  0  0  0  0  0  0  0  0  0  0  0
    2.8899   -1.2506   -1.6606 C   0  0  0  0  0  0  0  0  0  0  0  0
    2.3321   -1.4008   -2.9365 C   0  0  0  0  0  0  0  0  0  0  0  0
    3.1555   -1.3352   -4.0563 C   0  0  0  0  0  0  0  0  0  0  0  0
    4.5259   -1.1271   -3.9088 C   0  0  0  0  0  0  0  0  0  0  0  0
    5.0787   -0.9894   -2.6365 C   0  0  0  0  0  0  0  0  0  0  0  0
    4.2666   -1.0500   -1.5076 C   0  0  0  0  0  0  0  0  0  0  0  0
    2.0882    1.2090   -0.7643 C   0  0  0  0  0  0  0  0  0  0  0  0
    1.4589    2.5185   -0.2553 C   0  0  0  0  0  0  0  0  0  0  0  0
   -0.0107    2.4206   -0.4108 N   0  0  0  0  0  0  0  0  0  0  0  0
   -0.6906    3.7176   -0.1747 C   0  0  0  0  0  0  0  0  0  0  0  0
   -1.8050    3.8618   -1.2339 C   0  0  0  0  0  0  0  0  0  0  0  0
   -1.2084    4.1523   -2.6176 C   0  0  0  0  0  0  0  0  0  0  0  0
   -2.1242    3.6319   -3.6968 C   0  0  0  0  0  0  0  0  0  0  0  0
   -2.8350    4.3915   -4.3141 O   0  0  0  0  0  0  0  0  0  0  0  0
   -2.1409    2.1782   -4.0007 C   0  0  0  0  0  0  0  0  0  0  0  0
   -1.3359    1.2631   -3.3189 C   0  0  0  0  0  0  0  0  0  0  0  0
   -1.3809   -0.0903   -3.6408 C   0  0  0  0  0  0  0  0  0  0  0  0
   -2.2468   -0.4936   -4.6565 C   0  0  0  0  0  0  0  0  0  0  0  0
   -3.0659    0.3927   -5.3548 C   0  0  0  0  0  0  0  0  0  0  0  0
   -3.0025    1.7401   -5.0131 C   0  0  0  0  0  0  0  0  0  0  0  0
   -2.2945   -1.7791   -4.9715 F   0  0  0  0  0  0  0  0  0  0  0  0
   -0.5484    1.3563    0.4706 C   0  0  0  0  0  0  0  0  0  0  0  0
   -0.3930   -0.8156    0.6338 H   0  0  0  0  0  0  0  0  0  0  0  0
   -0.3580   -0.2184   -1.0276 H   0  0  0  0  0  0  0  0  0  0  0  0
    3.0200   -1.5280    2.5773 H   0  0  0  0  0  0  0  0  0  0  0  0
    3.3670   -2.7299    0.3525 H   0  0  0  0  0  0  0  0  0  0  0  0
    1.6129   -2.8960    0.8013 H   0  0  0  0  0  0  0  0  0  0  0  0
    1.2610   -1.5710   -3.0408 H   0  0  0  0  0  0  0  0  0  0  0  0
    2.7255   -1.4452   -5.0514 H   0  0  0  0  0  0  0  0  0  0  0  0
    5.1651   -1.0723   -4.7877 H   0  0  0  0  0  0  0  0  0  0  0  0
    6.1499   -0.8273   -2.5245 H   0  0  0  0  0  0  0  0  0  0  0  0
    4.6997   -0.9303   -0.5167 H   0  0  0  0  0  0  0  0  0  0  0  0
    3.1892    1.2679   -0.6773 H   0  0  0  0  0  0  0  0  0  0  0  0
    1.8652    1.0965   -1.8472 H   0  0  0  0  0  0  0  0  0  0  0  0
    1.7722    2.7117    0.7959 H   0  0  0  0  0  0  0  0  0  0  0  0
    1.8289    3.3656   -0.8726 H   0  0  0  0  0  0  0  0  0  0  0  0
    0.0231    4.5627   -0.2667 H   0  0  0  0  0  0  0  0  0  0  0  0
   -1.1231    3.7953    0.8446 H   0  0  0  0  0  0  0  0  0  0  0  0
   -2.4999    4.6703   -0.9416 H   0  0  0  0  0  0  0  0  0  0  0  0
   -2.4105    2.9337   -1.2581 H   0  0  0  0  0  0  0  0  0  0  0  0
   -0.2020    3.6925   -2.7110 H   0  0  0  0  0  0  0  0  0  0  0  0
   -1.0549    5.2425   -2.7488 H   0  0  0  0  0  0  0  0  0  0  0  0
   -0.6655    1.6037   -2.5131 H   0  0  0  0  0  0  0  0  0  0  0  0
   -0.7600   -0.8099   -3.1101 H   0  0  0  0  0  0  0  0  0  0  0  0
   -3.7340    0.0482   -6.1408 H   0  0  0  0  0  0  0  0  0  0  0  0
   -3.6296    2.4697   -5.5370 H   0  0  0  0  0  0  0  0  0  0  0  0
   -1.6570    1.3569    0.3920 H   0  0  0  0  0  0  0  0  0  0  0  0
   -0.2930    1.5188    1.5423 H   0  0  0  0  0  0  0  0  0  0  0  0
  1  2  1  0  0  0  0
  1 29  1  0  0  0  0
  1 30  1  0  0  0  0
  2  3  1  0  0  0  0
  3  5  1  0  0  0  0
  3  4  2  0  0  0  0
  5 32  1  0  0  0  0
  6 34  1  0  0  0  0
  6  5  1  0  0  0  0
  7  2  1  0  0  0  0
  7  6  1  0  0  0  0
  8 13  1  0  0  0  0
  8  7  1  0  0  0  0
  9  8  2  0  0  0  0
 10 11  2  0  0  0  0
 10  9  1  0  0  0  0
 11 12  1  0  0  0  0
 12 38  1  0  0  0  0
 12 13  2  0  0  0  0
 13 39  1  0  0  0  0
 14 40  1  0  0  0  0
 14 15  1  0  0  0  0
 14  2  1  0  0  0  0
 15 42  1  0  0  0  0
 16 15  1  0  0  0  0
 16 17  1  0  0  0  0
 16 29  1  0  0  0  0
 17 45  1  0  0  0  0
 18 46  1  0  0  0  0
 18 17  1  0  0  0  0
 19 18  1  0  0  0  0
 20 19  1  0  0  0  0
 21 20  2  0  0  0  0
 22 20  1  0  0  0  0
 22 23  2  0  0  0  0
 23 50  1  0  0  0  0
 24 23  1  0  0  0  0
 24 51  1  0  0  0  0
 25 24  2  0  0  0  0
 26 27  2  0  0  0  0
 26 25  1  0  0  0  0
 27 22  1  0  0  0  0
 28 25  1  0  0  0  0
 29 55  1  0  0  0  0
 31  1  1  0  0  0  0
 33  6  1  0  0  0  0
 35  9  1  0  0  0  0
 36 10  1  0  0  0  0
 37 11  1  0  0  0  0
 41 14  1  0  0  0  0
 43 15  1  0  0  0  0
 44 17  1  0  0  0  0
 47 18  1  0  0  0  0
 48 19  1  0  0  0  0
 49 19  1  0  0  0  0
 52 26  1  0  0  0  0
 53 27  1  0  0  0  0
 54 29  1  0  0  0  0
M  END
$$$$
