55

C          0.18600        0.13290       -0.09290
C          1.71330       -0.03080        0.10920
C          1.98030       -0.33170        1.59390
O          1.72470        0.39220        2.53510
N          2.55740       -1.56100        1.66070
C          2.75870       -2.20740        0.39160
N          2.23520       -1.23740       -0.54930
C          2.25020       -1.51190       -1.90820
C          2.78960       -2.73560       -2.37360
C          2.81970       -3.03950       -3.73470
C          2.31870       -2.14750       -4.68370
C          1.78320       -0.93660       -4.23660
C          1.74440       -0.61500       -2.88130
C          2.50670        1.23980       -0.28470
C          1.83430        2.53000        0.18270
N          0.44850        2.55730       -0.26190
C         -0.18250        3.86420       -0.22980
C         -0.36900        4.50080        1.15920
C         -1.12820        5.82300        1.09690
C         -2.61820        5.65920        0.82490
O         -3.12880        4.55620        0.75490
C         -3.45490        6.89230        0.65960
C         -4.82830        6.72680        0.40720
C         -5.66440        7.82650        0.24520
C         -5.11440        9.10550        0.33970
C         -3.75850        9.30620        0.59030
C         -2.93270        8.19360        0.74900
F         -5.91070       10.16850        0.18550
C         -0.32980        1.49580        0.36390
H         -0.33080       -0.67530        0.44970
H         -0.04840        0.00180       -1.15650
H          2.82480       -1.97220        2.54670
H          3.83150       -2.42370        0.20700
H          2.21650       -3.17410        0.33220
H          3.19310       -3.46480       -1.67200
H          3.24490       -3.99540       -4.05180
H          2.34390       -2.38960       -5.74780
H          1.38220       -0.21750       -4.95570
H          1.31580        0.33930       -2.58750
H          3.52470        1.16390        0.13090
H          2.61060        1.27000       -1.37630
H          1.92620        2.61660        1.28400
H          2.36390        3.38930       -0.26090
H         -1.16930        3.77250       -0.71020
H          0.41620        4.54850       -0.85880
H          0.61410        4.67180        1.62580
H         -0.92010        3.80630        1.81070
H         -0.69890        6.48780        0.32570
H         -1.02940        6.37860        2.04660
H         -5.21740        5.70940        0.34240
H         -6.73210        7.71660        0.04780
H         -3.37130       10.32420        0.65690
H         -1.87200        8.35310        0.94570
H         -1.38320        1.60770        0.06300
H         -0.29790        1.55020        1.47020
