55
rmsd239.gzmat
C          0.00000        0.00000        0.00000
C          1.53830        0.00000        0.00000
C          2.07000        0.00000        1.45310
O          2.04860        0.89500        2.26160
N          2.62670       -1.24050        1.70590
C          2.43400       -2.16770        0.57640
N          1.96610       -1.32830       -0.56190
C          2.88990       -1.25060       -1.66060
C          2.33210       -1.40080       -2.93650
C          3.15550       -1.33520       -4.05630
C          4.52590       -1.12710       -3.90880
C          5.07870       -0.98940       -2.63650
C          4.26660       -1.05000       -1.50760
C          2.08820        1.20900       -0.76430
C          1.45890        2.51850       -0.25530
N         -0.01070        2.42060       -0.41080
C         -0.69060        3.71760       -0.17470
C         -1.80500        3.86180       -1.23390
C         -1.20840        4.15230       -2.61760
C         -2.12420        3.63190       -3.69680
O         -2.83500        4.39150       -4.31410
C         -2.14090        2.17820       -4.00070
C         -1.33590        1.26310       -3.31890
C         -1.38090       -0.09030       -3.64080
C         -2.24680       -0.49360       -4.65650
C         -3.06590        0.39270       -5.35480
C         -3.00250        1.74010       -5.01310
F         -2.29450       -1.77910       -4.97150
C         -0.54840        1.35630        0.47060
H         -0.39300       -0.81560        0.63380
H         -0.35800       -0.21840       -1.02760
H          3.02000       -1.52800        2.57730
H          3.36700       -2.72990        0.35250
H          1.61290       -2.89600        0.80130
H          1.26100       -1.57100       -3.04080
H          2.72550       -1.44520       -5.05140
H          5.16510       -1.07230       -4.78770
H          6.14990       -0.82730       -2.52450
H          4.69970       -0.93030       -0.51670
H          3.18920        1.26790       -0.67730
H          1.86520        1.09650       -1.84720
H          1.77220        2.71170        0.79590
H          1.82890        3.36560       -0.87260
H          0.02310        4.56270       -0.26670
H         -1.12310        3.79530        0.84460
H         -2.49990        4.67030       -0.94160
H         -2.41050        2.93370       -1.25810
H         -0.20200        3.69250       -2.71100
H         -1.05490        5.24250       -2.74880
H         -0.66550        1.60370       -2.51310
H         -0.76000       -0.80990       -3.11010
H         -3.73400        0.04820       -6.14080
H         -3.62960        2.46970       -5.53700
H         -1.65700        1.35690        0.39200
H         -0.29300        1.51880        1.54230
