55
rmsd99.gzmat
C          0.00000        0.00000        0.00000
C          1.53590        0.00000        0.00000
C          2.04900        0.00000        1.46430
O          1.77540        0.76500        2.35570
N          2.93610       -1.04850        1.61540
C          3.04900       -1.86620        0.40050
N          2.02580       -1.30550       -0.52640
C          2.15950       -1.58240       -1.89460
C          3.04040       -2.59490       -2.32630
C          3.09390       -2.94980       -3.67030
C          2.28310       -2.31670       -4.60760
C          1.40390       -1.32070       -4.18480
C          1.33470       -0.95370       -2.84770
C          2.12470        1.22650       -0.71440
C          1.47910        2.52330       -0.19330
N          0.01140        2.42830       -0.37130
C         -0.65850        3.72200       -0.14860
C         -0.54890        4.29610        1.28060
C         -1.22050        5.66840        1.37160
C         -0.41990        6.68850        0.59800
O         -0.65960        6.89780       -0.56840
C          0.65760        7.44290        1.28540
C          1.19290        7.03100        2.50740
C          2.20630        7.76720        3.11390
C          2.66080        8.91590        2.46560
C          2.14940        9.35170        1.24360
C          1.13990        8.59590        0.65570
F          3.62290        9.62350        3.03580
C         -0.54860        1.35400        0.48160
H         -0.38660       -0.81990        0.63440
H         -0.37910       -0.20910       -1.02140
H          3.35780       -1.32570        2.47770
H          4.08690       -1.79120       -0.01050
H          2.79150       -2.93510        0.60630
H          3.67870       -3.12350       -1.62830
H          3.78040       -3.73420       -3.98910
H          2.33040       -2.59760       -5.65490
H          0.76070       -0.82330       -4.91120
H          0.62550       -0.18120       -2.54870
H          3.22100        1.26930       -0.58440
H          1.95200        1.15780       -1.80820
H          1.77950        2.69820        0.86430
H          1.85220        3.38570       -0.78850
H         -1.72890        3.59880       -0.42650
H         -0.24300        4.44840       -0.88630
H          0.51340        4.35700        1.58450
H         -1.02340        3.60170        2.00080
H         -1.34940        5.97280        2.42720
H         -2.24900        5.61680        0.95280
H          0.82490        6.12620        2.99600
H          2.62880        7.45310        4.06640
H          2.52690       10.25090        0.76010
H          0.71800        8.89860       -0.30930
H         -1.65510        1.36070        0.37880
H         -0.31820        1.49400        1.56190
