
     RDKit          3D

 55 58  0  0  0  0  0  0  0  0999 V2000
    0.1817   -0.0027    0.0098 C   0  0  0  0  0  0  0  0  0  0  0  0
    1.7270   -0.0572    0.0954 C   0  0  0  0  0  0  0  0  0  0  0  0
    2.1272   -0.3247    1.5566 C   0  0  0  0  0  0  0  0  0  0  0  0
    1.8829    0.3830    2.5135 O   0  0  0  0  0  0  0  0  0  0  0  0
    2.8065   -1.5015    1.5817 N   0  0  0  0  0  0  0  0  0  0  0  0
    2.9576   -2.1430    0.3030 C   0  0  0  0  0  0  0  0  0  0  0  0
    2.2819   -1.2293   -0.5965 N   0  0  0  0  0  0  0  0  0  0  0  0
    2.2150   -1.5151   -1.9522 C   0  0  0  0  0  0  0  0  0  0  0  0
    1.5725   -0.6682   -2.8883 C   0  0  0  0  0  0  0  0  0  0  0  0
    1.5322   -1.0000   -4.2411 C   0  0  0  0  0  0  0  0  0  0  0  0
    2.1203   -2.1731   -4.7215 C   0  0  0  0  0  0  0  0  0  0  0  0
    2.7565   -3.0157   -3.8093 C   0  0  0  0  0  0  0  0  0  0  0  0
    2.8072   -2.7004   -2.4513 C   0  0  0  0  0  0  0  0  0  0  0  0
    2.3914    1.2644   -0.3629 C   0  0  0  0  0  0  0  0  0  0  0  0
    1.6726    2.5041    0.1662 C   0  0  0  0  0  0  0  0  0  0  0  0
    0.2537    2.4364   -0.1567 N   0  0  0  0  0  0  0  0  0  0  0  0
   -0.4496    3.7029   -0.0564 C   0  0  0  0  0  0  0  0  0  0  0  0
   -0.5831    4.2926    1.3584 C   0  0  0  0  0  0  0  0  0  0  0  0
   -1.2551    5.6782    1.3653 C   0  0  0  0  0  0  0  0  0  0  0  0
   -0.4476    6.7167    0.6034 C   0  0  0  0  0  0  0  0  0  0  0  0
   -0.7818    7.0658   -0.5142 O   0  0  0  0  0  0  0  0  0  0  0  0
    0.8031    7.2644    1.2252 C   0  0  0  0  0  0  0  0  0  0  0  0
    1.1981    6.9840    2.5443 C   0  0  0  0  0  0  0  0  0  0  0  0
    2.3734    7.5223    3.0678 C   0  0  0  0  0  0  0  0  0  0  0  0
    3.1536    8.3448    2.2579 C   0  0  0  0  0  0  0  0  0  0  0  0
    2.7894    8.6446    0.9445 C   0  0  0  0  0  0  0  0  0  0  0  0
    1.6134    8.1020    0.4378 C   0  0  0  0  0  0  0  0  0  0  0  0
    4.2829    8.8619    2.7533 F   0  0  0  0  0  0  0  0  0  0  0  0
   -0.3948    1.3189    0.5151 C   0  0  0  0  0  0  0  0  0  0  0  0
   -0.2347   -0.8471    0.5826 H   0  0  0  0  0  0  0  0  0  0  0  0
   -0.1220   -0.1460   -1.0345 H   0  0  0  0  0  0  0  0  0  0  0  0
    3.1717   -1.8833    2.4458 H   0  0  0  0  0  0  0  0  0  0  0  0
    4.0261   -2.2731    0.0330 H   0  0  0  0  0  0  0  0  0  0  0  0
    2.4935   -3.1510    0.2926 H   0  0  0  0  0  0  0  0  0  0  0  0
    1.0994    0.2561   -2.5683 H   0  0  0  0  0  0  0  0  0  0  0  0
    1.0266   -0.3195   -4.9311 H   0  0  0  0  0  0  0  0  0  0  0  0
    2.0830   -2.4236   -5.7834 H   0  0  0  0  0  0  0  0  0  0  0  0
    3.2264   -3.9409   -4.1532 H   0  0  0  0  0  0  0  0  0  0  0  0
    3.3156   -3.3907   -1.7792 H   0  0  0  0  0  0  0  0  0  0  0  0
    3.4442    1.2631   -0.0372 H   0  0  0  0  0  0  0  0  0  0  0  0
    2.3978    1.2983   -1.4593 H   0  0  0  0  0  0  0  0  0  0  0  0
    1.8536    2.5972    1.2558 H   0  0  0  0  0  0  0  0  0  0  0  0
    2.0991    3.3989   -0.3154 H   0  0  0  0  0  0  0  0  0  0  0  0
   -1.4585    3.5759   -0.4873 H   0  0  0  0  0  0  0  0  0  0  0  0
    0.0667    4.4273   -0.7081 H   0  0  0  0  0  0  0  0  0  0  0  0
    0.4128    4.3573    1.8248 H   0  0  0  0  0  0  0  0  0  0  0  0
   -1.1761    3.6133    1.9919 H   0  0  0  0  0  0  0  0  0  0  0  0
   -1.4184    6.0078    2.4035 H   0  0  0  0  0  0  0  0  0  0  0  0
   -2.2371    5.6238    0.8722 H   0  0  0  0  0  0  0  0  0  0  0  0
    0.5881    6.3430    3.1814 H   0  0  0  0  0  0  0  0  0  0  0  0
    2.6947    7.3161    4.0899 H   0  0  0  0  0  0  0  0  0  0  0  0
    3.4306    9.2947    0.3467 H   0  0  0  0  0  0  0  0  0  0  0  0
    1.2892    8.3124   -0.5827 H   0  0  0  0  0  0  0  0  0  0  0  0
   -1.4726    1.3495    0.2860 H   0  0  0  0  0  0  0  0  0  0  0  0
   -0.2883    1.3699    1.6172 H   0  0  0  0  0  0  0  0  0  0  0  0
  1  2  1  0
  1 29  1  0
  1 30  1  0
  1 31  1  0
  2  3  1  0
  2  7  1  0
  2 14  1  0
  3  4  2  0
  3  5  1  0
  5  6  1  0
  5 32  1  0
  6  7  1  0
  6 33  1  0
  6 34  1  0
  7  8  1  0
  8  9  2  0
  8 13  1  0
  9 10  1  0
  9 35  1  0
 10 11  2  0
 10 36  1  0
 11 12  1  0
 11 37  1  0
 12 13  2  0
 12 38  1  0
 13 39  1  0
 14 15  1  0
 14 40  1  0
 14 41  1  0
 15 16  1  0
 15 42  1  0
 15 43  1  0
 16 17  1  0
 16 29  1  0
 17 18  1  0
 17 44  1  0
 17 45  1  0
 18 19  1  0
 18 46  1  0
 18 47  1  0
 19 20  1  0
 19 48  1  0
 19 49  1  0
 20 21  2  0
 20 22  1  0
 22 23  2  0
 22 27  1  0
 23 24  1  0
 23 50  1  0
 24 25  2  0
 24 51  1  0
 25 26  1  0
 25 28  1  0
 26 27  2  0
 26 52  1  0
 27 53  1  0
 29 54  1  0
 29 55  1  0
M  END

