55
rmsd5.gzmat
C          0.00000        0.00000        0.00000
C          1.53550        0.00000        0.00000
C          2.05240        0.00000        1.46300
O          1.76060        0.74720        2.36350
N          2.97290       -1.02160        1.59890
C          3.09770       -1.82680        0.37690
N          2.03900       -1.29920       -0.53210
C          2.18010       -1.55260       -1.90640
C          3.10900       -2.50980       -2.36140
C          3.17070       -2.83690       -3.71240
C          2.32210       -2.23030       -4.63370
C          1.39380       -1.29090       -4.18770
C          1.31560       -0.95340       -2.84340
C          2.11210        1.23280       -0.71320
C          1.48610        2.52000       -0.14990
N          0.01420        2.44660       -0.30700
C         -0.62830        3.73930       -0.00160
C         -0.47030        4.23830        1.45040
C         -1.16540        5.58360        1.64950
C         -2.64720        5.50930        1.37090
O         -3.17850        6.31940        0.65020
C         -3.43990        4.41150        1.98230
C         -4.45880        3.83760        1.21700
C         -5.22740        2.80060        1.73750
C         -4.95410        2.37520        3.03710
C         -3.95300        2.93970        3.82800
C         -3.19350        3.97120        3.28340
F         -5.68010        1.39170        3.54530
C         -0.55050        1.34420        0.50740
H         -0.38680       -0.83020        0.62110
H         -0.38130       -0.19110       -1.02430
H          3.39650       -1.30130        2.45970
H          4.12670       -1.70830       -0.04680
H          2.88480       -2.90600        0.57720
H          3.78000       -3.01690       -1.67760
H          3.89480       -3.57790       -4.05040
H          2.37900       -2.48840       -5.68640
H          0.72020       -0.81500       -4.90070
H          0.56810       -0.22700       -2.52410
H          3.21170        1.26790       -0.61540
H          1.90460        1.18150       -1.80210
H          1.80160        2.66470        0.90790
H          1.85790        3.39400       -0.72800
H         -1.70840        3.63970       -0.25470
H         -0.21870        4.49410       -0.70960
H          0.60370        4.33200        1.70370
H         -0.87070        3.48300        2.15440
H         -0.70800        6.35350        0.98950
H         -1.00080        5.95610        2.68140
H         -4.65320        4.21210        0.20800
H         -6.02120        2.34470        1.14830
H         -3.76950        2.58760        4.84160
H         -2.40710        4.43430        3.88150
H         -1.65650        1.35630        0.39080
H         -0.33420        1.45370        1.59440
