rmsd31.gzmat
 OpenBabel08211713383D

 55 58  0  0  0  0  0  0  0  0999 V2000
    0.0000    0.0000    0.0000 C   0  0  0  0  0  0  0  0  0  0  0  0
    1.5357    0.0000    0.0000 C   0  0  0  0  0  0  0  0  0  0  0  0
    2.0485    0.0000    1.4643 C   0  0  0  0  0  0  0  0  0  0  0  0
    1.7696    0.7606    2.3578 O   0  0  0  0  0  0  0  0  0  0  0  0
    2.9435   -1.0419    1.6124 N   0  0  0  0  0  0  0  0  0  0  0  0
    3.0667   -1.8508    0.3930 C   0  0  0  0  0  0  0  0  0  0  0  0
    2.0344   -1.3013   -0.5321 N   0  0  0  0  0  0  0  0  0  0  0  0
    2.1971   -1.5453   -1.9058 C   0  0  0  0  0  0  0  0  0  0  0  0
    1.3341   -0.9514   -2.8479 C   0  0  0  0  0  0  0  0  0  0  0  0
    1.4296   -1.2813   -4.1930 C   0  0  0  0  0  0  0  0  0  0  0  0
    2.3756   -2.2056   -4.6342 C   0  0  0  0  0  0  0  0  0  0  0  0
    3.2231   -2.8059   -3.7080 C   0  0  0  0  0  0  0  0  0  0  0  0
    3.1440   -2.4863   -2.3560 C   0  0  0  0  0  0  0  0  0  0  0  0
    2.1177    1.2299   -0.7135 C   0  0  0  0  0  0  0  0  0  0  0  0
    1.4791    2.5225   -0.1754 C   0  0  0  0  0  0  0  0  0  0  0  0
    0.0081    2.4362   -0.3350 N   0  0  0  0  0  0  0  0  0  0  0  0
   -0.6481    3.7292   -0.0645 C   0  0  0  0  0  0  0  0  0  0  0  0
   -0.4876    4.2756    1.3703 C   0  0  0  0  0  0  0  0  0  0  0  0
   -1.2018    5.6167    1.5288 C   0  0  0  0  0  0  0  0  0  0  0  0
   -2.6827    5.5079    1.2558 C   0  0  0  0  0  0  0  0  0  0  0  0
   -3.2298    6.2780    0.5038 O   0  0  0  0  0  0  0  0  0  0  0  0
   -3.4532    4.4207    1.9128 C   0  0  0  0  0  0  0  0  0  0  0  0
   -3.1987    4.0411    3.2314 C   0  0  0  0  0  0  0  0  0  0  0  0
   -3.9323    3.0133    3.8170 C   0  0  0  0  0  0  0  0  0  0  0  0
   -4.9158    2.3907    3.0480 C   0  0  0  0  0  0  0  0  0  0  0  0
   -5.1999    2.7579    1.7330 C   0  0  0  0  0  0  0  0  0  0  0  0
   -4.4571    3.7924    1.1713 C   0  0  0  0  0  0  0  0  0  0  0  0
   -5.6131    1.4067    3.5938 F   0  0  0  0  0  0  0  0  0  0  0  0
   -0.5464    1.3467    0.5034 C   0  0  0  0  0  0  0  0  0  0  0  0
   -0.3890   -0.8287    0.6217 H   0  0  0  0  0  0  0  0  0  0  0  0
   -0.3798   -0.1918   -1.0247 H   0  0  0  0  0  0  0  0  0  0  0  0
    3.3563   -1.3262    2.4768 H   0  0  0  0  0  0  0  0  0  0  0  0
    4.1049   -1.7572   -0.0142 H   0  0  0  0  0  0  0  0  0  0  0  0
    2.8253   -2.9246    0.5904 H   0  0  0  0  0  0  0  0  0  0  0  0
    0.5752   -0.2351   -2.5318 H   0  0  0  0  0  0  0  0  0  0  0  0
    0.7551   -0.8122   -4.9099 H   0  0  0  0  0  0  0  0  0  0  0  0
    2.4462   -2.4565   -5.6879 H   0  0  0  0  0  0  0  0  0  0  0  0
    3.9603   -3.5364   -4.0418 H   0  0  0  0  0  0  0  0  0  0  0  0
    3.8181   -2.9852   -1.6688 H   0  0  0  0  0  0  0  0  0  0  0  0
    3.2155    1.2692   -0.5960 H   0  0  0  0  0  0  0  0  0  0  0  0
    1.9326    1.1675   -1.8056 H   0  0  0  0  0  0  0  0  0  0  0  0
    1.7912    2.6867    0.8807 H   0  0  0  0  0  0  0  0  0  0  0  0
    1.8465    3.3890   -0.7673 H   0  0  0  0  0  0  0  0  0  0  0  0
   -1.7289    3.6085   -0.3068 H   0  0  0  0  0  0  0  0  0  0  0  0
   -0.2534    4.4670   -0.7986 H   0  0  0  0  0  0  0  0  0  0  0  0
    0.5862    4.3918    1.6141 H   0  0  0  0  0  0  0  0  0  0  0  0
   -0.8736    3.5373    2.1000 H   0  0  0  0  0  0  0  0  0  0  0  0
   -0.7568    6.3718    0.8441 H   0  0  0  0  0  0  0  0  0  0  0  0
   -1.0431    6.0255    2.5474 H   0  0  0  0  0  0  0  0  0  0  0  0
   -2.4259    4.5483    3.8112 H   0  0  0  0  0  0  0  0  0  0  0  0
   -3.7411    2.7059    4.8437 H   0  0  0  0  0  0  0  0  0  0  0  0
   -5.9819    2.2593    1.1632 H   0  0  0  0  0  0  0  0  0  0  0  0
   -4.6601    4.1216    0.1481 H   0  0  0  0  0  0  0  0  0  0  0  0
   -1.6539    1.3549    0.4066 H   0  0  0  0  0  0  0  0  0  0  0  0
   -0.3113    1.4707    1.5852 H   0  0  0  0  0  0  0  0  0  0  0  0
  1  2  1  0  0  0  0
  1 29  1  0  0  0  0
  1 30  1  0  0  0  0
  2  3  1  0  0  0  0
  3  5  1  0  0  0  0
  3  4  2  0  0  0  0
  5 32  1  0  0  0  0
  6 34  1  0  0  0  0
  6  5  1  0  0  0  0
  7  2  1  0  0  0  0
  7  6  1  0  0  0  0
  8  7  1  0  0  0  0
  9 35  1  0  0  0  0
  9  8  2  0  0  0  0
 10  9  1  0  0  0  0
 11 10  2  0  0  0  0
 11 12  1  0  0  0  0
 12 13  2  0  0  0  0
 13  8  1  0  0  0  0
 13 39  1  0  0  0  0
 14 40  1  0  0  0  0
 14 15  1  0  0  0  0
 14  2  1  0  0  0  0
 15 42  1  0  0  0  0
 16 15  1  0  0  0  0
 16 17  1  0  0  0  0
 16 29  1  0  0  0  0
 17 18  1  0  0  0  0
 18 19  1  0  0  0  0
 18 46  1  0  0  0  0
 18 47  1  0  0  0  0
 19 49  1  0  0  0  0
 20 19  1  0  0  0  0
 20 22  1  0  0  0  0
 21 20  2  0  0  0  0
 22 23  2  0  0  0  0
 23 50  1  0  0  0  0
 23 24  1  0  0  0  0
 24 51  1  0  0  0  0
 25 28  1  0  0  0  0
 25 24  2  0  0  0  0
 26 25  1  0  0  0  0
 27 26  2  0  0  0  0
 27 22  1  0  0  0  0
 29 55  1  0  0  0  0
 31  1  1  0  0  0  0
 33  6  1  0  0  0  0
 36 10  1  0  0  0  0
 37 11  1  0  0  0  0
 38 12  1  0  0  0  0
 41 14  1  0  0  0  0
 43 15  1  0  0  0  0
 44 17  1  0  0  0  0
 45 17  1  0  0  0  0
 48 19  1  0  0  0  0
 52 26  1  0  0  0  0
 53 27  1  0  0  0  0
 54 29  1  0  0  0  0
M  END
$$$$
