rmsd99.gzmat
 OpenBabel08211713383D

 55 58  0  0  0  0  0  0  0  0999 V2000
    0.0000    0.0000    0.0000 C   0  0  0  0  0  0  0  0  0  0  0  0
    1.5359    0.0000    0.0000 C   0  0  0  0  0  0  0  0  0  0  0  0
    2.0490    0.0000    1.4643 C   0  0  0  0  0  0  0  0  0  0  0  0
    1.7754    0.7650    2.3557 O   0  0  0  0  0  0  0  0  0  0  0  0
    2.9361   -1.0485    1.6154 N   0  0  0  0  0  0  0  0  0  0  0  0
    3.0490   -1.8662    0.4005 C   0  0  0  0  0  0  0  0  0  0  0  0
    2.0258   -1.3055   -0.5264 N   0  0  0  0  0  0  0  0  0  0  0  0
    2.1595   -1.5824   -1.8946 C   0  0  0  0  0  0  0  0  0  0  0  0
    3.0404   -2.5949   -2.3263 C   0  0  0  0  0  0  0  0  0  0  0  0
    3.0939   -2.9498   -3.6703 C   0  0  0  0  0  0  0  0  0  0  0  0
    2.2831   -2.3167   -4.6076 C   0  0  0  0  0  0  0  0  0  0  0  0
    1.4039   -1.3207   -4.1848 C   0  0  0  0  0  0  0  0  0  0  0  0
    1.3347   -0.9537   -2.8477 C   0  0  0  0  0  0  0  0  0  0  0  0
    2.1247    1.2265   -0.7144 C   0  0  0  0  0  0  0  0  0  0  0  0
    1.4791    2.5233   -0.1933 C   0  0  0  0  0  0  0  0  0  0  0  0
    0.0114    2.4283   -0.3713 N   0  0  0  0  0  0  0  0  0  0  0  0
   -0.6585    3.7220   -0.1486 C   0  0  0  0  0  0  0  0  0  0  0  0
   -0.5489    4.2961    1.2806 C   0  0  0  0  0  0  0  0  0  0  0  0
   -1.2205    5.6684    1.3716 C   0  0  0  0  0  0  0  0  0  0  0  0
   -0.4199    6.6885    0.5980 C   0  0  0  0  0  0  0  0  0  0  0  0
   -0.6596    6.8978   -0.5684 O   0  0  0  0  0  0  0  0  0  0  0  0
    0.6576    7.4429    1.2854 C   0  0  0  0  0  0  0  0  0  0  0  0
    1.1929    7.0310    2.5074 C   0  0  0  0  0  0  0  0  0  0  0  0
    2.2063    7.7672    3.1139 C   0  0  0  0  0  0  0  0  0  0  0  0
    2.6608    8.9159    2.4656 C   0  0  0  0  0  0  0  0  0  0  0  0
    2.1494    9.3517    1.2436 C   0  0  0  0  0  0  0  0  0  0  0  0
    1.1399    8.5959    0.6557 C   0  0  0  0  0  0  0  0  0  0  0  0
    3.6229    9.6235    3.0358 F   0  0  0  0  0  0  0  0  0  0  0  0
   -0.5486    1.3540    0.4816 C   0  0  0  0  0  0  0  0  0  0  0  0
   -0.3866   -0.8199    0.6344 H   0  0  0  0  0  0  0  0  0  0  0  0
   -0.3791   -0.2091   -1.0214 H   0  0  0  0  0  0  0  0  0  0  0  0
    3.3578   -1.3257    2.4777 H   0  0  0  0  0  0  0  0  0  0  0  0
    4.0869   -1.7912   -0.0105 H   0  0  0  0  0  0  0  0  0  0  0  0
    2.7915   -2.9351    0.6063 H   0  0  0  0  0  0  0  0  0  0  0  0
    3.6787   -3.1235   -1.6283 H   0  0  0  0  0  0  0  0  0  0  0  0
    3.7804   -3.7342   -3.9891 H   0  0  0  0  0  0  0  0  0  0  0  0
    2.3304   -2.5976   -5.6549 H   0  0  0  0  0  0  0  0  0  0  0  0
    0.7607   -0.8233   -4.9112 H   0  0  0  0  0  0  0  0  0  0  0  0
    0.6255   -0.1812   -2.5487 H   0  0  0  0  0  0  0  0  0  0  0  0
    3.2210    1.2693   -0.5844 H   0  0  0  0  0  0  0  0  0  0  0  0
    1.9520    1.1578   -1.8082 H   0  0  0  0  0  0  0  0  0  0  0  0
    1.7795    2.6982    0.8643 H   0  0  0  0  0  0  0  0  0  0  0  0
    1.8522    3.3857   -0.7885 H   0  0  0  0  0  0  0  0  0  0  0  0
   -1.7289    3.5988   -0.4265 H   0  0  0  0  0  0  0  0  0  0  0  0
   -0.2430    4.4484   -0.8863 H   0  0  0  0  0  0  0  0  0  0  0  0
    0.5134    4.3570    1.5845 H   0  0  0  0  0  0  0  0  0  0  0  0
   -1.0234    3.6017    2.0008 H   0  0  0  0  0  0  0  0  0  0  0  0
   -1.3494    5.9728    2.4272 H   0  0  0  0  0  0  0  0  0  0  0  0
   -2.2490    5.6168    0.9528 H   0  0  0  0  0  0  0  0  0  0  0  0
    0.8249    6.1262    2.9960 H   0  0  0  0  0  0  0  0  0  0  0  0
    2.6288    7.4531    4.0664 H   0  0  0  0  0  0  0  0  0  0  0  0
    2.5269   10.2509    0.7601 H   0  0  0  0  0  0  0  0  0  0  0  0
    0.7180    8.8986   -0.3093 H   0  0  0  0  0  0  0  0  0  0  0  0
   -1.6551    1.3607    0.3788 H   0  0  0  0  0  0  0  0  0  0  0  0
   -0.3182    1.4940    1.5619 H   0  0  0  0  0  0  0  0  0  0  0  0
  1 29  1  0  0  0  0
  1 30  1  0  0  0  0
  2  1  1  0  0  0  0
  2  3  1  0  0  0  0
  3  5  1  0  0  0  0
  3  4  2  0  0  0  0
  5 32  1  0  0  0  0
  6 34  1  0  0  0  0
  6  5  1  0  0  0  0
  7  2  1  0  0  0  0
  7  6  1  0  0  0  0
  8  7  1  0  0  0  0
  9  8  1  0  0  0  0
  9 35  1  0  0  0  0
 10  9  2  0  0  0  0
 11 12  2  0  0  0  0
 11 10  1  0  0  0  0
 12 13  1  0  0  0  0
 13 39  1  0  0  0  0
 13  8  2  0  0  0  0
 14 40  1  0  0  0  0
 14 15  1  0  0  0  0
 14  2  1  0  0  0  0
 15 42  1  0  0  0  0
 16 15  1  0  0  0  0
 16 17  1  0  0  0  0
 16 29  1  0  0  0  0
 17 18  1  0  0  0  0
 18 19  1  0  0  0  0
 18 46  1  0  0  0  0
 18 47  1  0  0  0  0
 19 48  1  0  0  0  0
 20 22  1  0  0  0  0
 20 19  1  0  0  0  0
 21 20  2  0  0  0  0
 22 23  2  0  0  0  0
 23 50  1  0  0  0  0
 23 24  1  0  0  0  0
 24 51  1  0  0  0  0
 25 28  1  0  0  0  0
 25 24  2  0  0  0  0
 26 25  1  0  0  0  0
 27 26  2  0  0  0  0
 27 22  1  0  0  0  0
 29 55  1  0  0  0  0
 31  1  1  0  0  0  0
 33  6  1  0  0  0  0
 36 10  1  0  0  0  0
 37 11  1  0  0  0  0
 38 12  1  0  0  0  0
 41 14  1  0  0  0  0
 43 15  1  0  0  0  0
 44 17  1  0  0  0  0
 45 17  1  0  0  0  0
 49 19  1  0  0  0  0
 52 26  1  0  0  0  0
 53 27  1  0  0  0  0
 54 29  1  0  0  0  0
M  END
$$$$
