
     RDKit          3D

 55 58  0  0  0  0  0  0  0  0999 V2000
    0.1860    0.1329   -0.0929 C   0  0  0  0  0  0  0  0  0  0  0  0
    1.7133   -0.0308    0.1092 C   0  0  0  0  0  0  0  0  0  0  0  0
    1.9803   -0.3317    1.5939 C   0  0  0  0  0  0  0  0  0  0  0  0
    1.7247    0.3922    2.5351 O   0  0  0  0  0  0  0  0  0  0  0  0
    2.5574   -1.5610    1.6607 N   0  0  0  0  0  0  0  0  0  0  0  0
    2.7587   -2.2074    0.3916 C   0  0  0  0  0  0  0  0  0  0  0  0
    2.2352   -1.2374   -0.5493 N   0  0  0  0  0  0  0  0  0  0  0  0
    2.2502   -1.5119   -1.9082 C   0  0  0  0  0  0  0  0  0  0  0  0
    2.7896   -2.7356   -2.3736 C   0  0  0  0  0  0  0  0  0  0  0  0
    2.8197   -3.0395   -3.7347 C   0  0  0  0  0  0  0  0  0  0  0  0
    2.3187   -2.1475   -4.6837 C   0  0  0  0  0  0  0  0  0  0  0  0
    1.7832   -0.9366   -4.2366 C   0  0  0  0  0  0  0  0  0  0  0  0
    1.7444   -0.6150   -2.8813 C   0  0  0  0  0  0  0  0  0  0  0  0
    2.5067    1.2398   -0.2847 C   0  0  0  0  0  0  0  0  0  0  0  0
    1.8343    2.5300    0.1827 C   0  0  0  0  0  0  0  0  0  0  0  0
    0.4485    2.5573   -0.2619 N   0  0  0  0  0  0  0  0  0  0  0  0
   -0.1825    3.8642   -0.2298 C   0  0  0  0  0  0  0  0  0  0  0  0
   -0.3690    4.5008    1.1592 C   0  0  0  0  0  0  0  0  0  0  0  0
   -1.1282    5.8230    1.0969 C   0  0  0  0  0  0  0  0  0  0  0  0
   -2.6182    5.6592    0.8249 C   0  0  0  0  0  0  0  0  0  0  0  0
   -3.1288    4.5562    0.7549 O   0  0  0  0  0  0  0  0  0  0  0  0
   -3.4549    6.8923    0.6596 C   0  0  0  0  0  0  0  0  0  0  0  0
   -4.8283    6.7268    0.4072 C   0  0  0  0  0  0  0  0  0  0  0  0
   -5.6644    7.8265    0.2452 C   0  0  0  0  0  0  0  0  0  0  0  0
   -5.1144    9.1055    0.3397 C   0  0  0  0  0  0  0  0  0  0  0  0
   -3.7585    9.3062    0.5903 C   0  0  0  0  0  0  0  0  0  0  0  0
   -2.9327    8.1936    0.7490 C   0  0  0  0  0  0  0  0  0  0  0  0
   -5.9107   10.1685    0.1855 F   0  0  0  0  0  0  0  0  0  0  0  0
   -0.3298    1.4958    0.3639 C   0  0  0  0  0  0  0  0  0  0  0  0
   -0.3308   -0.6753    0.4497 H   0  0  0  0  0  0  0  0  0  0  0  0
   -0.0484    0.0018   -1.1565 H   0  0  0  0  0  0  0  0  0  0  0  0
    2.8248   -1.9722    2.5467 H   0  0  0  0  0  0  0  0  0  0  0  0
    3.8315   -2.4237    0.2070 H   0  0  0  0  0  0  0  0  0  0  0  0
    2.2165   -3.1741    0.3322 H   0  0  0  0  0  0  0  0  0  0  0  0
    3.1931   -3.4648   -1.6720 H   0  0  0  0  0  0  0  0  0  0  0  0
    3.2449   -3.9954   -4.0518 H   0  0  0  0  0  0  0  0  0  0  0  0
    2.3439   -2.3896   -5.7478 H   0  0  0  0  0  0  0  0  0  0  0  0
    1.3822   -0.2175   -4.9557 H   0  0  0  0  0  0  0  0  0  0  0  0
    1.3158    0.3393   -2.5875 H   0  0  0  0  0  0  0  0  0  0  0  0
    3.5247    1.1639    0.1309 H   0  0  0  0  0  0  0  0  0  0  0  0
    2.6106    1.2700   -1.3763 H   0  0  0  0  0  0  0  0  0  0  0  0
    1.9262    2.6166    1.2840 H   0  0  0  0  0  0  0  0  0  0  0  0
    2.3639    3.3893   -0.2609 H   0  0  0  0  0  0  0  0  0  0  0  0
   -1.1693    3.7725   -0.7102 H   0  0  0  0  0  0  0  0  0  0  0  0
    0.4162    4.5485   -0.8588 H   0  0  0  0  0  0  0  0  0  0  0  0
    0.6141    4.6718    1.6258 H   0  0  0  0  0  0  0  0  0  0  0  0
   -0.9201    3.8063    1.8107 H   0  0  0  0  0  0  0  0  0  0  0  0
   -0.6989    6.4878    0.3257 H   0  0  0  0  0  0  0  0  0  0  0  0
   -1.0294    6.3786    2.0466 H   0  0  0  0  0  0  0  0  0  0  0  0
   -5.2174    5.7094    0.3424 H   0  0  0  0  0  0  0  0  0  0  0  0
   -6.7321    7.7166    0.0478 H   0  0  0  0  0  0  0  0  0  0  0  0
   -3.3713   10.3242    0.6569 H   0  0  0  0  0  0  0  0  0  0  0  0
   -1.8720    8.3531    0.9457 H   0  0  0  0  0  0  0  0  0  0  0  0
   -1.3832    1.6077    0.0630 H   0  0  0  0  0  0  0  0  0  0  0  0
   -0.2979    1.5502    1.4702 H   0  0  0  0  0  0  0  0  0  0  0  0
  1  2  1  0
  1 29  1  0
  1 30  1  0
  1 31  1  0
  2  3  1  0
  2  7  1  0
  2 14  1  0
  3  4  2  0
  3  5  1  0
  5  6  1  0
  5 32  1  0
  6  7  1  0
  6 33  1  0
  6 34  1  0
  7  8  1  0
  8  9  2  0
  8 13  1  0
  9 10  1  0
  9 35  1  0
 10 11  2  0
 10 36  1  0
 11 12  1  0
 11 37  1  0
 12 13  2  0
 12 38  1  0
 13 39  1  0
 14 15  1  0
 14 40  1  0
 14 41  1  0
 15 16  1  0
 15 42  1  0
 15 43  1  0
 16 17  1  0
 16 29  1  0
 17 18  1  0
 17 44  1  0
 17 45  1  0
 18 19  1  0
 18 46  1  0
 18 47  1  0
 19 20  1  0
 19 48  1  0
 19 49  1  0
 20 21  2  0
 20 22  1  0
 22 23  2  0
 22 27  1  0
 23 24  1  0
 23 50  1  0
 24 25  2  0
 24 51  1  0
 25 26  1  0
 25 28  1  0
 26 27  2  0
 26 52  1  0
 27 53  1  0
 29 54  1  0
 29 55  1  0
M  END

