55
rmsd24.gzmat
C          0.00000        0.00000        0.00000
C          1.53530        0.00000        0.00000
C          2.05160        0.00000        1.46360
O          1.76180        0.75050        2.36210
N          2.96700       -1.02640        1.60190
C          3.08510       -1.83730        0.38260
N          2.02950       -1.30410       -0.52510
C          2.13850       -1.59170       -1.89310
C          3.00250       -2.61680       -2.32990
C          3.03230       -2.97990       -3.67240
C          2.21560       -2.34340       -4.60260
C          1.35160       -1.33670       -4.17420
C          1.30710       -0.96020       -2.83860
C          2.12220        1.22890       -0.71210
C          1.48480        2.52130       -0.17180
N          0.01520        2.43850       -0.34660
C         -0.64270        3.73160       -0.08130
C         -0.58120        4.22220        1.38190
C         -0.96670        5.69930        1.48780
C          0.14350        6.56380        0.93940
O          0.17030        6.86280       -0.23140
C          1.19090        7.06260        1.86530
C          1.50620        6.40210        3.05430
C          2.49600        6.90350        3.89440
C          3.14800        8.07610        3.51240
C          2.86170        8.75390        2.32770
C          1.87590        8.22640        1.49940
F          4.08190        8.56850        4.31070
C         -0.54990        1.35110        0.48700
H         -0.38690       -0.82080        0.63280
H         -0.38110       -0.20770       -1.02110
H          3.38910       -1.30760        2.46300
H          4.11280       -1.72750       -0.04640
H          2.86620       -2.91410        0.58970
H          3.64480       -3.14800       -1.63710
H          3.70520       -3.77350       -3.99670
H          2.24820       -2.62950       -5.64900
H          0.70170       -0.83790       -4.89400
H          0.61320       -0.17610       -2.53470
H          3.21980        1.26670       -0.59250
H          1.93890        1.16970       -1.80470
H          1.78830        2.67980        0.88760
H          1.86160        3.39110       -0.75410
H         -1.70270        3.63960       -0.40610
H         -0.18760        4.49020       -0.76160
H          0.43220        4.05140        1.79490
H         -1.25910        3.61390        2.01040
H         -1.20330        5.96830        2.53470
H         -1.89920        5.89260        0.91520
H          0.98480        5.48390        3.33360
H          2.75090        6.39210        4.82090
H          3.39280        9.66390        2.05460
H          1.63390        8.71920        0.55200
H         -1.65540        1.35890        0.37320
H         -0.32940        1.47990        1.57100
