55

C          0.34230        0.07510       -0.11010
C          1.81510        0.31330        0.29950
C          1.94650        0.08610        1.81650
O          1.37750        0.70830        2.69050
N          2.81630       -0.94180        1.99770
C          3.33060       -1.52290        0.78680
N          2.72130       -0.70710       -0.24590
C          2.95440       -0.99970       -1.58210
C          2.38390       -0.25940       -2.64520
C          2.63860       -0.59670       -3.97340
C          3.46890       -1.67040       -4.30300
C          4.04540       -2.40380       -3.26490
C          3.79790       -2.08240       -1.93020
C          2.27650        1.75360       -0.02730
C          1.24090        2.81090        0.34810
N         -0.05100        2.50470       -0.26080
C         -1.02200        3.58890       -0.14480
C         -2.00910        3.60000       -1.31340
C         -1.32030        3.98710       -2.63680
C         -2.07830        3.48520       -3.85030
O         -2.79230        4.22520       -4.50110
C         -1.94880        2.03360       -4.21150
C         -1.10410        1.14720       -3.52020
C         -1.00950       -0.19050       -3.90470
C         -1.76870       -0.63350       -4.98560
C         -2.61780        0.22060       -5.69040
C         -2.70130        1.55250       -5.29670
F         -1.68050       -1.91550       -5.35920
C         -0.57590        1.23970        0.24950
H         -0.01810       -0.84960        0.36790
H          0.30040       -0.09680       -1.19190
H          3.04930       -1.28020        2.92350
H          4.43800       -1.47650        0.74620
H          3.04430       -2.59110        0.69210
H          1.73610        0.58840       -2.44630
H          2.16860       -0.00290       -4.76130
H          3.66200       -1.92870       -5.34580
H          4.70150       -3.24860       -3.48990
H          4.27020       -2.68730       -1.15720
H          3.22650        1.95050        0.49440
H          2.48470        1.82710       -1.10220
H          1.16290        2.88740        1.45100
H          1.58080        3.78800       -0.02950
H         -0.47350        4.54470       -0.13640
H         -1.57120        3.53650        0.81950
H         -2.83220        4.30150       -1.10430
H         -2.47660        2.60560       -1.40200
H         -0.30010        3.57480       -2.63060
H         -1.25120        5.08090       -2.72310
H         -0.51940        1.49860       -2.66770
H         -0.34890       -0.89130       -3.39260
H         -3.19300       -0.17110       -6.53130
H         -3.34920        2.25670       -5.82160
H         -1.56460        1.05640       -0.19810
H         -0.71460        1.28630        1.34870
