42
rmsd179.gzmat
N          0.00000        0.00000        0.00000
C          1.36220        0.00000        0.00000
C          2.05780        0.00000        1.31990
N          2.12110        0.01860       -1.11280
C          1.48310        0.01070       -2.32870
N          2.29140        0.01290       -3.42690
C          0.06050       -0.03450       -2.40620
C         -0.62630       -0.04480       -1.19410
C         -0.67160       -0.01220       -3.70920
N         -0.94290        1.36890       -4.13620
C         -0.02770        2.05200       -4.91360
O          0.91890        1.47910       -5.42880
C         -0.31540        3.51780       -5.15110
C          0.29230        4.36970       -4.02180
C         -0.20890        3.96360       -2.69190
C          0.54810        3.44730       -1.65050
N         -0.28220        3.14230       -0.56890
H         -0.01250        2.61910        0.23850
C         -1.59560        3.42960       -0.93300
C         -2.78690        3.25400       -0.21410
C         -3.95810        3.64820       -0.82930
C         -3.95770        4.21370       -2.12440
C         -2.78610        4.38630       -2.83600
C         -1.57930        3.98060       -2.25450
H          1.45880        0.49570        2.09910
H          3.04340        0.48900        1.26240
H          2.23090       -1.03640        1.65770
H          3.28490        0.09740       -3.30620
H          1.90330        0.30310       -4.32150
H         -1.72380       -0.07580       -1.15060
H         -1.65120       -0.54390       -3.62760
H         -0.10620       -0.54660       -4.51300
H         -1.57060        1.89490       -3.53410
H         -1.40320        3.70430       -5.23590
H          0.12520        3.81460       -6.12650
H          0.05700        5.44200       -4.20540
H          1.40150        4.30150       -4.06410
H          1.60980        3.28260       -1.59680
H         -2.77700        2.82580        0.78350
H         -4.91000        3.52930       -0.31320
H         -4.90710        4.52000       -2.55800
H         -2.78860        4.83430       -3.82610
