42
rmsd159.gzmat
N          0.00000        0.00000        0.00000
C          1.36250        0.00000        0.00000
C          2.05430        0.00000        1.32210
N          2.12170       -0.02270       -1.11190
C          1.48370       -0.01750       -2.32840
N          2.29260       -0.02510       -3.42620
C          0.06150        0.03120       -2.40630
C         -0.62590        0.04020       -1.19400
C         -0.66830        0.01610       -3.71060
N         -0.95540       -1.36210       -4.13640
C         -0.04020       -2.06240       -4.89880
O          0.91900       -1.50660       -5.40930
C         -0.34470       -3.52620       -5.12550
C          0.25010       -4.37450       -3.98700
C         -0.23790       -3.95140       -2.65720
C          0.54090       -3.46940       -1.61510
N         -0.27350       -3.14600       -0.52690
H          0.01620       -2.63970        0.28390
C         -1.59740       -3.38400       -0.88780
C         -2.77740       -3.17200       -0.16060
C         -3.96530       -3.51520       -0.77400
C         -3.99160       -4.06810       -2.07430
C         -2.83030       -4.27990       -2.79240
C         -1.60620       -3.92360       -2.21420
H          1.63100       -0.75610        2.00040
H          1.93010        0.97720        1.81920
H          3.13540       -0.18660        1.21910
H          3.28580       -0.11280       -3.30460
H          1.90460       -0.31950       -4.31970
H         -1.72360        0.06600       -1.15050
H         -0.09450        0.54400       -4.51290
H         -1.64170        0.56030       -3.63300
H         -1.59660       -1.87690       -3.53810
H          0.09590       -3.83750       -6.09660
H         -1.43410       -3.70110       -5.21380
H          1.36070       -4.32390       -4.03170
H         -0.00340       -5.44410       -4.16070
H          1.60770       -3.34120       -1.56430
H         -2.74570       -2.75360        0.84070
H         -4.90900       -3.36440       -0.25150
H         -4.95360       -4.33390       -2.50690
H         -2.85550       -4.72240       -3.78480
