rmsd159.gzmat
 OpenBabel08211713383D

 42 44  0  0  1  0  0  0  0  0999 V2000
    0.0000    0.0000    0.0000 N   0  0  0  0  0  0  0  0  0  0  0  0
    1.3625    0.0000    0.0000 C   0  0  0  0  0  0  0  0  0  0  0  0
    2.0543    0.0000    1.3221 C   0  0  0  0  0  0  0  0  0  0  0  0
    2.1217   -0.0227   -1.1119 N   0  0  0  0  0  0  0  0  0  0  0  0
    1.4837   -0.0175   -2.3284 C   0  0  0  0  0  0  0  0  0  0  0  0
    2.2926   -0.0251   -3.4262 N   0  0  0  0  0  0  0  0  0  0  0  0
    0.0615    0.0312   -2.4063 C   0  0  2  0  0  0  0  0  0  0  0  0
   -0.6259    0.0402   -1.1940 C   0  0  0  0  0  0  0  0  0  0  0  0
   -0.6683    0.0161   -3.7106 C   0  0  0  0  0  0  0  0  0  0  0  0
   -0.9554   -1.3621   -4.1364 N   0  0  0  0  0  0  0  0  0  0  0  0
   -0.0402   -2.0624   -4.8988 C   0  0  0  0  0  0  0  0  0  0  0  0
    0.9190   -1.5066   -5.4093 O   0  0  0  0  0  0  0  0  0  0  0  0
   -0.3447   -3.5262   -5.1255 C   0  0  0  0  0  0  0  0  0  0  0  0
    0.2501   -4.3745   -3.9870 C   0  0  0  0  0  0  0  0  0  0  0  0
   -0.2379   -3.9514   -2.6572 C   0  0  0  0  0  0  0  0  0  0  0  0
    0.5409   -3.4694   -1.6151 C   0  0  0  0  0  0  0  0  0  0  0  0
   -0.2735   -3.1460   -0.5269 N   0  0  0  0  0  0  0  0  0  0  0  0
    0.0162   -2.6397    0.2839 H   0  0  0  0  0  0  0  0  0  0  0  0
   -1.5974   -3.3840   -0.8878 C   0  0  0  0  0  0  0  0  0  0  0  0
   -2.7774   -3.1720   -0.1606 C   0  0  0  0  0  0  0  0  0  0  0  0
   -3.9653   -3.5152   -0.7740 C   0  0  0  0  0  0  0  0  0  0  0  0
   -3.9916   -4.0681   -2.0743 C   0  0  0  0  0  0  0  0  0  0  0  0
   -2.8303   -4.2799   -2.7924 C   0  0  0  0  0  0  0  0  0  0  0  0
   -1.6062   -3.9236   -2.2142 C   0  0  0  0  0  0  0  0  0  0  0  0
    1.6310   -0.7561    2.0004 H   0  0  0  0  0  0  0  0  0  0  0  0
    1.9301    0.9772    1.8192 H   0  0  0  0  0  0  0  0  0  0  0  0
    3.1354   -0.1866    1.2191 H   0  0  0  0  0  0  0  0  0  0  0  0
    3.2858   -0.1128   -3.3046 H   0  0  0  0  0  0  0  0  0  0  0  0
    1.9046   -0.3195   -4.3197 H   0  0  0  0  0  0  0  0  0  0  0  0
   -1.7236    0.0660   -1.1505 H   0  0  0  0  0  0  0  0  0  0  0  0
   -0.0945    0.5440   -4.5129 H   0  0  0  0  0  0  0  0  0  0  0  0
   -1.6417    0.5603   -3.6330 H   0  0  0  0  0  0  0  0  0  0  0  0
   -1.5966   -1.8769   -3.5381 H   0  0  0  0  0  0  0  0  0  0  0  0
    0.0959   -3.8375   -6.0966 H   0  0  0  0  0  0  0  0  0  0  0  0
   -1.4341   -3.7011   -5.2138 H   0  0  0  0  0  0  0  0  0  0  0  0
    1.3607   -4.3239   -4.0317 H   0  0  0  0  0  0  0  0  0  0  0  0
   -0.0034   -5.4441   -4.1607 H   0  0  0  0  0  0  0  0  0  0  0  0
    1.6077   -3.3412   -1.5643 H   0  0  0  0  0  0  0  0  0  0  0  0
   -2.7457   -2.7536    0.8407 H   0  0  0  0  0  0  0  0  0  0  0  0
   -4.9090   -3.3644   -0.2515 H   0  0  0  0  0  0  0  0  0  0  0  0
   -4.9536   -4.3339   -2.5069 H   0  0  0  0  0  0  0  0  0  0  0  0
   -2.8555   -4.7224   -3.7848 H   0  0  0  0  0  0  0  0  0  0  0  0
  2  1  2  0  0  0  0
  2  3  1  0  0  0  0
  3 26  1  0  0  0  0
  3 25  1  0  0  0  0
  4  2  2  0  0  0  0
  5  4  2  0  0  0  0
  6 28  1  0  0  0  0
  6  5  1  0  0  0  0
  7  9  1  6  0  0  0
  7  5  1  0  0  0  0
  7  8  1  0  0  0  0
  8 30  1  0  0  0  0
  8  1  2  0  0  0  0
  9 32  1  0  0  0  0
 10  9  1  0  0  0  0
 10 33  1  0  0  0  0
 11 10  1  0  0  0  0
 12 11  2  0  0  0  0
 13 11  1  0  0  0  0
 13 14  1  0  0  0  0
 14 15  1  0  0  0  0
 15 24  1  0  0  0  0
 15 16  2  0  0  0  0
 16 38  1  0  0  0  0
 16 17  1  0  0  0  0
 17 18  1  0  0  0  0
 19 17  1  0  0  0  0
 19 20  2  0  0  0  0
 20 39  1  0  0  0  0
 21 40  1  0  0  0  0
 21 20  1  0  0  0  0
 22 21  2  0  0  0  0
 23 24  2  0  0  0  0
 23 22  1  0  0  0  0
 24 19  1  0  0  0  0
 27  3  1  0  0  0  0
 29  6  1  0  0  0  0
 31  9  1  0  0  0  0
 34 13  1  0  0  0  0
 35 13  1  0  0  0  0
 36 14  1  0  0  0  0
 37 14  1  0  0  0  0
 41 22  1  0  0  0  0
 42 23  1  0  0  0  0
M  RAD  1   7   2
M  END
$$$$
