42
rmsd138.gzmat
N          0.00000        0.00000        0.00000
C          1.36250        0.00000        0.00000
C          2.05800        0.00000        1.32020
N          2.12100        0.03480       -1.11220
C          1.48380        0.05500       -2.32800
N          2.29320        0.06910       -3.42630
C          0.06120        0.02270       -2.40650
C         -0.62600       -0.01810       -1.19480
C         -0.67210        0.09850       -3.70680
N         -0.93510        1.49880       -4.07370
C         -0.00700        2.21380       -4.80600
O          0.94040        1.66010       -5.33950
C         -0.28150        3.69160       -4.97190
C          0.29250        4.47960       -3.78010
C         -0.27200        4.02370       -2.49240
C          0.42530        3.42920       -1.45120
N         -0.45680        3.10060       -0.41800
H         -0.23600        2.51970        0.36640
C         -1.74440        3.45170       -0.81710
C         -2.96890        3.28420       -0.15430
C         -4.10040        3.75130       -0.79250
C         -4.02970        4.37930       -2.05650
C         -2.82530        4.54390       -2.71320
C         -1.65750        4.06630       -2.10720
H          1.44830       -0.49050        2.09630
H          2.26080        1.02800        1.65790
H          3.02850       -0.51960        1.26380
H          3.28700        0.14640       -3.30020
H          1.91040        0.39830       -4.31000
H         -1.72350       -0.04780       -1.15220
H         -1.65430       -0.43080       -3.64580
H         -0.11070       -0.40570       -4.53230
H         -1.56820        1.99850       -3.45510
H         -1.36580        3.88710       -5.08050
H          0.19030        4.03900       -5.91560
H          0.08200        5.56320       -3.92460
H          1.40110        4.39350       -3.77970
H          1.47740        3.22230       -1.36610
H         -3.01420        2.80560        0.81870
H         -5.07500        3.64190       -0.31870
H         -4.95010        4.74000       -2.51050
H         -2.77320        5.04050       -3.67860
