42
rmsd147.gzmat
N          0.00000        0.00000        0.00000
C          1.36300        0.00000        0.00000
C          2.05700        0.00000        1.32070
N          2.12130        0.02140       -1.11270
C          1.48430        0.03980       -2.32900
N          2.29440        0.03990       -3.42760
C          0.06110        0.02430       -2.40660
C         -0.62590       -0.01960       -1.19500
C         -0.67140        0.13910       -3.70480
N         -0.89960        1.55400       -4.03970
C          0.05080        2.26220       -4.75070
O          0.98030        1.69620       -5.30270
C         -0.17310        3.75340       -4.86310
C          0.41640        4.47270       -3.63600
C         -0.20730        4.01990       -2.37460
C          0.42950        3.37750       -1.32330
N         -0.49750        3.07520       -0.32160
H         -0.32850        2.46170        0.45150
C         -1.75480        3.49270       -0.75300
C         -3.00460        3.37770       -0.12760
C         -4.09260        3.90950       -0.79050
C         -3.95360        4.55330       -2.04080
C         -2.72330        4.66940       -2.65880
C         -1.59950        4.12270       -2.02910
H          1.54360        0.64550        2.04930
H          3.10440        0.33070        1.23370
H          2.06860       -1.01800        1.74620
H          3.28850        0.11740       -3.30020
H          1.91590        0.37510       -4.31080
H         -1.72350       -0.05060       -1.15230
H         -1.66620       -0.36650       -3.65380
H         -0.12310       -0.36040       -4.54160
H         -1.51500        2.05620       -3.40500
H         -1.24930        3.98930       -4.97300
H          0.31840        4.12210       -5.78840
H          0.27630        5.57050       -3.75540
H          1.51750        4.31890       -3.61070
H          1.46870        3.12330       -1.20810
H         -3.10170        2.89070        0.83720
H         -5.08490        3.84070       -0.34680
H         -4.84100        4.96700       -2.51500
H         -2.61780        5.18140       -3.61170
