42
rmsd235.gzmat
N          0.00000        0.00000        0.00000
C          1.36140        0.00000        0.00000
C          2.05750        0.00000        1.31980
N          2.12190        0.01070       -1.11190
C          1.48530       -0.00200       -2.32870
N          2.29620       -0.05150       -3.42340
C          0.06200        0.00040       -2.40700
C         -0.62560       -0.00750       -1.19500
C         -0.66480        0.06170       -3.71150
N         -0.82500        1.45360       -4.16000
C          0.11700        2.03650       -4.98540
O          0.99730        1.37260       -5.50890
C         -0.06040        3.51230       -5.26380
C          0.68660        4.34670       -4.20730
C          0.26850        4.00320       -2.83190
C          1.07120        3.45680       -1.84200
N          0.31280        3.23250       -0.68990
H          0.61530        2.71380        0.10610
C         -1.00400        3.60190       -0.95520
C         -2.14280        3.52060       -0.14110
C         -3.33010        3.98490       -0.67050
C         -3.39520        4.52870       -1.97310
C         -2.27590        4.60530       -2.77960
C         -1.05720        4.12520       -2.28690
H          1.47350        0.52620        2.09020
H          3.05850        0.45470        1.25600
H          2.19680       -1.03600        1.67460
H          3.29150        0.00020       -3.30150
H          1.92100        0.21780       -4.32930
H         -1.72350       -0.01040       -1.15170
H         -1.68410       -0.38870       -3.62500
H         -0.14190       -0.53040       -4.50420
H         -1.38620        2.04490       -3.55270
H         -1.13110        3.79110       -5.29290
H          0.34320        3.73700       -6.27420
H          0.50460        5.42720       -4.40160
H          1.78260        4.20540       -4.33280
H          2.11990        3.21820       -1.86650
H         -2.08330        3.10490        0.86000
H         -4.24330        3.93880       -0.07830
H         -4.35280        4.89590       -2.33610
H         -2.32760        5.03630       -3.77590
