rmsd179.gzmat
 OpenBabel08211713383D

 42 44  0  0  1  0  0  0  0  0999 V2000
    0.0000    0.0000    0.0000 N   0  0  0  0  0  0  0  0  0  0  0  0
    1.3622    0.0000    0.0000 C   0  0  0  0  0  0  0  0  0  0  0  0
    2.0578    0.0000    1.3199 C   0  0  0  0  0  0  0  0  0  0  0  0
    2.1211    0.0186   -1.1128 N   0  0  0  0  0  0  0  0  0  0  0  0
    1.4831    0.0107   -2.3287 C   0  0  0  0  0  0  0  0  0  0  0  0
    2.2914    0.0129   -3.4269 N   0  0  0  0  0  0  0  0  0  0  0  0
    0.0605   -0.0345   -2.4062 C   0  0  1  0  0  0  0  0  0  0  0  0
   -0.6263   -0.0448   -1.1941 C   0  0  0  0  0  0  0  0  0  0  0  0
   -0.6716   -0.0122   -3.7092 C   0  0  0  0  0  0  0  0  0  0  0  0
   -0.9429    1.3689   -4.1362 N   0  0  0  0  0  0  0  0  0  0  0  0
   -0.0277    2.0520   -4.9136 C   0  0  0  0  0  0  0  0  0  0  0  0
    0.9189    1.4791   -5.4288 O   0  0  0  0  0  0  0  0  0  0  0  0
   -0.3154    3.5178   -5.1511 C   0  0  0  0  0  0  0  0  0  0  0  0
    0.2923    4.3697   -4.0218 C   0  0  0  0  0  0  0  0  0  0  0  0
   -0.2089    3.9636   -2.6919 C   0  0  0  0  0  0  0  0  0  0  0  0
    0.5481    3.4473   -1.6505 C   0  0  0  0  0  0  0  0  0  0  0  0
   -0.2822    3.1423   -0.5689 N   0  0  0  0  0  0  0  0  0  0  0  0
   -0.0125    2.6191    0.2385 H   0  0  0  0  0  0  0  0  0  0  0  0
   -1.5956    3.4296   -0.9330 C   0  0  0  0  0  0  0  0  0  0  0  0
   -2.7869    3.2540   -0.2141 C   0  0  0  0  0  0  0  0  0  0  0  0
   -3.9581    3.6482   -0.8293 C   0  0  0  0  0  0  0  0  0  0  0  0
   -3.9577    4.2137   -2.1244 C   0  0  0  0  0  0  0  0  0  0  0  0
   -2.7861    4.3863   -2.8360 C   0  0  0  0  0  0  0  0  0  0  0  0
   -1.5793    3.9806   -2.2545 C   0  0  0  0  0  0  0  0  0  0  0  0
    1.4588    0.4957    2.0991 H   0  0  0  0  0  0  0  0  0  0  0  0
    3.0434    0.4890    1.2624 H   0  0  0  0  0  0  0  0  0  0  0  0
    2.2309   -1.0364    1.6577 H   0  0  0  0  0  0  0  0  0  0  0  0
    3.2849    0.0974   -3.3062 H   0  0  0  0  0  0  0  0  0  0  0  0
    1.9033    0.3031   -4.3215 H   0  0  0  0  0  0  0  0  0  0  0  0
   -1.7238   -0.0758   -1.1506 H   0  0  0  0  0  0  0  0  0  0  0  0
   -1.6512   -0.5439   -3.6276 H   0  0  0  0  0  0  0  0  0  0  0  0
   -0.1062   -0.5466   -4.5130 H   0  0  0  0  0  0  0  0  0  0  0  0
   -1.5706    1.8949   -3.5341 H   0  0  0  0  0  0  0  0  0  0  0  0
   -1.4032    3.7043   -5.2359 H   0  0  0  0  0  0  0  0  0  0  0  0
    0.1252    3.8146   -6.1265 H   0  0  0  0  0  0  0  0  0  0  0  0
    0.0570    5.4420   -4.2054 H   0  0  0  0  0  0  0  0  0  0  0  0
    1.4015    4.3015   -4.0641 H   0  0  0  0  0  0  0  0  0  0  0  0
    1.6098    3.2826   -1.5968 H   0  0  0  0  0  0  0  0  0  0  0  0
   -2.7770    2.8258    0.7835 H   0  0  0  0  0  0  0  0  0  0  0  0
   -4.9100    3.5293   -0.3132 H   0  0  0  0  0  0  0  0  0  0  0  0
   -4.9071    4.5200   -2.5580 H   0  0  0  0  0  0  0  0  0  0  0  0
   -2.7886    4.8343   -3.8261 H   0  0  0  0  0  0  0  0  0  0  0  0
  2  1  2  0  0  0  0
  2  3  1  0  0  0  0
  3 27  1  0  0  0  0
  3 25  1  0  0  0  0
  4  2  2  0  0  0  0
  5  4  2  0  0  0  0
  6 28  1  0  0  0  0
  6  5  1  0  0  0  0
  7  9  1  6  0  0  0
  7  5  1  0  0  0  0
  7  8  1  0  0  0  0
  8 30  1  0  0  0  0
  8  1  2  0  0  0  0
  9 31  1  0  0  0  0
 10  9  1  0  0  0  0
 10 33  1  0  0  0  0
 11 10  1  0  0  0  0
 12 11  2  0  0  0  0
 13 11  1  0  0  0  0
 13 14  1  0  0  0  0
 14 15  1  0  0  0  0
 15 24  1  0  0  0  0
 15 16  2  0  0  0  0
 16 38  1  0  0  0  0
 16 17  1  0  0  0  0
 17 18  1  0  0  0  0
 19 17  1  0  0  0  0
 19 20  2  0  0  0  0
 20 39  1  0  0  0  0
 21 40  1  0  0  0  0
 21 20  1  0  0  0  0
 22 21  2  0  0  0  0
 23 24  2  0  0  0  0
 23 22  1  0  0  0  0
 24 19  1  0  0  0  0
 26  3  1  0  0  0  0
 29  6  1  0  0  0  0
 32  9  1  0  0  0  0
 34 13  1  0  0  0  0
 35 13  1  0  0  0  0
 36 14  1  0  0  0  0
 37 14  1  0  0  0  0
 41 22  1  0  0  0  0
 42 23  1  0  0  0  0
M  RAD  1   7   2
M  END
$$$$
