42
rmsd110.gzmat
N          0.00000        0.00000        0.00000
C          1.35960        0.00000        0.00000
C          2.05460        0.00000        1.32090
N          2.12190       -0.01300       -1.11410
C          1.48150        0.01900       -2.32900
N          2.28370        0.12500       -3.42740
C          0.05950       -0.01390       -2.40680
C         -0.62690       -0.02120       -1.19290
C         -0.66700       -0.06670       -3.71050
N         -0.74300       -1.44020       -4.23200
C          0.16590       -1.88480       -5.17340
O          0.96960       -1.12100       -5.68260
C          0.03580       -3.33210       -5.59350
C          1.17720       -4.15450       -4.96740
C          1.35720       -3.83580       -3.53540
C          2.49540       -3.29190       -2.96050
N          2.28850       -3.09560       -1.59180
H          2.86940       -2.53480       -1.00180
C          0.97830       -3.47160       -1.29460
C          0.27890       -3.41350       -0.08140
C         -1.02520       -3.86730       -0.08050
C         -1.62530       -4.38800       -1.24840
C         -0.93740       -4.45300       -2.44520
C          0.37710       -3.97600       -2.49240
H          1.68430       -0.81240        1.96610
H          1.85770        0.94410        1.85790
H          3.14530       -0.10160        1.21530
H          3.28010        0.09720       -3.31840
H          1.90330       -0.10460       -4.34110
H         -1.72420       -0.04350       -1.14720
H         -0.18730        0.59780       -4.47390
H         -1.71310        0.31290       -3.60120
H         -1.22020       -2.10850       -3.63700
H          0.09210       -3.38850       -6.70110
H         -0.94650       -3.75700       -5.31450
H          2.11800       -3.96130       -5.52910
H          0.96710       -5.23820       -5.09840
H          3.43730       -3.04740       -3.41680
H          0.74460       -3.01350        0.81370
H         -1.61170       -3.82670        0.83710
H         -2.65010       -4.74880       -1.18950
H         -1.39410       -4.87790       -3.33500
