37
rmsd43.gzmat
S          0.00000        0.00000        0.00000
C          1.77980        0.00000        0.00000
C          2.43330        0.00000        1.23060
C          3.82670       -0.03690        1.26470
C          4.55720       -0.06600        0.07800
C          3.89500       -0.06340       -1.14880
C          2.50280       -0.03400       -1.19080
C         -0.34140        1.14390       -1.27760
N         -0.53340        0.82470       -2.57760
C         -0.78000        1.99520       -3.25050
C         -0.73110        3.07440       -2.34810
N         -0.45570        2.52080       -1.10500
C         -0.31680        3.25470        0.13770
C         -0.92310        4.53250       -2.57790
H         -0.06590        5.14050       -2.17900
O         -1.99290        5.00290       -1.78220
C         -1.13670        4.82770       -4.04080
C         -2.36040        5.30260       -4.50530
C         -2.53580        5.55070       -5.86660
C         -1.48610        5.33900       -6.75700
C         -0.25550        4.87920       -6.28730
C         -0.07910        4.62250       -4.93080
H          1.87760        0.02990        2.16860
H          4.34440       -0.03910        2.22190
H          5.64480       -0.09230        0.10880
H          4.46430       -0.08810       -2.07670
H          1.99400       -0.04140       -2.16040
H         -0.96740        2.01150       -4.30850
H         -0.85940        2.75320        0.96230
H         -0.73630        4.27790        0.04590
H          0.74830        3.34020        0.42620
H         -2.80490        4.47220       -1.93250
H         -3.18010        5.49130       -3.81340
H         -3.49670        5.90970       -6.23060
H         -1.62440        5.53190       -7.81850
H          0.56610        4.71720       -6.98250
H          0.87900        4.25390       -4.56610
