37

S         -0.09830       -0.42740        0.58930
C          1.58460       -0.04090        0.09200
C          2.46450        0.64660        0.93920
C          3.76940        0.90420        0.51530
C          4.21030        0.46390       -0.73710
C          3.33370       -0.23490       -1.57120
C          2.01970       -0.48130       -1.16490
C         -0.48220        1.00270        1.54440
N         -0.44230        1.07970        2.86210
C         -0.78810        2.36460        3.17350
C         -1.04480        3.09170        2.02200
N         -0.84670        2.20670        0.97920
C         -0.96540        2.52460       -0.43180
C         -1.34170        4.54400        1.77900
H         -2.15020        4.62620        1.03090
O         -0.22950        5.17740        1.15320
C         -1.80790        5.26100        3.04080
C         -2.88550        4.75800        3.78600
C         -3.32900        5.42420        4.92880
C         -2.70270        6.60490        5.34250
C         -1.63820        7.11630        4.59880
C         -1.19680        6.45020        3.45080
H          2.12510        0.96490        1.92660
H          4.45200        1.44380        1.17660
H          5.23410        0.66430       -1.06070
H          3.66830       -0.58140       -2.55210
H          1.32720       -1.00890       -1.82520
H         -0.84620        2.71440        4.20230
H         -0.67490        1.64240       -1.01340
H         -0.31440        3.37480       -0.67510
H         -2.00450        2.79010       -0.68160
H          0.54980        4.98450        1.69480
H         -3.37580        3.83360        3.47220
H         -4.16720        5.01920        5.50100
H         -3.04820        7.12470        6.23930
H         -1.14860        8.04290        4.90830
H         -0.38080        6.86050        2.85480
