37
rmsd35.gzmat
S          0.00000        0.00000        0.00000
C          1.78080        0.00000        0.00000
C          2.49600        0.00000        1.19550
C          3.88890        0.02690        1.16180
C          4.55750        0.06570       -0.06090
C          3.83390        0.07360       -1.25260
C          2.44050        0.03530       -1.22670
C         -0.33970       -1.32580        1.09090
N         -0.22490       -1.27320        2.43750
C         -0.55320       -2.51540        2.92250
C         -0.87540       -3.36640        1.84990
N         -0.73830       -2.59910        0.69830
C         -1.01850       -3.05060       -0.65100
C         -1.29830       -4.79290        1.83420
H         -0.75220       -5.38720        1.05140
O         -2.63270       -4.87770        1.37300
C         -1.13150       -5.45000        3.18050
C         -2.20350       -6.09770        3.79080
C         -2.02730       -6.71160        5.03050
C         -0.78200       -6.68510        5.65390
C          0.29380       -6.04840        5.03480
C          0.12170       -5.43470        3.79730
H          1.97910       -0.02410        2.16270
H          4.45270        0.01940        2.09350
H          5.64570        0.09000       -0.08480
H          4.35690        0.10500       -2.20600
H          1.88900        0.03230       -2.16740
H         -0.53930       -2.73120        3.97540
H         -1.52130       -2.26340       -1.24450
H         -1.69550       -3.93010       -0.64200
H         -0.08360       -3.33110       -1.17260
H         -3.22530       -4.31130        1.91300
H         -3.17530       -6.13910        3.29840
H         -2.86500       -7.21450        5.50960
H         -0.64750       -7.16220        6.62170
H          1.26790       -6.03040        5.51970
H          0.96290       -4.93810        3.31380
