rmsd182.gzmat
 OpenBabel08211713413D

 37 39  0  0  1  0  0  0  0  0999 V2000
    0.0000    0.0000    0.0000 S   0  0  0  0  0  0  0  0  0  0  0  0
    1.7799    0.0000    0.0000 C   0  0  0  0  0  0  0  0  0  0  0  0
    2.5003    0.0000    1.1919 C   0  0  0  0  0  0  0  0  0  0  0  0
    3.8928   -0.0500    1.1518 C   0  0  0  0  0  0  0  0  0  0  0  0
    4.5550   -0.1070   -0.0731 C   0  0  0  0  0  0  0  0  0  0  0  0
    3.8260   -0.1086   -1.2617 C   0  0  0  0  0  0  0  0  0  0  0  0
    2.4339   -0.0500   -1.2300 C   0  0  0  0  0  0  0  0  0  0  0  0
   -0.3829    1.3601    1.0343 C   0  0  0  0  0  0  0  0  0  0  0  0
   -0.0404    1.4751    2.3380 N   0  0  0  0  0  0  0  0  0  0  0  0
   -0.5314    2.6790    2.7825 C   0  0  0  0  0  0  0  0  0  0  0  0
   -1.2126    3.3226    1.7349 C   0  0  2  0  0  0  0  0  0  0  0  0
   -1.0944    2.4836    0.6303 N   0  0  0  0  0  0  0  0  0  0  0  0
   -1.6486    2.7420   -0.6842 C   0  0  0  0  0  0  0  0  0  0  0  0
   -1.9214    4.6300    1.6864 C   0  0  2  0  0  0  0  0  0  0  0  0
   -2.9495    4.5368    1.2417 H   0  0  0  0  0  0  0  0  0  0  0  0
   -1.2802    5.4690    0.7440 O   0  0  0  0  0  0  0  0  0  0  0  0
   -2.0066    5.2884    3.0397 C   0  0  0  0  0  0  0  0  0  0  0  0
   -2.5793    4.5932    4.1071 C   0  0  0  0  0  0  0  0  0  0  0  0
   -2.6613    5.1916    5.3613 C   0  0  0  0  0  0  0  0  0  0  0  0
   -2.1832    6.4883    5.5493 C   0  0  0  0  0  0  0  0  0  0  0  0
   -1.6350    7.1893    4.4779 C   0  0  0  0  0  0  0  0  0  0  0  0
   -1.5500    6.5922    3.2205 C   0  0  0  0  0  0  0  0  0  0  0  0
    1.9888    0.0473    2.1613 H   0  0  0  0  0  0  0  0  0  0  0  0
    4.4602   -0.0454    2.0810 H   0  0  0  0  0  0  0  0  0  0  0  0
    5.6423   -0.1496   -0.1024 H   0  0  0  0  0  0  0  0  0  0  0  0
    4.3445   -0.1533   -2.2170 H   0  0  0  0  0  0  0  0  0  0  0  0
    1.8795   -0.0423   -2.1685 H   0  0  0  0  0  0  0  0  0  0  0  0
   -0.3773    3.0089    3.7937 H   0  0  0  0  0  0  0  0  0  0  0  0
   -0.9759    2.3767   -1.4837 H   0  0  0  0  0  0  0  0  0  0  0  0
   -1.7855    3.8314   -0.8483 H   0  0  0  0  0  0  0  0  0  0  0  0
   -2.6295    2.2437   -0.8026 H   0  0  0  0  0  0  0  0  0  0  0  0
   -0.3232    5.5514    0.9468 H   0  0  0  0  0  0  0  0  0  0  0  0
   -2.9555    3.5812    3.9611 H   0  0  0  0  0  0  0  0  0  0  0  0
   -3.0974    4.6453    6.1952 H   0  0  0  0  0  0  0  0  0  0  0  0
   -2.2415    6.9521    6.5312 H   0  0  0  0  0  0  0  0  0  0  0  0
   -1.2730    8.2057    4.6187 H   0  0  0  0  0  0  0  0  0  0  0  0
   -1.1389    7.1533    2.3811 H   0  0  0  0  0  0  0  0  0  0  0  0
  1  2  1  0  0  0  0
  1  8  1  0  0  0  0
  2  3  2  0  0  0  0
  3 23  1  0  0  0  0
  4  3  1  0  0  0  0
  4 24  1  0  0  0  0
  5  4  2  0  0  0  0
  6  7  2  0  0  0  0
  6  5  1  0  0  0  0
  7  2  1  0  0  0  0
  8  9  2  0  0  0  0
  9 10  2  0  0  0  0
 10 28  1  0  0  0  0
 11 14  1  6  0  0  0
 11 10  1  0  0  0  0
 12  8  1  0  0  0  0
 12 11  1  0  0  0  0
 13 12  1  0  0  0  0
 14 15  1  6  0  0  0
 14 17  1  0  0  0  0
 16 32  1  0  0  0  0
 16 14  1  0  0  0  0
 17 22  2  0  0  0  0
 17 18  1  0  0  0  0
 18 19  2  0  0  0  0
 19 20  1  0  0  0  0
 19 34  1  0  0  0  0
 20 35  1  0  0  0  0
 21 36  1  0  0  0  0
 21 20  2  0  0  0  0
 22 21  1  0  0  0  0
 25  5  1  0  0  0  0
 26  6  1  0  0  0  0
 27  7  1  0  0  0  0
 29 13  1  0  0  0  0
 30 13  1  0  0  0  0
 31 13  1  0  0  0  0
 33 18  1  0  0  0  0
 37 22  1  0  0  0  0
M  RAD  1  11   2
M  END
$$$$
