
     RDKit          3D

 37 39  0  0  0  0  0  0  0  0999 V2000
   -0.0627   -0.4928   -0.5924 S   0  0  0  0  0  0  0  0  0  0  0  0
    1.6261   -0.0333   -0.1772 C   0  0  0  0  0  0  0  0  0  0  0  0
    2.0712   -0.2751    1.1288 C   0  0  0  0  0  0  0  0  0  0  0  0
    3.3927    0.0171    1.4773 C   0  0  0  0  0  0  0  0  0  0  0  0
    4.2651    0.5647    0.5332 C   0  0  0  0  0  0  0  0  0  0  0  0
    3.8132    0.8069   -0.7684 C   0  0  0  0  0  0  0  0  0  0  0  0
    2.5010    0.5000   -1.1331 C   0  0  0  0  0  0  0  0  0  0  0  0
   -0.5134    0.8278   -1.6699 C   0  0  0  0  0  0  0  0  0  0  0  0
   -0.2802    0.8748   -2.9701 N   0  0  0  0  0  0  0  0  0  0  0  0
   -0.7721    2.0769   -3.3926 C   0  0  0  0  0  0  0  0  0  0  0  0
   -1.3238    2.7768   -2.3338 C   0  0  0  0  0  0  0  0  0  0  0  0
   -1.1494    1.9689   -1.2280 N   0  0  0  0  0  0  0  0  0  0  0  0
   -1.5650    2.2823    0.1296 C   0  0  0  0  0  0  0  0  0  0  0  0
   -1.9763    4.1254   -2.2839 C   0  0  2  0  0  0  0  0  0  0  0  0
   -2.0013    4.4923   -3.3294 H   0  0  0  0  0  0  0  0  0  0  0  0
   -1.2428    5.0340   -1.4684 O   0  0  0  0  0  0  0  0  0  0  0  0
   -3.4121    4.0759   -1.7795 C   0  0  0  0  0  0  0  0  0  0  0  0
   -3.8941    5.0414   -0.8887 C   0  0  0  0  0  0  0  0  0  0  0  0
   -5.2190    4.9905   -0.4448 C   0  0  0  0  0  0  0  0  0  0  0  0
   -6.0739    3.9792   -0.8888 C   0  0  0  0  0  0  0  0  0  0  0  0
   -5.5970    3.0155   -1.7831 C   0  0  0  0  0  0  0  0  0  0  0  0
   -4.2738    3.0639   -2.2250 C   0  0  0  0  0  0  0  0  0  0  0  0
    1.3814   -0.6839    1.8709 H   0  0  0  0  0  0  0  0  0  0  0  0
    3.7363   -0.1737    2.4970 H   0  0  0  0  0  0  0  0  0  0  0  0
    5.2951    0.8011    0.8099 H   0  0  0  0  0  0  0  0  0  0  0  0
    4.4928    1.2277   -1.5137 H   0  0  0  0  0  0  0  0  0  0  0  0
    2.1470    0.6644   -2.1525 H   0  0  0  0  0  0  0  0  0  0  0  0
   -0.7182    2.3900   -4.4352 H   0  0  0  0  0  0  0  0  0  0  0  0
   -2.6533    2.1648    0.2384 H   0  0  0  0  0  0  0  0  0  0  0  0
   -1.2990    3.3223    0.3546 H   0  0  0  0  0  0  0  0  0  0  0  0
   -1.0545    1.5966    0.8160 H   0  0  0  0  0  0  0  0  0  0  0  0
   -0.3330    5.0444   -1.7932 H   0  0  0  0  0  0  0  0  0  0  0  0
   -3.2206    5.8248   -0.5419 H   0  0  0  0  0  0  0  0  0  0  0  0
   -5.5837    5.7471    0.2545 H   0  0  0  0  0  0  0  0  0  0  0  0
   -7.1083    3.9398   -0.5391 H   0  0  0  0  0  0  0  0  0  0  0  0
   -6.2575    2.2195   -2.1354 H   0  0  0  0  0  0  0  0  0  0  0  0
   -3.9007    2.3036   -2.9157 H   0  0  0  0  0  0  0  0  0  0  0  0
  1  2  1  0
  1  8  1  0
  2  3  2  0
  2  7  1  0
  3  4  1  0
  3 23  1  0
  4  5  2  0
  4 24  1  0
  5  6  1  0
  5 25  1  0
  6  7  2  0
  6 26  1  0
  7 27  1  0
  8  9  2  0
  8 12  1  0
  9 10  1  0
 10 11  2  0
 10 28  1  0
 11 12  1  0
 11 14  1  0
 12 13  1  0
 13 29  1  0
 13 30  1  0
 13 31  1  0
 14 15  1  6
 14 16  1  0
 14 17  1  0
 16 32  1  0
 17 18  2  0
 17 22  1  0
 18 19  1  0
 18 33  1  0
 19 20  2  0
 19 34  1  0
 20 21  1  0
 20 35  1  0
 21 22  2  0
 21 36  1  0
 22 37  1  0
M  END

