rmsd173.gzmat
 OpenBabel08211713413D

 37 39  0  0  1  0  0  0  0  0999 V2000
    0.0000    0.0000    0.0000 S   0  0  0  0  0  0  0  0  0  0  0  0
    1.7801    0.0000    0.0000 C   0  0  0  0  0  0  0  0  0  0  0  0
    2.4985    0.0000    1.1932 C   0  0  0  0  0  0  0  0  0  0  0  0
    3.8916   -0.0148    1.1548 C   0  0  0  0  0  0  0  0  0  0  0  0
    4.5572   -0.0402   -0.0697 C   0  0  0  0  0  0  0  0  0  0  0  0
    3.8302   -0.0534   -1.2589 C   0  0  0  0  0  0  0  0  0  0  0  0
    2.4364   -0.0294   -1.2287 C   0  0  0  0  0  0  0  0  0  0  0  0
   -0.3422    1.2805    1.1417 C   0  0  0  0  0  0  0  0  0  0  0  0
   -0.3911    1.1344    2.4851 N   0  0  0  0  0  0  0  0  0  0  0  0
   -0.7057    2.3613    3.0154 C   0  0  0  0  0  0  0  0  0  0  0  0
   -0.8641    3.2960    1.9754 C   0  0  2  0  0  0  0  0  0  0  0  0
   -0.6202    2.6004    0.7973 N   0  0  0  0  0  0  0  0  0  0  0  0
   -0.6121    3.1669   -0.5375 C   0  0  0  0  0  0  0  0  0  0  0  0
   -1.2030    4.7448    2.0129 C   0  0  2  0  0  0  0  0  0  0  0  0
   -2.0360    5.0020    1.3026 H   0  0  0  0  0  0  0  0  0  0  0  0
   -0.1289    5.4879    1.4693 O   0  0  0  0  0  0  0  0  0  0  0  0
   -1.5550    5.2131    3.4017 C   0  0  0  0  0  0  0  0  0  0  0  0
   -2.5977    4.5881    4.0894 C   0  0  0  0  0  0  0  0  0  0  0  0
   -2.9394    5.0149    5.3694 C   0  0  0  0  0  0  0  0  0  0  0  0
   -2.2480    6.0719    5.9612 C   0  0  0  0  0  0  0  0  0  0  0  0
   -1.2204    6.7055    5.2668 C   0  0  0  0  0  0  0  0  0  0  0  0
   -0.8746    6.2797    3.9842 C   0  0  0  0  0  0  0  0  0  0  0  0
    1.9842    0.0117    2.1610 H   0  0  0  0  0  0  0  0  0  0  0  0
    4.4581   -0.0090    2.0846 H   0  0  0  0  0  0  0  0  0  0  0  0
    5.6453   -0.0521   -0.0972 H   0  0  0  0  0  0  0  0  0  0  0  0
    4.3506   -0.0797   -2.2138 H   0  0  0  0  0  0  0  0  0  0  0  0
    1.8815   -0.0333   -2.1669 H   0  0  0  0  0  0  0  0  0  0  0  0
   -0.8000    2.5088    4.0756 H   0  0  0  0  0  0  0  0  0  0  0  0
    0.3136    2.8933   -1.0806 H   0  0  0  0  0  0  0  0  0  0  0  0
   -0.6491    4.2752   -0.5025 H   0  0  0  0  0  0  0  0  0  0  0  0
   -1.4774    2.8054   -1.1250 H   0  0  0  0  0  0  0  0  0  0  0  0
    0.7105    5.2777    1.9332 H   0  0  0  0  0  0  0  0  0  0  0  0
   -3.1396    3.7634    3.6275 H   0  0  0  0  0  0  0  0  0  0  0  0
   -3.7471    4.5232    5.9080 H   0  0  0  0  0  0  0  0  0  0  0  0
   -2.5126    6.4028    6.9628 H   0  0  0  0  0  0  0  0  0  0  0  0
   -0.6850    7.5354    5.7235 H   0  0  0  0  0  0  0  0  0  0  0  0
   -0.0820    6.7920    3.4388 H   0  0  0  0  0  0  0  0  0  0  0  0
  1  2  1  0  0  0  0
  1  8  1  0  0  0  0
  2  3  2  0  0  0  0
  3 23  1  0  0  0  0
  4  3  1  0  0  0  0
  4 24  1  0  0  0  0
  5  4  2  0  0  0  0
  6  7  2  0  0  0  0
  6  5  1  0  0  0  0
  7  2  1  0  0  0  0
  8  9  2  0  0  0  0
  9 10  2  0  0  0  0
 10 28  1  0  0  0  0
 11 14  1  1  0  0  0
 11 10  1  0  0  0  0
 12  8  1  0  0  0  0
 12 11  1  0  0  0  0
 13 30  1  0  0  0  0
 13 12  1  0  0  0  0
 14 15  1  6  0  0  0
 14 17  1  0  0  0  0
 16 32  1  0  0  0  0
 16 14  1  0  0  0  0
 17 22  2  0  0  0  0
 17 18  1  0  0  0  0
 18 19  2  0  0  0  0
 19 34  1  0  0  0  0
 19 20  1  0  0  0  0
 20 35  1  0  0  0  0
 21 36  1  0  0  0  0
 21 20  2  0  0  0  0
 22 21  1  0  0  0  0
 25  5  1  0  0  0  0
 26  6  1  0  0  0  0
 27  7  1  0  0  0  0
 29 13  1  0  0  0  0
 31 13  1  0  0  0  0
 33 18  1  0  0  0  0
 37 22  1  0  0  0  0
M  RAD  1  11   2
M  END
$$$$
