rmsd46.gzmat
 OpenBabel08211713413D

 37 39  0  0  1  0  0  0  0  0999 V2000
    0.0000    0.0000    0.0000 S   0  0  0  0  0  0  0  0  0  0  0  0
    1.7782    0.0000    0.0000 C   0  0  0  0  0  0  0  0  0  0  0  0
    2.4248    0.0000    1.2352 C   0  0  0  0  0  0  0  0  0  0  0  0
    3.8158   -0.0784    1.2790 C   0  0  0  0  0  0  0  0  0  0  0  0
    4.5519   -0.1385    0.0965 C   0  0  0  0  0  0  0  0  0  0  0  0
    3.8977   -0.1235   -1.1339 C   0  0  0  0  0  0  0  0  0  0  0  0
    2.5062   -0.0607   -1.1855 C   0  0  0  0  0  0  0  0  0  0  0  0
   -0.4049    1.2482   -1.1574 C   0  0  0  0  0  0  0  0  0  0  0  0
   -0.0641    1.2526   -2.4672 N   0  0  0  0  0  0  0  0  0  0  0  0
   -0.6019    2.3879   -3.0228 C   0  0  0  0  0  0  0  0  0  0  0  0
   -1.3058    3.1010   -2.0354 C   0  0  2  0  0  0  0  0  0  0  0  0
   -1.1568    2.3789   -0.8583 N   0  0  0  0  0  0  0  0  0  0  0  0
   -1.7381    2.7195    0.4257 C   0  0  0  0  0  0  0  0  0  0  0  0
   -2.0883    4.3581   -2.1701 C   0  0  2  0  0  0  0  0  0  0  0  0
   -1.9685    4.7961   -3.1964 H   0  0  0  0  0  0  0  0  0  0  0  0
   -1.6147    5.3262   -1.2429 O   0  0  0  0  0  0  0  0  0  0  0  0
   -3.5505    4.1472   -1.8644 C   0  0  0  0  0  0  0  0  0  0  0  0
   -4.2162    4.9682   -0.9566 C   0  0  0  0  0  0  0  0  0  0  0  0
   -5.5652    4.7455   -0.6845 C   0  0  0  0  0  0  0  0  0  0  0  0
   -6.2469    3.7124   -1.3238 C   0  0  0  0  0  0  0  0  0  0  0  0
   -5.5811    2.8994   -2.2408 C   0  0  0  0  0  0  0  0  0  0  0  0
   -4.2337    3.1165   -2.5137 C   0  0  0  0  0  0  0  0  0  0  0  0
    1.8652    0.0623    2.1690 H   0  0  0  0  0  0  0  0  0  0  0  0
    4.3267   -0.0893    2.2392 H   0  0  0  0  0  0  0  0  0  0  0  0
    5.6381   -0.1959    0.1349 H   0  0  0  0  0  0  0  0  0  0  0  0
    4.4699   -0.1637   -2.0588 H   0  0  0  0  0  0  0  0  0  0  0  0
    2.0022   -0.0556   -2.1599 H   0  0  0  0  0  0  0  0  0  0  0  0
   -0.4647    2.6225   -4.0606 H   0  0  0  0  0  0  0  0  0  0  0  0
   -2.6141    2.0785    0.6454 H   0  0  0  0  0  0  0  0  0  0  0  0
   -2.0844    3.7749    0.4361 H   0  0  0  0  0  0  0  0  0  0  0  0
   -1.0001    2.6006    1.2416 H   0  0  0  0  0  0  0  0  0  0  0  0
   -0.6448    5.4330   -1.3322 H   0  0  0  0  0  0  0  0  0  0  0  0
   -3.6852    5.7838   -0.4621 H   0  0  0  0  0  0  0  0  0  0  0  0
   -6.0857    5.3815    0.0282 H   0  0  0  0  0  0  0  0  0  0  0  0
   -7.2994    3.5411   -1.1098 H   0  0  0  0  0  0  0  0  0  0  0  0
   -6.1142    2.0935   -2.7420 H   0  0  0  0  0  0  0  0  0  0  0  0
   -3.7109    2.4778   -3.2252 H   0  0  0  0  0  0  0  0  0  0  0  0
  1  2  1  0  0  0  0
  2  3  2  0  0  0  0
  3  4  1  0  0  0  0
  3 23  1  0  0  0  0
  4 24  1  0  0  0  0
  5 25  1  0  0  0  0
  5  4  2  0  0  0  0
  6  5  1  0  0  0  0
  7  6  2  0  0  0  0
  7  2  1  0  0  0  0
  8 12  1  0  0  0  0
  8  1  1  0  0  0  0
  9  8  2  0  0  0  0
 10  9  2  0  0  0  0
 10 11  1  0  0  0  0
 11 14  1  6  0  0  0
 11 12  1  0  0  0  0
 12 13  1  0  0  0  0
 13 30  1  0  0  0  0
 13 29  1  0  0  0  0
 13 31  1  0  0  0  0
 14 15  1  6  0  0  0
 14 17  1  0  0  0  0
 14 16  1  0  0  0  0
 17 18  2  0  0  0  0
 18 19  1  0  0  0  0
 18 33  1  0  0  0  0
 19 34  1  0  0  0  0
 20 35  1  0  0  0  0
 20 19  2  0  0  0  0
 21 20  1  0  0  0  0
 22 21  2  0  0  0  0
 22 17  1  0  0  0  0
 26  6  1  0  0  0  0
 27  7  1  0  0  0  0
 28 10  1  0  0  0  0
 32 16  1  0  0  0  0
 36 21  1  0  0  0  0
 37 22  1  0  0  0  0
M  RAD  1  11   2
M  END
$$$$
