37
rmsd173.gzmat
S          0.00000        0.00000        0.00000
C          1.78010        0.00000        0.00000
C          2.49850        0.00000        1.19320
C          3.89160       -0.01480        1.15480
C          4.55720       -0.04020       -0.06970
C          3.83020       -0.05340       -1.25890
C          2.43640       -0.02940       -1.22870
C         -0.34220        1.28050        1.14170
N         -0.39110        1.13440        2.48510
C         -0.70570        2.36130        3.01540
C         -0.86410        3.29600        1.97540
N         -0.62020        2.60040        0.79730
C         -0.61210        3.16690       -0.53750
C         -1.20300        4.74480        2.01290
H         -2.03600        5.00200        1.30260
O         -0.12890        5.48790        1.46930
C         -1.55500        5.21310        3.40170
C         -2.59770        4.58810        4.08940
C         -2.93940        5.01490        5.36940
C         -2.24800        6.07190        5.96120
C         -1.22040        6.70550        5.26680
C         -0.87460        6.27970        3.98420
H          1.98420        0.01170        2.16100
H          4.45810       -0.00900        2.08460
H          5.64530       -0.05210       -0.09720
H          4.35060       -0.07970       -2.21380
H          1.88150       -0.03330       -2.16690
H         -0.80000        2.50880        4.07560
H          0.31360        2.89330       -1.08060
H         -0.64910        4.27520       -0.50250
H         -1.47740        2.80540       -1.12500
H          0.71050        5.27770        1.93320
H         -3.13960        3.76340        3.62750
H         -3.74710        4.52320        5.90800
H         -2.51260        6.40280        6.96280
H         -0.68500        7.53540        5.72350
H         -0.08200        6.79200        3.43880
