rmsd126.gzmat
 OpenBabel08211713413D

 37 39  0  0  1  0  0  0  0  0999 V2000
    0.0000    0.0000    0.0000 S   0  0  0  0  0  0  0  0  0  0  0  0
    1.7779    0.0000    0.0000 C   0  0  0  0  0  0  0  0  0  0  0  0
    2.5121    0.0000    1.1832 C   0  0  0  0  0  0  0  0  0  0  0  0
    3.9041   -0.0439    1.1258 C   0  0  0  0  0  0  0  0  0  0  0  0
    4.5523   -0.0995   -0.1070 C   0  0  0  0  0  0  0  0  0  0  0  0
    3.8091   -0.1084   -1.2862 C   0  0  0  0  0  0  0  0  0  0  0  0
    2.4173   -0.0520   -1.2374 C   0  0  0  0  0  0  0  0  0  0  0  0
   -0.3941    1.1779    1.2301 C   0  0  0  0  0  0  0  0  0  0  0  0
   -0.4269    0.9364    2.5604 N   0  0  0  0  0  0  0  0  0  0  0  0
   -0.8547    2.0888    3.1726 C   0  0  0  0  0  0  0  0  0  0  0  0
   -1.1020    3.0734    2.1983 C   0  0  2  0  0  0  0  0  0  0  0  0
   -0.7875    2.4886    0.9772 N   0  0  0  0  0  0  0  0  0  0  0  0
   -0.8408    3.1542   -0.3097 C   0  0  0  0  0  0  0  0  0  0  0  0
   -1.5867    4.4746    2.3268 C   0  0  2  0  0  0  0  0  0  0  0  0
   -2.3862    4.7143    1.5729 H   0  0  0  0  0  0  0  0  0  0  0  0
   -0.5558    5.3608    1.9356 O   0  0  0  0  0  0  0  0  0  0  0  0
   -2.0905    4.7860    3.7130 C   0  0  0  0  0  0  0  0  0  0  0  0
   -1.6165    5.8995    4.4035 C   0  0  0  0  0  0  0  0  0  0  0  0
   -2.1031    6.1836    5.6793 C   0  0  0  0  0  0  0  0  0  0  0  0
   -3.0667    5.3622    6.2599 C   0  0  0  0  0  0  0  0  0  0  0  0
   -3.5528    4.2578    5.5603 C   0  0  0  0  0  0  0  0  0  0  0  0
   -3.0699    3.9714    4.2867 C   0  0  0  0  0  0  0  0  0  0  0  0
    2.0124    0.0292    2.1577 H   0  0  0  0  0  0  0  0  0  0  0  0
    4.4846   -0.0395    2.0472 H   0  0  0  0  0  0  0  0  0  0  0  0
    5.6392   -0.1363   -0.1493 H   0  0  0  0  0  0  0  0  0  0  0  0
    4.3153   -0.1566   -2.2479 H   0  0  0  0  0  0  0  0  0  0  0  0
    1.8507   -0.0495   -2.1689 H   0  0  0  0  0  0  0  0  0  0  0  0
   -0.9656    2.1528    4.2395 H   0  0  0  0  0  0  0  0  0  0  0  0
   -0.0123    2.8277   -0.9668 H   0  0  0  0  0  0  0  0  0  0  0  0
   -0.7439    4.2537   -0.1893 H   0  0  0  0  0  0  0  0  0  0  0  0
   -1.7950    2.9376   -0.8260 H   0  0  0  0  0  0  0  0  0  0  0  0
    0.2606    5.1980    2.4556 H   0  0  0  0  0  0  0  0  0  0  0  0
   -0.8779    6.5580    3.9461 H   0  0  0  0  0  0  0  0  0  0  0  0
   -1.7300    7.0510    6.2199 H   0  0  0  0  0  0  0  0  0  0  0  0
   -3.4422    5.5831    7.2563 H   0  0  0  0  0  0  0  0  0  0  0  0
   -4.3097    3.6180    6.0099 H   0  0  0  0  0  0  0  0  0  0  0  0
   -3.4523    3.1091    3.7414 H   0  0  0  0  0  0  0  0  0  0  0  0
  1  8  1  0  0  0  0
  2  1  1  0  0  0  0
  2  3  2  0  0  0  0
  3 23  1  0  0  0  0
  4  3  1  0  0  0  0
  4 24  1  0  0  0  0
  5  4  2  0  0  0  0
  6  7  2  0  0  0  0
  6  5  1  0  0  0  0
  7  2  1  0  0  0  0
  8  9  2  0  0  0  0
  9 10  2  0  0  0  0
 10 28  1  0  0  0  0
 11 14  1  1  0  0  0
 11 10  1  0  0  0  0
 12  8  1  0  0  0  0
 12 11  1  0  0  0  0
 13 30  1  0  0  0  0
 13 12  1  0  0  0  0
 14 15  1  6  0  0  0
 14 17  1  0  0  0  0
 16 14  1  0  0  0  0
 16 32  1  0  0  0  0
 17 22  2  0  0  0  0
 17 18  1  0  0  0  0
 18 19  2  0  0  0  0
 19 34  1  0  0  0  0
 19 20  1  0  0  0  0
 20 35  1  0  0  0  0
 21 36  1  0  0  0  0
 21 20  2  0  0  0  0
 22 21  1  0  0  0  0
 25  5  1  0  0  0  0
 26  6  1  0  0  0  0
 27  7  1  0  0  0  0
 29 13  1  0  0  0  0
 31 13  1  0  0  0  0
 33 18  1  0  0  0  0
 37 22  1  0  0  0  0
M  RAD  1  11   2
M  END
$$$$
