37
rmsd154.gzmat
S          0.00000        0.00000        0.00000
C          1.77960        0.00000        0.00000
C          2.42580        0.00000        1.23500
C          3.81880       -0.03410        1.27780
C          4.55730       -0.05930        0.09580
C          3.90280       -0.05970       -1.13480
C          2.51070       -0.03600       -1.18540
C         -0.35580        1.02730       -1.36970
N         -0.49820        0.59780       -2.64440
C         -0.75720        1.70090       -3.41880
C         -0.76550        2.85140       -2.60790
N         -0.51980        2.40870       -1.31430
C         -0.47350        3.24830       -0.13290
C         -0.98870        4.28100       -2.95680
H         -0.24650        4.96090       -2.45550
O         -2.20410        4.71800       -2.38140
C         -0.96140        4.50670       -4.44700
C          0.16440        4.11280       -5.17440
C          0.20690        4.31480       -6.55070
C         -0.86860        4.91980       -7.20130
C         -1.98170        5.32970       -6.47120
C         -2.02880        5.12660       -5.09220
H          1.86430        0.02630        2.16960
H          4.33110       -0.03800        2.23790
H          5.64480       -0.08080        0.13430
H          4.47760       -0.08360       -2.05940
H          2.00870       -0.05390       -2.15830
H         -0.91500        1.62180       -4.47900
H         -0.96470        2.75720        0.72940
H         -1.00590        4.20660       -0.30630
H          0.57300        3.47310        0.14870
H         -2.94820        4.13770       -2.65260
H          1.00520        3.64110       -4.66660
H          1.07900        3.99810       -7.11920
H         -0.83560        5.07260       -8.27760
H         -2.81730        5.81100       -6.97500
H         -2.89580        5.46430       -4.52420
