37
rmsd126.gzmat
S          0.00000        0.00000        0.00000
C          1.77790        0.00000        0.00000
C          2.51210        0.00000        1.18320
C          3.90410       -0.04390        1.12580
C          4.55230       -0.09950       -0.10700
C          3.80910       -0.10840       -1.28620
C          2.41730       -0.05200       -1.23740
C         -0.39410        1.17790        1.23010
N         -0.42690        0.93640        2.56040
C         -0.85470        2.08880        3.17260
C         -1.10200        3.07340        2.19830
N         -0.78750        2.48860        0.97720
C         -0.84080        3.15420       -0.30970
C         -1.58670        4.47460        2.32680
H         -2.38620        4.71430        1.57290
O         -0.55580        5.36080        1.93560
C         -2.09050        4.78600        3.71300
C         -1.61650        5.89950        4.40350
C         -2.10310        6.18360        5.67930
C         -3.06670        5.36220        6.25990
C         -3.55280        4.25780        5.56030
C         -3.06990        3.97140        4.28670
H          2.01240        0.02920        2.15770
H          4.48460       -0.03950        2.04720
H          5.63920       -0.13630       -0.14930
H          4.31530       -0.15660       -2.24790
H          1.85070       -0.04950       -2.16890
H         -0.96560        2.15280        4.23950
H         -0.01230        2.82770       -0.96680
H         -0.74390        4.25370       -0.18930
H         -1.79500        2.93760       -0.82600
H          0.26060        5.19800        2.45560
H         -0.87790        6.55800        3.94610
H         -1.73000        7.05100        6.21990
H         -3.44220        5.58310        7.25630
H         -4.30970        3.61800        6.00990
H         -3.45230        3.10910        3.74140
