37
rmsd134.gzmat
S          0.00000        0.00000        0.00000
C          1.77890        0.00000        0.00000
C          2.50020        0.00000        1.19160
C          3.89270       -0.04660        1.14900
C          4.55300       -0.09900       -0.07750
C          3.82250       -0.10370       -1.26500
C          2.43010       -0.05010       -1.23100
C         -0.37450        1.33400        1.06800
N         -0.19400        1.34160        2.40860
C         -0.64380        2.55370        2.87160
C         -1.12830        3.31700        1.79410
N         -0.93440        2.53940        0.65790
C         -1.24910        2.93200       -0.70190
C         -1.74180        4.67280        1.76440
H         -2.72950        4.67610        1.22750
O         -0.97220        5.52520        0.93940
C         -1.90440        5.23650        3.15290
C         -1.22100        6.38460        3.54520
C         -1.38290        6.87870        4.83950
C         -2.23230        6.23280        5.73460
C         -2.92990        5.09320        5.33390
C         -2.76940        4.59630        4.04390
H          1.98900        0.04100        2.16100
H          4.46200       -0.04270        2.07720
H          5.64040       -0.13490       -0.10920
H          4.33890       -0.14470       -2.22170
H          1.87320       -0.04660       -2.16830
H         -0.60290        2.80910        3.91470
H         -0.41460        2.69230       -1.38860
H         -1.42290        4.02580       -0.77150
H         -2.15530        2.41140       -1.06430
H         -0.03160        5.52990        1.21940
H         -0.56920        6.90720        2.84630
H         -0.84380        7.77170        5.14820
H         -2.35300        6.61710        6.74460
H         -3.59890        4.59120        6.03030
H         -3.31280        3.70500        3.73260
