rmsd183.gzmat
 OpenBabel08211713413D

 37 39  0  0  1  0  0  0  0  0999 V2000
    0.0000    0.0000    0.0000 S   0  0  0  0  0  0  0  0  0  0  0  0
    1.7796    0.0000    0.0000 C   0  0  0  0  0  0  0  0  0  0  0  0
    2.4331    0.0000    1.2306 C   0  0  0  0  0  0  0  0  0  0  0  0
    3.8263   -0.0403    1.2643 C   0  0  0  0  0  0  0  0  0  0  0  0
    4.5561   -0.0682    0.0769 C   0  0  0  0  0  0  0  0  0  0  0  0
    3.8933   -0.0686   -1.1495 C   0  0  0  0  0  0  0  0  0  0  0  0
    2.5013   -0.0397   -1.1909 C   0  0  0  0  0  0  0  0  0  0  0  0
   -0.3521    1.1736   -1.2488 C   0  0  0  0  0  0  0  0  0  0  0  0
   -0.3687    0.9138   -2.5764 N   0  0  0  0  0  0  0  0  0  0  0  0
   -0.6798    2.0876   -3.2172 C   0  0  0  0  0  0  0  0  0  0  0  0
   -0.8540    3.1084   -2.2651 C   0  0  2  0  0  0  0  0  0  0  0  0
   -0.6471    2.5147   -1.0256 N   0  0  0  0  0  0  0  0  0  0  0  0
   -0.7564    3.1957    0.2499 C   0  0  0  0  0  0  0  0  0  0  0  0
   -1.2128    4.5427   -2.4303 C   0  0  2  0  0  0  0  0  0  0  0  0
   -0.6173    5.2113   -1.7499 H   0  0  0  0  0  0  0  0  0  0  0  0
   -2.5269    4.7492   -1.9487 O   0  0  0  0  0  0  0  0  0  0  0  0
   -1.0621    5.0086   -3.8558 C   0  0  0  0  0  0  0  0  0  0  0  0
    0.1522    4.8101   -4.5166 C   0  0  0  0  0  0  0  0  0  0  0  0
    0.3100    5.2531   -5.8267 C   0  0  0  0  0  0  0  0  0  0  0  0
   -0.7405    5.9013   -6.4761 C   0  0  0  0  0  0  0  0  0  0  0  0
   -1.9456    6.1114   -5.8100 C   0  0  0  0  0  0  0  0  0  0  0  0
   -2.1068    5.6700   -4.4971 C   0  0  0  0  0  0  0  0  0  0  0  0
    1.8776    0.0315    2.1683 H   0  0  0  0  0  0  0  0  0  0  0  0
    4.3442   -0.0490    2.2211 H   0  0  0  0  0  0  0  0  0  0  0  0
    5.6437   -0.0930    0.1082 H   0  0  0  0  0  0  0  0  0  0  0  0
    4.4607   -0.0982   -2.0782 H   0  0  0  0  0  0  0  0  0  0  0  0
    1.9895   -0.0533   -2.1602 H   0  0  0  0  0  0  0  0  0  0  0  0
   -0.7578    2.1430   -4.2875 H   0  0  0  0  0  0  0  0  0  0  0  0
   -1.1001    2.5116    1.0491 H   0  0  0  0  0  0  0  0  0  0  0  0
   -1.4940    4.0240    0.1901 H   0  0  0  0  0  0  0  0  0  0  0  0
    0.2221    3.6159    0.5537 H   0  0  0  0  0  0  0  0  0  0  0  0
   -3.1597    4.1418   -2.3898 H   0  0  0  0  0  0  0  0  0  0  0  0
    0.9736    4.3043   -4.0099 H   0  0  0  0  0  0  0  0  0  0  0  0
    1.2536    5.0921   -6.3441 H   0  0  0  0  0  0  0  0  0  0  0  0
   -0.6154    6.2467   -7.4999 H   0  0  0  0  0  0  0  0  0  0  0  0
   -2.7631    6.6246   -6.3116 H   0  0  0  0  0  0  0  0  0  0  0  0
   -3.0437    5.8578   -3.9724 H   0  0  0  0  0  0  0  0  0  0  0  0
  1  2  1  0  0  0  0
  2  3  2  0  0  0  0
  3  4  1  0  0  0  0
  3 23  1  0  0  0  0
  4 24  1  0  0  0  0
  5 25  1  0  0  0  0
  5  4  2  0  0  0  0
  6  5  1  0  0  0  0
  7  6  2  0  0  0  0
  7  2  1  0  0  0  0
  8 12  1  0  0  0  0
  8  1  1  0  0  0  0
  9  8  2  0  0  0  0
 10  9  2  0  0  0  0
 10 11  1  0  0  0  0
 11 14  1  1  0  0  0
 11 12  1  0  0  0  0
 12 13  1  0  0  0  0
 13 31  1  0  0  0  0
 13 29  1  0  0  0  0
 14 16  1  0  0  0  0
 14 15  1  1  0  0  0
 17 14  1  0  0  0  0
 18 33  1  0  0  0  0
 18 17  2  0  0  0  0
 19 18  1  0  0  0  0
 20 19  2  0  0  0  0
 20 21  1  0  0  0  0
 21 22  2  0  0  0  0
 22 37  1  0  0  0  0
 22 17  1  0  0  0  0
 26  6  1  0  0  0  0
 27  7  1  0  0  0  0
 28 10  1  0  0  0  0
 30 13  1  0  0  0  0
 32 16  1  0  0  0  0
 34 19  1  0  0  0  0
 35 20  1  0  0  0  0
 36 21  1  0  0  0  0
M  RAD  1  11   2
M  END
$$$$
