rmsd154.gzmat
 OpenBabel08211713413D

 37 39  0  0  1  0  0  0  0  0999 V2000
    0.0000    0.0000    0.0000 S   0  0  0  0  0  0  0  0  0  0  0  0
    1.7796    0.0000    0.0000 C   0  0  0  0  0  0  0  0  0  0  0  0
    2.4258    0.0000    1.2350 C   0  0  0  0  0  0  0  0  0  0  0  0
    3.8188   -0.0341    1.2778 C   0  0  0  0  0  0  0  0  0  0  0  0
    4.5573   -0.0593    0.0958 C   0  0  0  0  0  0  0  0  0  0  0  0
    3.9028   -0.0597   -1.1348 C   0  0  0  0  0  0  0  0  0  0  0  0
    2.5107   -0.0360   -1.1854 C   0  0  0  0  0  0  0  0  0  0  0  0
   -0.3558    1.0273   -1.3697 C   0  0  0  0  0  0  0  0  0  0  0  0
   -0.4982    0.5978   -2.6444 N   0  0  0  0  0  0  0  0  0  0  0  0
   -0.7572    1.7009   -3.4188 C   0  0  0  0  0  0  0  0  0  0  0  0
   -0.7655    2.8514   -2.6079 C   0  0  2  0  0  0  0  0  0  0  0  0
   -0.5198    2.4087   -1.3143 N   0  0  0  0  0  0  0  0  0  0  0  0
   -0.4735    3.2483   -0.1329 C   0  0  0  0  0  0  0  0  0  0  0  0
   -0.9887    4.2810   -2.9568 C   0  0  2  0  0  0  0  0  0  0  0  0
   -0.2465    4.9609   -2.4555 H   0  0  0  0  0  0  0  0  0  0  0  0
   -2.2041    4.7180   -2.3814 O   0  0  0  0  0  0  0  0  0  0  0  0
   -0.9614    4.5067   -4.4470 C   0  0  0  0  0  0  0  0  0  0  0  0
    0.1644    4.1128   -5.1744 C   0  0  0  0  0  0  0  0  0  0  0  0
    0.2069    4.3148   -6.5507 C   0  0  0  0  0  0  0  0  0  0  0  0
   -0.8686    4.9198   -7.2013 C   0  0  0  0  0  0  0  0  0  0  0  0
   -1.9817    5.3297   -6.4712 C   0  0  0  0  0  0  0  0  0  0  0  0
   -2.0288    5.1266   -5.0922 C   0  0  0  0  0  0  0  0  0  0  0  0
    1.8643    0.0263    2.1696 H   0  0  0  0  0  0  0  0  0  0  0  0
    4.3311   -0.0380    2.2379 H   0  0  0  0  0  0  0  0  0  0  0  0
    5.6448   -0.0808    0.1343 H   0  0  0  0  0  0  0  0  0  0  0  0
    4.4776   -0.0836   -2.0594 H   0  0  0  0  0  0  0  0  0  0  0  0
    2.0087   -0.0539   -2.1583 H   0  0  0  0  0  0  0  0  0  0  0  0
   -0.9150    1.6218   -4.4790 H   0  0  0  0  0  0  0  0  0  0  0  0
   -0.9647    2.7572    0.7294 H   0  0  0  0  0  0  0  0  0  0  0  0
   -1.0059    4.2066   -0.3063 H   0  0  0  0  0  0  0  0  0  0  0  0
    0.5730    3.4731    0.1487 H   0  0  0  0  0  0  0  0  0  0  0  0
   -2.9482    4.1377   -2.6526 H   0  0  0  0  0  0  0  0  0  0  0  0
    1.0052    3.6411   -4.6666 H   0  0  0  0  0  0  0  0  0  0  0  0
    1.0790    3.9981   -7.1192 H   0  0  0  0  0  0  0  0  0  0  0  0
   -0.8356    5.0726   -8.2776 H   0  0  0  0  0  0  0  0  0  0  0  0
   -2.8173    5.8110   -6.9750 H   0  0  0  0  0  0  0  0  0  0  0  0
   -2.8958    5.4643   -4.5242 H   0  0  0  0  0  0  0  0  0  0  0  0
  2  1  1  0  0  0  0
  2  3  2  0  0  0  0
  3  4  1  0  0  0  0
  3 23  1  0  0  0  0
  4 24  1  0  0  0  0
  5 25  1  0  0  0  0
  5  4  2  0  0  0  0
  6  5  1  0  0  0  0
  7  6  2  0  0  0  0
  7  2  1  0  0  0  0
  8 12  1  0  0  0  0
  8  1  1  0  0  0  0
  9  8  2  0  0  0  0
 10  9  2  0  0  0  0
 10 11  1  0  0  0  0
 11 14  1  1  0  0  0
 11 12  1  0  0  0  0
 12 13  1  0  0  0  0
 13 31  1  0  0  0  0
 13 29  1  0  0  0  0
 14 15  1  1  0  0  0
 14 16  1  0  0  0  0
 17 14  1  0  0  0  0
 18 33  1  0  0  0  0
 18 17  2  0  0  0  0
 19 18  1  0  0  0  0
 20 19  2  0  0  0  0
 20 21  1  0  0  0  0
 21 22  2  0  0  0  0
 22 37  1  0  0  0  0
 22 17  1  0  0  0  0
 26  6  1  0  0  0  0
 27  7  1  0  0  0  0
 28 10  1  0  0  0  0
 30 13  1  0  0  0  0
 32 16  1  0  0  0  0
 34 19  1  0  0  0  0
 35 20  1  0  0  0  0
 36 21  1  0  0  0  0
M  RAD  1  11   2
M  END
$$$$
