
     RDKit          3D

 30 31  0  0  0  0  0  0  0  0999 V2000
    0.0242    0.0743   -0.0295 N   0  0  0  0  0  0  0  0  0  0  0  0
    1.2393    0.2226   -0.0083 O   0  0  0  0  0  0  0  0  0  0  0  0
   -0.6421   -0.0374   -1.0502 O   0  0  0  0  0  0  0  0  0  0  0  0
   -0.6781    0.0290    1.2497 C   0  0  0  0  0  0  0  0  0  0  0  0
   -2.0648   -0.1460    1.2741 C   0  0  0  0  0  0  0  0  0  0  0  0
   -2.7353   -0.1915    2.4866 C   0  0  0  0  0  0  0  0  0  0  0  0
   -2.0325   -0.0560    3.7148 C   0  0  0  0  0  0  0  0  0  0  0  0
   -2.6795   -0.0833    4.9286 N   0  0  0  0  0  0  0  0  0  0  0  0
   -4.1409    0.0299    5.0871 C   0  0  2  0  0  0  0  0  0  0  0  0
   -4.5574    0.6085    4.2476 H   0  0  0  0  0  0  0  0  0  0  0  0
   -4.2938    0.7813    6.4184 C   0  0  0  0  0  0  0  0  0  0  0  0
   -3.0759    0.3203    7.2280 C   0  0  0  0  0  0  0  0  0  0  0  0
   -1.9726    0.2359    6.1715 C   0  0  0  0  0  0  0  0  0  0  0  0
   -4.8315   -1.3418    5.1288 C   0  0  0  0  0  0  0  0  0  0  0  0
   -4.6166   -2.1258    3.9821 O   0  0  0  0  0  0  0  0  0  0  0  0
   -0.6227    0.1105    3.6553 C   0  0  0  0  0  0  0  0  0  0  0  0
    0.0432    0.1517    2.4387 C   0  0  0  0  0  0  0  0  0  0  0  0
   -2.6006   -0.2519    0.3314 H   0  0  0  0  0  0  0  0  0  0  0  0
   -3.8064   -0.3798    2.4909 H   0  0  0  0  0  0  0  0  0  0  0  0
   -4.2443    1.8671    6.2410 H   0  0  0  0  0  0  0  0  0  0  0  0
   -5.2530    0.5682    6.9134 H   0  0  0  0  0  0  0  0  0  0  0  0
   -2.8133    1.0050    8.0467 H   0  0  0  0  0  0  0  0  0  0  0  0
   -3.2598   -0.6702    7.6724 H   0  0  0  0  0  0  0  0  0  0  0  0
   -1.4436    1.2031    6.0733 H   0  0  0  0  0  0  0  0  0  0  0  0
   -1.2135   -0.5266    6.4109 H   0  0  0  0  0  0  0  0  0  0  0  0
   -5.9193   -1.1803    5.2015 H   0  0  0  0  0  0  0  0  0  0  0  0
   -4.5192   -1.8751    6.0494 H   0  0  0  0  0  0  0  0  0  0  0  0
   -3.6723   -2.3277    3.9269 H   0  0  0  0  0  0  0  0  0  0  0  0
   -0.0416    0.2067    4.5706 H   0  0  0  0  0  0  0  0  0  0  0  0
    1.1238    0.2812    2.3902 H   0  0  0  0  0  0  0  0  0  0  0  0
  1  2  1  0
  1  3  2  0
  1  4  1  0
  4  5  2  0
  4 17  1  0
  5  6  1  0
  5 18  1  0
  6  7  2  0
  6 19  1  0
  7  8  1  0
  7 16  1  0
  8  9  1  0
  8 13  1  0
  9 10  1  6
  9 11  1  0
  9 14  1  0
 11 12  1  0
 11 20  1  0
 11 21  1  0
 12 13  1  0
 12 22  1  0
 12 23  1  0
 13 24  1  0
 13 25  1  0
 14 15  1  0
 14 26  1  0
 14 27  1  0
 15 28  1  0
 16 17  2  0
 16 29  1  0
 17 30  1  0
M  CHG  2   1   1   2  -1
M  END

