30

N          0.02420        0.07430       -0.02950
O          1.23930        0.22260       -0.00830
O         -0.64210       -0.03740       -1.05020
C         -0.67810        0.02900        1.24970
C         -2.06480       -0.14600        1.27410
C         -2.73530       -0.19150        2.48660
C         -2.03250       -0.05600        3.71480
N         -2.67950       -0.08330        4.92860
C         -4.14090        0.02990        5.08710
H         -4.55740        0.60850        4.24760
C         -4.29380        0.78130        6.41840
C         -3.07590        0.32030        7.22800
C         -1.97260        0.23590        6.17150
C         -4.83150       -1.34180        5.12880
O         -4.61660       -2.12580        3.98210
C         -0.62270        0.11050        3.65530
C          0.04320        0.15170        2.43870
H         -2.60060       -0.25190        0.33140
H         -3.80640       -0.37980        2.49090
H         -4.24430        1.86710        6.24100
H         -5.25300        0.56820        6.91340
H         -2.81330        1.00500        8.04670
H         -3.25980       -0.67020        7.67240
H         -1.44360        1.20310        6.07330
H         -1.21350       -0.52660        6.41090
H         -5.91930       -1.18030        5.20150
H         -4.51920       -1.87510        6.04940
H         -3.67230       -2.32770        3.92690
H         -0.04160        0.20670        4.57060
H          1.12380        0.28120        2.39020
