rmsd2.gzmat
 OpenBabel08211713393D

 30 31  0  0  1  0  0  0  0  0999 V2000
    0.0000    0.0000    0.0000 N   0  0  0  0  0  0  0  0  0  0  0  0
    1.2231    0.0000    0.0000 O   0  0  0  0  0  0  0  0  0  0  0  0
   -0.6657    0.0000   -1.0262 O   0  0  0  0  0  0  0  0  0  0  0  0
   -0.6868   -0.0020    1.2644 C   0  0  0  0  0  0  0  0  0  0  0  0
   -2.0892   -0.0233    1.2938 C   0  0  0  0  0  0  0  0  0  0  0  0
   -2.7537   -0.0416    2.5030 C   0  0  0  0  0  0  0  0  0  0  0  0
   -2.0245   -0.0392    3.7231 C   0  0  0  0  0  0  0  0  0  0  0  0
   -2.6887   -0.0071    4.9204 N   0  0  0  0  0  0  0  0  0  0  0  0
   -2.0189   -0.2008    6.2199 C   0  0  2  0  0  0  0  0  0  0  0  0
   -1.0907   -0.8132    6.1114 H   0  0  0  0  0  0  0  0  0  0  0  0
   -3.0402   -0.9305    7.1152 C   0  0  0  0  0  0  0  0  0  0  0  0
   -4.4132   -0.6394    6.4925 C   0  0  0  0  0  0  0  0  0  0  0  0
   -4.1339   -0.3035    5.0147 C   0  0  0  0  0  0  0  0  0  0  0  0
   -1.6686    1.1934    6.7998 C   0  0  0  0  0  0  0  0  0  0  0  0
   -1.0530    1.0288    8.0554 O   0  0  0  0  0  0  0  0  0  0  0  0
   -0.6058    0.0047    3.6735 C   0  0  0  0  0  0  0  0  0  0  0  0
    0.0490    0.0180    2.4577 C   0  0  0  0  0  0  0  0  0  0  0  0
   -2.6507   -0.0276    0.3517 H   0  0  0  0  0  0  0  0  0  0  0  0
   -3.8389   -0.0486    2.5147 H   0  0  0  0  0  0  0  0  0  0  0  0
   -2.8361   -2.0146    7.1392 H   0  0  0  0  0  0  0  0  0  0  0  0
   -2.9745   -0.5798    8.1619 H   0  0  0  0  0  0  0  0  0  0  0  0
   -5.0956   -1.4989    6.5898 H   0  0  0  0  0  0  0  0  0  0  0  0
   -4.9050    0.2073    7.0030 H   0  0  0  0  0  0  0  0  0  0  0  0
   -4.4082   -1.1548    4.3540 H   0  0  0  0  0  0  0  0  0  0  0  0
   -4.7089    0.5872    4.6812 H   0  0  0  0  0  0  0  0  0  0  0  0
   -2.5762    1.7812    7.0342 H   0  0  0  0  0  0  0  0  0  0  0  0
   -1.0234    1.7752    6.1210 H   0  0  0  0  0  0  0  0  0  0  0  0
   -0.1501    0.6655    7.9618 H   0  0  0  0  0  0  0  0  0  0  0  0
   -0.0251    0.0289    4.5894 H   0  0  0  0  0  0  0  0  0  0  0  0
    1.1450    0.0416    2.4175 H   0  0  0  0  0  0  0  0  0  0  0  0
  1  4  1  0  0  0  0
  2  1  2  0  0  0  0
  3  1  2  0  0  0  0
  4  5  2  0  0  0  0
  4 17  1  0  0  0  0
  5  6  1  0  0  0  0
  6 19  1  0  0  0  0
  6  7  2  0  0  0  0
  7  8  1  0  0  0  0
  8 13  1  0  0  0  0
  8  9  1  0  0  0  0
  9 10  1  6  0  0  0
  9 14  1  0  0  0  0
  9 11  1  0  0  0  0
 11 20  1  0  0  0  0
 11 21  1  0  0  0  0
 12 22  1  0  0  0  0
 12 23  1  0  0  0  0
 12 11  1  0  0  0  0
 13 12  1  0  0  0  0
 14 26  1  0  0  0  0
 14 15  1  0  0  0  0
 16  7  1  0  0  0  0
 16 29  1  0  0  0  0
 17 16  2  0  0  0  0
 18  5  1  0  0  0  0
 24 13  1  0  0  0  0
 25 13  1  0  0  0  0
 27 14  1  0  0  0  0
 28 15  1  0  0  0  0
 30 17  1  0  0  0  0
M  END
$$$$
