
     RDKit          3D

 30 31  0  0  0  0  0  0  0  0999 V2000
    0.0193   -0.0672    0.0145 N   0  0  0  0  0  0  0  0  0  0  0  0
    1.2363    0.0641    0.0300 O   0  0  0  0  0  0  0  0  0  0  0  0
   -0.6481   -0.2206   -1.0002 O   0  0  0  0  0  0  0  0  0  0  0  0
   -0.6841   -0.0388    1.2933 C   0  0  0  0  0  0  0  0  0  0  0  0
   -2.0739   -0.1815    1.3222 C   0  0  0  0  0  0  0  0  0  0  0  0
   -2.7443   -0.1584    2.5354 C   0  0  0  0  0  0  0  0  0  0  0  0
   -2.0408    0.0099    3.7588 C   0  0  0  0  0  0  0  0  0  0  0  0
   -2.6894    0.0337    4.9665 N   0  0  0  0  0  0  0  0  0  0  0  0
   -4.1541    0.0354    5.1138 C   0  0  2  0  0  0  0  0  0  0  0  0
   -4.6149    0.6383    4.3124 H   0  0  0  0  0  0  0  0  0  0  0  0
   -4.3646    0.7092    6.4812 C   0  0  0  0  0  0  0  0  0  0  0  0
   -3.1054    0.3454    7.2746 C   0  0  0  0  0  0  0  0  0  0  0  0
   -2.0039    0.3827    6.2126 C   0  0  0  0  0  0  0  0  0  0  0  0
   -4.7269   -1.3888    5.0296 C   0  0  0  0  0  0  0  0  0  0  0  0
   -4.1365   -2.2720    5.9557 O   0  0  0  0  0  0  0  0  0  0  0  0
   -0.6289    0.1592    3.6927 C   0  0  0  0  0  0  0  0  0  0  0  0
    0.0377    0.1325    2.4770 C   0  0  0  0  0  0  0  0  0  0  0  0
   -2.6107   -0.3095    0.3829 H   0  0  0  0  0  0  0  0  0  0  0  0
   -3.8262   -0.2748    2.5348 H   0  0  0  0  0  0  0  0  0  0  0  0
   -4.4282    1.8008    6.3446 H   0  0  0  0  0  0  0  0  0  0  0  0
   -5.2925    0.3768    6.9678 H   0  0  0  0  0  0  0  0  0  0  0  0
   -2.8995    1.0341    8.1063 H   0  0  0  0  0  0  0  0  0  0  0  0
   -3.2081   -0.6710    7.6777 H   0  0  0  0  0  0  0  0  0  0  0  0
   -1.5496    1.3891    6.1312 H   0  0  0  0  0  0  0  0  0  0  0  0
   -1.1869   -0.3247    6.4314 H   0  0  0  0  0  0  0  0  0  0  0  0
   -4.6275   -1.7697    3.9953 H   0  0  0  0  0  0  0  0  0  0  0  0
   -5.8038   -1.3526    5.2590 H   0  0  0  0  0  0  0  0  0  0  0  0
   -3.2034   -2.3531    5.7135 H   0  0  0  0  0  0  0  0  0  0  0  0
   -0.0502    0.2971    4.6044 H   0  0  0  0  0  0  0  0  0  0  0  0
    1.1199    0.2459    2.4233 H   0  0  0  0  0  0  0  0  0  0  0  0
  1  2  1  0
  1  3  2  0
  1  4  1  0
  4  5  2  0
  4 17  1  0
  5  6  1  0
  5 18  1  0
  6  7  2  0
  6 19  1  0
  7  8  1  0
  7 16  1  0
  8  9  1  0
  8 13  1  0
  9 10  1  6
  9 11  1  0
  9 14  1  0
 11 12  1  0
 11 20  1  0
 11 21  1  0
 12 13  1  0
 12 22  1  0
 12 23  1  0
 13 24  1  0
 13 25  1  0
 14 15  1  0
 14 26  1  0
 14 27  1  0
 15 28  1  0
 16 17  2  0
 16 29  1  0
 17 30  1  0
M  CHG  2   1   1   2  -1
M  END

