rmsd1.gzmat
 OpenBabel08211713393D

 30 31  0  0  1  0  0  0  0  0999 V2000
    0.0000    0.0000    0.0000 N   0  0  0  0  0  0  0  0  0  0  0  0
    1.2234    0.0000    0.0000 O   0  0  0  0  0  0  0  0  0  0  0  0
   -0.6659    0.0000   -1.0262 O   0  0  0  0  0  0  0  0  0  0  0  0
   -0.6867   -0.0002    1.2637 C   0  0  0  0  0  0  0  0  0  0  0  0
   -2.0894   -0.0119    1.2926 C   0  0  0  0  0  0  0  0  0  0  0  0
   -2.7551   -0.0160    2.5011 C   0  0  0  0  0  0  0  0  0  0  0  0
   -2.0267   -0.0055    3.7222 C   0  0  0  0  0  0  0  0  0  0  0  0
   -2.6858    0.0545    4.9186 N   0  0  0  0  0  0  0  0  0  0  0  0
   -2.0179   -0.0930    6.2245 C   0  0  2  0  0  0  0  0  0  0  0  0
   -1.1302   -0.7675    6.1490 H   0  0  0  0  0  0  0  0  0  0  0  0
   -3.0758   -0.6981    7.1691 C   0  0  0  0  0  0  0  0  0  0  0  0
   -4.4315   -0.3589    6.5321 C   0  0  0  0  0  0  0  0  0  0  0  0
   -4.1418   -0.1678    5.0307 C   0  0  0  0  0  0  0  0  0  0  0  0
   -1.5779    1.3100    6.7146 C   0  0  0  0  0  0  0  0  0  0  0  0
   -0.9351    1.1799    7.9600 O   0  0  0  0  0  0  0  0  0  0  0  0
   -0.6065    0.0112    3.6723 C   0  0  0  0  0  0  0  0  0  0  0  0
    0.0488    0.0120    2.4574 C   0  0  0  0  0  0  0  0  0  0  0  0
   -2.6493   -0.0188    0.3493 H   0  0  0  0  0  0  0  0  0  0  0  0
   -3.8399   -0.0186    2.5104 H   0  0  0  0  0  0  0  0  0  0  0  0
   -2.9416   -1.7892    7.2617 H   0  0  0  0  0  0  0  0  0  0  0  0
   -2.9808   -0.2870    8.1912 H   0  0  0  0  0  0  0  0  0  0  0  0
   -5.1735   -1.1545    6.7038 H   0  0  0  0  0  0  0  0  0  0  0  0
   -4.8538    0.5607    6.9742 H   0  0  0  0  0  0  0  0  0  0  0  0
   -4.4489   -1.0638    4.4487 H   0  0  0  0  0  0  0  0  0  0  0  0
   -4.6803    0.7110    4.6150 H   0  0  0  0  0  0  0  0  0  0  0  0
   -2.4454    1.9589    6.9382 H   0  0  0  0  0  0  0  0  0  0  0  0
   -0.9224    1.8177    5.9879 H   0  0  0  0  0  0  0  0  0  0  0  0
   -0.0590    0.7562    7.8621 H   0  0  0  0  0  0  0  0  0  0  0  0
   -0.0260    0.0242    4.5880 H   0  0  0  0  0  0  0  0  0  0  0  0
    1.1449    0.0215    2.4180 H   0  0  0  0  0  0  0  0  0  0  0  0
  1  4  1  0  0  0  0
  2  1  2  0  0  0  0
  3  1  2  0  0  0  0
  4  5  2  0  0  0  0
  4 17  1  0  0  0  0
  5  6  1  0  0  0  0
  6 19  1  0  0  0  0
  6  7  2  0  0  0  0
  7  8  1  0  0  0  0
  8 13  1  0  0  0  0
  8  9  1  0  0  0  0
  9 10  1  6  0  0  0
  9 14  1  0  0  0  0
  9 11  1  0  0  0  0
 11 20  1  0  0  0  0
 11 21  1  0  0  0  0
 12 22  1  0  0  0  0
 12 23  1  0  0  0  0
 12 11  1  0  0  0  0
 13 12  1  0  0  0  0
 14 26  1  0  0  0  0
 14 15  1  0  0  0  0
 16  7  1  0  0  0  0
 16 29  1  0  0  0  0
 17 16  2  0  0  0  0
 18  5  1  0  0  0  0
 24 13  1  0  0  0  0
 25 13  1  0  0  0  0
 27 14  1  0  0  0  0
 28 15  1  0  0  0  0
 30 17  1  0  0  0  0
M  END
$$$$
