30
rmsd7.gzmat
N          0.00000        0.00000        0.00000
O          1.22280        0.00000        0.00000
O         -0.66730        0.00000       -1.02520
C         -0.68550        0.00290        1.26580
C         -2.08670       -0.01760        1.29840
C         -2.74810       -0.01270        2.51050
C         -2.01600        0.01830        3.72730
N         -2.67900        0.12570        4.92480
C         -2.01220       -0.03300        6.23380
H         -1.07220       -0.63230        6.13790
C         -3.03360       -0.75280        7.13870
C         -4.40530       -0.45810        6.51400
C         -4.12430       -0.16960        5.02660
C         -1.66900        1.36780        6.79600
O         -0.56720        1.90590        6.10660
C         -0.59800        0.03700        3.67250
C          0.05500        0.02830        2.45640
H         -2.65130       -0.03710        0.35830
H         -3.83320       -0.02100        2.52210
H         -2.83500       -1.83970        7.15720
H         -2.97640       -0.41450        8.18500
H         -5.09940       -1.30490        6.63700
H         -4.88230        0.40980        7.00180
H         -4.39860       -1.04280        4.39510
H         -4.69900        0.70900        4.66160
H         -1.30680        1.30640        7.83940
H         -2.52830        2.05770        6.73580
H         -0.80700        2.10780        5.17490
H         -0.01180        0.05900        4.59100
H          1.15180        0.04220        2.41310
