30
rmsd2.gzmat
N          0.00000        0.00000        0.00000
O          1.22310        0.00000        0.00000
O         -0.66570        0.00000       -1.02620
C         -0.68680       -0.00200        1.26440
C         -2.08920       -0.02330        1.29380
C         -2.75370       -0.04160        2.50300
C         -2.02450       -0.03920        3.72310
N         -2.68870       -0.00710        4.92040
C         -2.01890       -0.20080        6.21990
H         -1.09070       -0.81320        6.11140
C         -3.04020       -0.93050        7.11520
C         -4.41320       -0.63940        6.49250
C         -4.13390       -0.30350        5.01470
C         -1.66860        1.19340        6.79980
O         -1.05300        1.02880        8.05540
C         -0.60580        0.00470        3.67350
C          0.04900        0.01800        2.45770
H         -2.65070       -0.02760        0.35170
H         -3.83890       -0.04860        2.51470
H         -2.83610       -2.01460        7.13920
H         -2.97450       -0.57980        8.16190
H         -5.09560       -1.49890        6.58980
H         -4.90500        0.20730        7.00300
H         -4.40820       -1.15480        4.35400
H         -4.70890        0.58720        4.68120
H         -2.57620        1.78120        7.03420
H         -1.02340        1.77520        6.12100
H         -0.15010        0.66550        7.96180
H         -0.02510        0.02890        4.58940
H          1.14500        0.04160        2.41750
