30
rmsd17.gzmat
N          0.00000        0.00000        0.00000
O          1.22300        0.00000        0.00000
O         -0.66670        0.00000       -1.02550
C         -0.68650        0.00090        1.26540
C         -2.08630        0.06590        1.29800
C         -2.74880        0.06440        2.50990
C         -2.02140       -0.01190        3.72630
N         -2.66600       -0.11820        4.93380
C         -4.13240       -0.00340        5.06650
H         -4.52510        0.79210        4.38280
C         -4.41280        0.37190        6.53630
C         -3.05440        0.61520        7.21030
C         -1.97500        0.18290        6.20230
C         -4.78230       -1.36210        4.70600
O         -4.50410       -2.33510        5.68480
C         -0.60260       -0.06500        3.67270
C          0.05070       -0.06100        2.45660
H         -2.64900        0.12160        0.35790
H         -3.83170        0.13180        2.51900
H         -5.05790        1.26330        6.60020
H         -4.96380       -0.44170        7.05060
H         -2.93420        1.67750        7.48520
H         -2.96990        0.04490        8.15170
H         -1.21630        0.98420        6.06550
H         -1.44020       -0.73150        6.54300
H         -4.43710       -1.73560        3.72420
H         -5.88600       -1.29570        4.71470
H         -3.53430       -2.39250        5.82700
H         -0.02100       -0.12770        4.58700
H          1.14580       -0.10890        2.41450
