rmsd18.gzmat
 OpenBabel08211713393D

 30 31  0  0  1  0  0  0  0  0999 V2000
    0.0000    0.0000    0.0000 N   0  0  0  0  0  0  0  0  0  0  0  0
    1.2230    0.0000    0.0000 O   0  0  0  0  0  0  0  0  0  0  0  0
   -0.6670    0.0000   -1.0251 O   0  0  0  0  0  0  0  0  0  0  0  0
   -0.6862    0.0002    1.2653 C   0  0  0  0  0  0  0  0  0  0  0  0
   -2.0847   -0.0907    1.3002 C   0  0  0  0  0  0  0  0  0  0  0  0
   -2.7461   -0.0902    2.5128 C   0  0  0  0  0  0  0  0  0  0  0  0
   -2.0171    0.0059    3.7273 C   0  0  0  0  0  0  0  0  0  0  0  0
   -2.6525   -0.0716    4.9410 N   0  0  0  0  0  0  0  0  0  0  0  0
   -4.1220    0.0028    5.0802 C   0  0  2  0  0  0  0  0  0  0  0  0
   -4.5626    0.6586    4.2874 H   0  0  0  0  0  0  0  0  0  0  0  0
   -4.3880    0.6003    6.4775 C   0  0  0  0  0  0  0  0  0  0  0  0
   -3.0687    0.4756    7.2551 C   0  0  0  0  0  0  0  0  0  0  0  0
   -1.9679    0.3142    6.1920 C   0  0  0  0  0  0  0  0  0  0  0  0
   -4.7131   -1.4228    4.9559 C   0  0  0  0  0  0  0  0  0  0  0  0
   -4.4049   -2.2026    6.0873 O   0  0  0  0  0  0  0  0  0  0  0  0
   -0.6008    0.0995    3.6713 C   0  0  0  0  0  0  0  0  0  0  0  0
    0.0513    0.0921    2.4548 C   0  0  0  0  0  0  0  0  0  0  0  0
   -2.6466   -0.1617    0.3606 H   0  0  0  0  0  0  0  0  0  0  0  0
   -3.8288   -0.1638    2.5251 H   0  0  0  0  0  0  0  0  0  0  0  0
   -4.7047    1.6542    6.3994 H   0  0  0  0  0  0  0  0  0  0  0  0
   -5.2052    0.0625    6.9938 H   0  0  0  0  0  0  0  0  0  0  0  0
   -2.8885    1.3547    7.8948 H   0  0  0  0  0  0  0  0  0  0  0  0
   -3.0992   -0.3984    7.9317 H   0  0  0  0  0  0  0  0  0  0  0  0
   -1.3988    1.2605    6.0575 H   0  0  0  0  0  0  0  0  0  0  0  0
   -1.2418   -0.4803    6.4703 H   0  0  0  0  0  0  0  0  0  0  0  0
   -4.3423   -1.9403    4.0516 H   0  0  0  0  0  0  0  0  0  0  0  0
   -5.8188   -1.4029    4.9507 H   0  0  0  0  0  0  0  0  0  0  0  0
   -3.4336   -2.2080    6.2289 H   0  0  0  0  0  0  0  0  0  0  0  0
   -0.0186    0.1654    4.5847 H   0  0  0  0  0  0  0  0  0  0  0  0
    1.1451    0.1583    2.4105 H   0  0  0  0  0  0  0  0  0  0  0  0
  1  4  1  0  0  0  0
  2  1  2  0  0  0  0
  3  1  2  0  0  0  0
  4  5  2  0  0  0  0
  4 17  1  0  0  0  0
  5  6  1  0  0  0  0
  6 19  1  0  0  0  0
  6  7  2  0  0  0  0
  7  8  1  0  0  0  0
  8  9  1  0  0  0  0
  8 13  1  0  0  0  0
  9 10  1  6  0  0  0
  9 11  1  0  0  0  0
 11 21  1  0  0  0  0
 11 12  1  0  0  0  0
 12 22  1  0  0  0  0
 12 23  1  0  0  0  0
 13 25  1  0  0  0  0
 13 12  1  0  0  0  0
 14  9  1  0  0  0  0
 14 15  1  0  0  0  0
 15 28  1  0  0  0  0
 16  7  1  0  0  0  0
 16 29  1  0  0  0  0
 17 16  2  0  0  0  0
 18  5  1  0  0  0  0
 20 11  1  0  0  0  0
 24 13  1  0  0  0  0
 26 14  1  0  0  0  0
 27 14  1  0  0  0  0
 30 17  1  0  0  0  0
M  END
$$$$
