rmsd9.gzmat
 OpenBabel08211713393D

 30 31  0  0  1  0  0  0  0  0999 V2000
    0.0000    0.0000    0.0000 N   0  0  0  0  0  0  0  0  0  0  0  0
    1.2226    0.0000    0.0000 O   0  0  0  0  0  0  0  0  0  0  0  0
   -0.6671    0.0000   -1.0253 O   0  0  0  0  0  0  0  0  0  0  0  0
   -0.6874    0.0018    1.2649 C   0  0  0  0  0  0  0  0  0  0  0  0
   -2.0889    0.0024    1.2935 C   0  0  0  0  0  0  0  0  0  0  0  0
   -2.7536   -0.0027    2.5038 C   0  0  0  0  0  0  0  0  0  0  0  0
   -2.0257   -0.0065    3.7235 C   0  0  0  0  0  0  0  0  0  0  0  0
   -2.6921    0.0751    4.9214 N   0  0  0  0  0  0  0  0  0  0  0  0
   -2.0353   -0.1316    6.2285 C   0  0  2  0  0  0  0  0  0  0  0  0
   -1.0981   -0.7324    6.1198 H   0  0  0  0  0  0  0  0  0  0  0  0
   -3.0695   -0.8725    7.1022 C   0  0  0  0  0  0  0  0  0  0  0  0
   -4.4345   -0.5367    6.4834 C   0  0  0  0  0  0  0  0  0  0  0  0
   -4.1425   -0.2007    5.0081 C   0  0  0  0  0  0  0  0  0  0  0  0
   -1.6906    1.2474    6.8414 C   0  0  0  0  0  0  0  0  0  0  0  0
   -0.5982    1.8182    6.1640 O   0  0  0  0  0  0  0  0  0  0  0  0
   -0.6075    0.0031    3.6728 C   0  0  0  0  0  0  0  0  0  0  0  0
    0.0490    0.0048    2.4582 C   0  0  0  0  0  0  0  0  0  0  0  0
   -2.6508    0.0069    0.3516 H   0  0  0  0  0  0  0  0  0  0  0  0
   -3.8385    0.0066    2.5121 H   0  0  0  0  0  0  0  0  0  0  0  0
   -2.8851   -1.9618    7.0805 H   0  0  0  0  0  0  0  0  0  0  0  0
   -3.0112   -0.5743    8.1606 H   0  0  0  0  0  0  0  0  0  0  0  0
   -5.1432   -1.3758    6.5738 H   0  0  0  0  0  0  0  0  0  0  0  0
   -4.9018    0.3207    6.9988 H   0  0  0  0  0  0  0  0  0  0  0  0
   -4.4284   -1.0459    4.3443 H   0  0  0  0  0  0  0  0  0  0  0  0
   -4.7012    0.6999    4.6735 H   0  0  0  0  0  0  0  0  0  0  0  0
   -1.3193    1.1459    7.8785 H   0  0  0  0  0  0  0  0  0  0  0  0
   -2.5525    1.9359    6.8157 H   0  0  0  0  0  0  0  0  0  0  0  0
   -0.8443    2.0403    5.2385 H   0  0  0  0  0  0  0  0  0  0  0  0
   -0.0226    0.0103    4.5921 H   0  0  0  0  0  0  0  0  0  0  0  0
    1.1460    0.0085    2.4197 H   0  0  0  0  0  0  0  0  0  0  0  0
  1  4  1  0  0  0  0
  2  1  2  0  0  0  0
  3  1  2  0  0  0  0
  4  5  2  0  0  0  0
  4 17  1  0  0  0  0
  5  6  1  0  0  0  0
  6 19  1  0  0  0  0
  6  7  2  0  0  0  0
  7  8  1  0  0  0  0
  8 13  1  0  0  0  0
  8  9  1  0  0  0  0
  9 10  1  6  0  0  0
  9 14  1  0  0  0  0
  9 11  1  0  0  0  0
 11 21  1  0  0  0  0
 12 22  1  0  0  0  0
 12 23  1  0  0  0  0
 12 11  1  0  0  0  0
 13 12  1  0  0  0  0
 14 26  1  0  0  0  0
 15 14  1  0  0  0  0
 16  7  1  0  0  0  0
 16 29  1  0  0  0  0
 17 16  2  0  0  0  0
 18  5  1  0  0  0  0
 20 11  1  0  0  0  0
 24 13  1  0  0  0  0
 25 13  1  0  0  0  0
 27 14  1  0  0  0  0
 28 15  1  0  0  0  0
 30 17  1  0  0  0  0
M  END
$$$$
