
     RDKit          3D

 30 31  0  0  0  0  0  0  0  0999 V2000
    0.0123   -0.0091   -0.0347 N   0  0  0  0  0  0  0  0  0  0  0  0
    1.2360    0.0178   -0.0258 O   0  0  0  0  0  0  0  0  0  0  0  0
   -0.6724   -0.0403   -1.0491 O   0  0  0  0  0  0  0  0  0  0  0  0
   -0.6776   -0.0049    1.2520 C   0  0  0  0  0  0  0  0  0  0  0  0
   -2.0729   -0.0338    1.2881 C   0  0  0  0  0  0  0  0  0  0  0  0
   -2.7303   -0.0317    2.5100 C   0  0  0  0  0  0  0  0  0  0  0  0
   -2.0066    0.0005    3.7323 C   0  0  0  0  0  0  0  0  0  0  0  0
   -2.6728   -0.0094    4.9360 N   0  0  0  0  0  0  0  0  0  0  0  0
   -2.0237   -0.2584    6.2360 C   0  0  2  0  0  0  0  0  0  0  0  0
   -1.1348   -0.8915    6.0872 H   0  0  0  0  0  0  0  0  0  0  0  0
   -3.1096   -0.9932    7.0369 C   0  0  0  0  0  0  0  0  0  0  0  0
   -4.4145   -0.4010    6.4917 C   0  0  0  0  0  0  0  0  0  0  0  0
   -4.1192   -0.2336    4.9999 C   0  0  0  0  0  0  0  0  0  0  0  0
   -1.5904    1.0416    6.9306 C   0  0  0  0  0  0  0  0  0  0  0  0
   -0.6913    1.8190    6.1803 O   0  0  0  0  0  0  0  0  0  0  0  0
   -0.5875    0.0430    3.6603 C   0  0  0  0  0  0  0  0  0  0  0  0
    0.0636    0.0372    2.4365 C   0  0  0  0  0  0  0  0  0  0  0  0
   -2.6253   -0.0604    0.3494 H   0  0  0  0  0  0  0  0  0  0  0  0
   -3.8185   -0.0531    2.5160 H   0  0  0  0  0  0  0  0  0  0  0  0
   -3.0631   -2.0727    6.8239 H   0  0  0  0  0  0  0  0  0  0  0  0
   -2.9913   -0.8628    8.1230 H   0  0  0  0  0  0  0  0  0  0  0  0
   -5.2906   -1.0400    6.6708 H   0  0  0  0  0  0  0  0  0  0  0  0
   -4.6187    0.5766    6.9556 H   0  0  0  0  0  0  0  0  0  0  0  0
   -4.3899   -1.1477    4.4377 H   0  0  0  0  0  0  0  0  0  0  0  0
   -4.6772    0.6028    4.5483 H   0  0  0  0  0  0  0  0  0  0  0  0
   -1.0742    0.7785    7.8682 H   0  0  0  0  0  0  0  0  0  0  0  0
   -2.4943    1.6209    7.2080 H   0  0  0  0  0  0  0  0  0  0  0  0
   -1.1417    2.1084    5.3748 H   0  0  0  0  0  0  0  0  0  0  0  0
    0.0008    0.1280    4.5711 H   0  0  0  0  0  0  0  0  0  0  0  0
    1.1509    0.0721    2.3783 H   0  0  0  0  0  0  0  0  0  0  0  0
  1  2  1  0
  1  3  2  0
  1  4  1  0
  4  5  2  0
  4 17  1  0
  5  6  1  0
  5 18  1  0
  6  7  2  0
  6 19  1  0
  7  8  1  0
  7 16  1  0
  8  9  1  0
  8 13  1  0
  9 10  1  6
  9 11  1  0
  9 14  1  0
 11 12  1  0
 11 20  1  0
 11 21  1  0
 12 13  1  0
 12 22  1  0
 12 23  1  0
 13 24  1  0
 13 25  1  0
 14 15  1  0
 14 26  1  0
 14 27  1  0
 15 28  1  0
 16 17  2  0
 16 29  1  0
 17 30  1  0
M  CHG  2   1   1   2  -1
M  END

