rmsd170.gzmat
 OpenBabel08211713413D

 40 42  0  0  0  0  0  0  0  0999 V2000
    0.0000    0.0000    0.0000 O   0  0  0  0  0  0  0  0  0  0  0  0
    1.3628    0.0000    0.0000 C   0  0  0  0  0  0  0  0  0  0  0  0
    2.1676    0.0000    1.1225 C   0  0  0  0  0  0  0  0  0  0  0  0
    3.5546   -0.0161    0.9182 C   0  0  0  0  0  0  0  0  0  0  0  0
    4.6835   -0.0222    1.8051 C   0  0  0  0  0  0  0  0  0  0  0  0
    5.8268   -0.0512    1.0158 C   0  0  0  0  0  0  0  0  0  0  0  0
    5.4681   -0.0618   -0.3301 N   0  0  0  0  0  0  0  0  0  0  0  0
    6.0911   -0.0519   -1.1016 H   0  0  0  0  0  0  0  0  0  0  0  0
    4.0744   -0.0318   -0.4142 C   0  0  0  0  0  0  0  0  0  0  0  0
    3.2377   -0.0208   -1.5420 C   0  0  0  0  0  0  0  0  0  0  0  0
    1.8790   -0.0039   -1.3280 C   0  0  0  0  0  0  0  0  0  0  0  0
    4.6265    0.0457    3.2793 C   0  0  0  0  0  0  0  0  0  0  0  0
    4.8113    1.5014    3.7670 C   0  0  0  0  0  0  0  0  0  0  0  0
    3.7560    2.3632    3.2251 N   0  0  0  0  0  0  0  0  0  0  0  0
    3.1011    3.2676    4.0315 C   0  0  0  0  0  0  0  0  0  0  0  0
    3.4247    3.4167    5.1938 O   0  0  0  0  0  0  0  0  0  0  0  0
    2.0057    4.0508    3.3528 C   0  0  0  0  0  0  0  0  0  0  0  0
    0.7301    3.2143    3.0484 C   0  0  0  0  0  0  0  0  0  0  0  0
   -0.0974    4.1310    3.9877 C   0  0  0  0  0  0  0  0  0  0  0  0
    1.1810    4.9431    4.3204 C   0  0  0  0  0  0  0  0  0  0  0  0
   -0.6435   -0.0038    1.2657 C   0  0  0  0  0  0  0  0  0  0  0  0
    1.7739   -0.0033    2.1313 H   0  0  0  0  0  0  0  0  0  0  0  0
    6.8569   -0.0658    1.3181 H   0  0  0  0  0  0  0  0  0  0  0  0
    3.6547   -0.0266   -2.5450 H   0  0  0  0  0  0  0  0  0  0  0  0
    1.1730    0.0015   -2.1569 H   0  0  0  0  0  0  0  0  0  0  0  0
    5.4074   -0.5934    3.7401 H   0  0  0  0  0  0  0  0  0  0  0  0
    3.6608   -0.3551    3.6539 H   0  0  0  0  0  0  0  0  0  0  0  0
    5.8008    1.8924    3.4386 H   0  0  0  0  0  0  0  0  0  0  0  0
    4.7985    1.5413    4.8821 H   0  0  0  0  0  0  0  0  0  0  0  0
    3.4823    2.1835    2.2705 H   0  0  0  0  0  0  0  0  0  0  0  0
    2.3982    4.5999    2.4803 H   0  0  0  0  0  0  0  0  0  0  0  0
    0.7866    2.1729    3.3767 H   0  0  0  0  0  0  0  0  0  0  0  0
    0.4209    3.2346    2.0009 H   0  0  0  0  0  0  0  0  0  0  0  0
   -0.8812    4.7029    3.4874 H   0  0  0  0  0  0  0  0  0  0  0  0
   -0.5410    3.6196    4.8452 H   0  0  0  0  0  0  0  0  0  0  0  0
    1.1454    5.9981    4.0445 H   0  0  0  0  0  0  0  0  0  0  0  0
    1.5031    4.8762    5.3681 H   0  0  0  0  0  0  0  0  0  0  0  0
   -1.7055   -0.0123    0.9869 H   0  0  0  0  0  0  0  0  0  0  0  0
   -0.4037    0.9036    1.8289 H   0  0  0  0  0  0  0  0  0  0  0  0
   -0.3906   -0.9059    1.8317 H   0  0  0  0  0  0  0  0  0  0  0  0
  1 21  1  0  0  0  0
  2  1  1  0  0  0  0
  2  3  2  0  0  0  0
  3 22  1  0  0  0  0
  4  3  1  0  0  0  0
  4  5  1  0  0  0  0
  5 12  1  0  0  0  0
  6 23  1  0  0  0  0
  6  5  2  0  0  0  0
  7  6  1  0  0  0  0
  8  7  1  0  0  0  0
  9  7  1  0  0  0  0
  9  4  2  0  0  0  0
 10 11  2  0  0  0  0
 10  9  1  0  0  0  0
 11  2  1  0  0  0  0
 12 27  1  0  0  0  0
 12 26  1  0  0  0  0
 12 13  1  0  0  0  0
 13 29  1  0  0  0  0
 14 13  1  0  0  0  0
 14 15  1  0  0  0  0
 15 16  2  0  0  0  0
 17 15  1  0  0  0  0
 17 20  1  0  0  0  0
 18 17  1  0  0  0  0
 18 32  1  0  0  0  0
 18 19  1  0  0  0  0
 19 20  1  0  0  0  0
 19 35  1  0  0  0  0
 20 37  1  0  0  0  0
 21 39  1  0  0  0  0
 21 40  1  0  0  0  0
 24 10  1  0  0  0  0
 25 11  1  0  0  0  0
 28 13  1  0  0  0  0
 30 14  1  0  0  0  0
 31 17  1  0  0  0  0
 33 18  1  0  0  0  0
 34 19  1  0  0  0  0
 36 20  1  0  0  0  0
 38 21  1  0  0  0  0
M  END
$$$$
