rmsd151.gzmat
 OpenBabel08211713413D

 40 42  0  0  0  0  0  0  0  0999 V2000
    0.0000    0.0000    0.0000 O   0  0  0  0  0  0  0  0  0  0  0  0
    1.3631    0.0000    0.0000 C   0  0  0  0  0  0  0  0  0  0  0  0
    2.1620    0.0000    1.1263 C   0  0  0  0  0  0  0  0  0  0  0  0
    3.5483   -0.0267    0.9289 C   0  0  0  0  0  0  0  0  0  0  0  0
    4.6674   -0.0670    1.8282 C   0  0  0  0  0  0  0  0  0  0  0  0
    5.8181   -0.0876    1.0517 C   0  0  0  0  0  0  0  0  0  0  0  0
    5.4722   -0.0903   -0.2996 N   0  0  0  0  0  0  0  0  0  0  0  0
    6.1030   -0.0498   -1.0632 H   0  0  0  0  0  0  0  0  0  0  0  0
    4.0793   -0.0413   -0.3974 C   0  0  0  0  0  0  0  0  0  0  0  0
    3.2479   -0.0350   -1.5292 C   0  0  0  0  0  0  0  0  0  0  0  0
    1.8873   -0.0151   -1.3224 C   0  0  0  0  0  0  0  0  0  0  0  0
    4.5638   -0.1427    3.2980 C   0  0  0  0  0  0  0  0  0  0  0  0
    4.8022   -1.5878    3.8062 C   0  0  0  0  0  0  0  0  0  0  0  0
    4.1970   -2.6032    2.9384 N   0  0  0  0  0  0  0  0  0  0  0  0
    2.8641   -2.9515    3.1193 C   0  0  0  0  0  0  0  0  0  0  0  0
    2.2486   -2.5794    4.0980 O   0  0  0  0  0  0  0  0  0  0  0  0
    2.3029   -3.9141    2.1049 C   0  0  0  0  0  0  0  0  0  0  0  0
    0.7531   -3.8716    1.9908 C   0  0  0  0  0  0  0  0  0  0  0  0
    0.8701   -3.4944    0.4922 C   0  0  0  0  0  0  0  0  0  0  0  0
    2.4166   -3.4955    0.6126 C   0  0  0  0  0  0  0  0  0  0  0  0
   -0.6388    0.0312    1.2692 C   0  0  0  0  0  0  0  0  0  0  0  0
    1.7631    0.0070    2.1355 H   0  0  0  0  0  0  0  0  0  0  0  0
    6.8450   -0.1083    1.3629 H   0  0  0  0  0  0  0  0  0  0  0  0
    3.6693   -0.0459   -2.5296 H   0  0  0  0  0  0  0  0  0  0  0  0
    1.1867   -0.0113   -2.1556 H   0  0  0  0  0  0  0  0  0  0  0  0
    3.5569    0.1951    3.6298 H   0  0  0  0  0  0  0  0  0  0  0  0
    5.2815    0.5439    3.7894 H   0  0  0  0  0  0  0  0  0  0  0  0
    4.3876   -1.6932    4.8366 H   0  0  0  0  0  0  0  0  0  0  0  0
    5.8929   -1.7969    3.8631 H   0  0  0  0  0  0  0  0  0  0  0  0
    4.6109   -2.6799    2.0195 H   0  0  0  0  0  0  0  0  0  0  0  0
    2.6973   -4.9272    2.3073 H   0  0  0  0  0  0  0  0  0  0  0  0
    0.2823   -3.1110    2.6237 H   0  0  0  0  0  0  0  0  0  0  0  0
    0.2616   -4.8262    2.1900 H   0  0  0  0  0  0  0  0  0  0  0  0
    0.4687   -4.2381   -0.1987 H   0  0  0  0  0  0  0  0  0  0  0  0
    0.4408   -2.5217    0.2295 H   0  0  0  0  0  0  0  0  0  0  0  0
    2.9253   -4.2217   -0.0232 H   0  0  0  0  0  0  0  0  0  0  0  0
    2.8704   -2.5136    0.4396 H   0  0  0  0  0  0  0  0  0  0  0  0
   -1.7014    0.0133    0.9952 H   0  0  0  0  0  0  0  0  0  0  0  0
   -0.3947    0.9538    1.8055 H   0  0  0  0  0  0  0  0  0  0  0  0
   -0.3803   -0.8529    1.8627 H   0  0  0  0  0  0  0  0  0  0  0  0
  1 21  1  0  0  0  0
  2  1  1  0  0  0  0
  2  3  2  0  0  0  0
  3 22  1  0  0  0  0
  4  3  1  0  0  0  0
  4  5  1  0  0  0  0
  5 12  1  0  0  0  0
  6 23  1  0  0  0  0
  6  5  2  0  0  0  0
  7  6  1  0  0  0  0
  8  7  1  0  0  0  0
  9  7  1  0  0  0  0
  9  4  2  0  0  0  0
 10 11  2  0  0  0  0
 10  9  1  0  0  0  0
 11  2  1  0  0  0  0
 12 26  1  0  0  0  0
 12 27  1  0  0  0  0
 12 13  1  0  0  0  0
 13 29  1  0  0  0  0
 13 28  1  0  0  0  0
 14 15  1  0  0  0  0
 14 13  1  0  0  0  0
 15 16  2  0  0  0  0
 17 31  1  0  0  0  0
 17 15  1  0  0  0  0
 18 17  1  0  0  0  0
 18 33  1  0  0  0  0
 18 32  1  0  0  0  0
 19 20  1  0  0  0  0
 19 18  1  0  0  0  0
 20 17  1  0  0  0  0
 21 39  1  0  0  0  0
 21 40  1  0  0  0  0
 24 10  1  0  0  0  0
 25 11  1  0  0  0  0
 30 14  1  0  0  0  0
 34 19  1  0  0  0  0
 35 19  1  0  0  0  0
 36 20  1  0  0  0  0
 37 20  1  0  0  0  0
 38 21  1  0  0  0  0
M  END
$$$$
