40
rmsd145.gzmat
O          0.00000        0.00000        0.00000
C          1.36270        0.00000        0.00000
C          2.16790        0.00000        1.12210
C          3.55470        0.01610        0.91690
C          4.68520        0.02220        1.80170
C          5.82740        0.05210        1.01060
N          5.46630        0.06220       -0.33460
H          6.08710        0.06320       -1.10730
C          4.07260        0.03380       -0.41590
C          3.23510        0.02340       -1.54320
C          1.87680        0.00340       -1.32750
C          4.63220       -0.04330        3.27600
C          4.83380       -1.49630        3.76640
N          3.77620       -2.36760        3.24530
C          3.05580       -3.18490        4.08960
O          3.33650       -3.26560        5.26970
C          1.94990       -3.97010        3.42970
C          1.11140       -4.82450        4.41980
C         -0.14960       -3.98720        4.08330
C          0.68860       -3.11720        3.10980
C         -0.64400        0.04880        1.26460
H          1.77390        0.00170        2.13090
H          6.85810        0.06760        1.31100
H          3.65110        0.03240       -2.54630
H          1.17020       -0.00360       -2.15540
H          3.66300        0.34720        3.65230
H          5.40710        0.60580        3.73320
H          4.84100       -1.53080        4.88150
H          5.81910       -1.88320        3.42170
H          3.52380       -2.22500        2.27860
H          2.33020       -4.54570        2.56960
H          1.44380       -4.74830        5.46340
H          1.04620       -5.88250        4.16160
H         -0.95630       -4.54990        3.60980
H         -0.56630       -3.44250        4.93380
H          0.37060       -3.16560        2.06550
H          0.76890       -2.06720        3.40350
H         -1.70550        0.06800        0.98430
H         -0.37640        0.96130        1.80680
H         -0.42030       -0.84750        1.85160
