40
rmsd151.gzmat
O          0.00000        0.00000        0.00000
C          1.36310        0.00000        0.00000
C          2.16200        0.00000        1.12630
C          3.54830       -0.02670        0.92890
C          4.66740       -0.06700        1.82820
C          5.81810       -0.08760        1.05170
N          5.47220       -0.09030       -0.29960
H          6.10300       -0.04980       -1.06320
C          4.07930       -0.04130       -0.39740
C          3.24790       -0.03500       -1.52920
C          1.88730       -0.01510       -1.32240
C          4.56380       -0.14270        3.29800
C          4.80220       -1.58780        3.80620
N          4.19700       -2.60320        2.93840
C          2.86410       -2.95150        3.11930
O          2.24860       -2.57940        4.09800
C          2.30290       -3.91410        2.10490
C          0.75310       -3.87160        1.99080
C          0.87010       -3.49440        0.49220
C          2.41660       -3.49550        0.61260
C         -0.63880        0.03120        1.26920
H          1.76310        0.00700        2.13550
H          6.84500       -0.10830        1.36290
H          3.66930       -0.04590       -2.52960
H          1.18670       -0.01130       -2.15560
H          3.55690        0.19510        3.62980
H          5.28150        0.54390        3.78940
H          4.38760       -1.69320        4.83660
H          5.89290       -1.79690        3.86310
H          4.61090       -2.67990        2.01950
H          2.69730       -4.92720        2.30730
H          0.28230       -3.11100        2.62370
H          0.26160       -4.82620        2.19000
H          0.46870       -4.23810       -0.19870
H          0.44080       -2.52170        0.22950
H          2.92530       -4.22170       -0.02320
H          2.87040       -2.51360        0.43960
H         -1.70140        0.01330        0.99520
H         -0.39470        0.95380        1.80550
H         -0.38030       -0.85290        1.86270
