40
rmsd146.gzmat
O          0.00000        0.00000        0.00000
C          1.35950        0.00000        0.00000
C          2.15820        0.00000        1.12760
C          3.54570       -0.01910        0.93780
C          4.66810       -0.06180        1.83310
C          5.81800       -0.06860        1.05260
N          5.47030       -0.03630       -0.29520
H          6.09890       -0.03900       -1.06120
C          4.07610       -0.01040       -0.38950
C          3.24890        0.01120       -1.52420
C          1.88790        0.01270       -1.32250
C          4.60180       -0.11140        3.30690
C          4.34410       -1.55810        3.79970
N          2.99870       -2.02050        3.46150
C          1.87790       -1.70960        4.21380
O          0.78440       -1.89610        3.70930
C          2.05010       -1.19930        5.61870
C          0.71580       -1.10200        6.41200
C          1.24760       -2.12960        7.44360
C          2.56530       -2.25900        6.63500
C         -0.64230       -0.17060        1.25850
H          1.74420        0.01350        2.13020
H          6.84530       -0.09120        1.36170
H          3.67500        0.02400       -2.52260
H          1.18890        0.02330       -2.15710
H          3.80120        0.56340        3.67780
H          5.54010        0.26700        3.76050
H          4.51120       -1.62580        4.89560
H          5.07710       -2.25110        3.32360
H          2.85120       -2.23970        2.47660
H          2.62670       -0.25870        5.62730
H         -0.16270       -1.44200        5.84700
H          0.50000       -0.11140        6.81480
H          1.37190       -1.73790        8.45480
H          0.66350       -3.05140        7.50500
H          3.46380       -1.96320        7.17960
H          2.73220       -3.25250        6.20720
H         -1.69710       -0.25840        0.97120
H         -0.48290        0.70550        1.89310
H         -0.30480       -1.08730        1.76230
