
     RDKit          3D

 40 42  0  0  0  0  0  0  0  0999 V2000
   -0.2433   -0.3202    0.8714 O   0  0  0  0  0  0  0  0  0  0  0  0
    1.0885   -0.3123    0.5789 C   0  0  0  0  0  0  0  0  0  0  0  0
    2.0886   -0.1687    1.5364 C   0  0  0  0  0  0  0  0  0  0  0  0
    3.4327   -0.2086    1.1154 C   0  0  0  0  0  0  0  0  0  0  0  0
    4.6792   -0.1408    1.8371 C   0  0  0  0  0  0  0  0  0  0  0  0
    5.6783   -0.2444    0.8905 C   0  0  0  0  0  0  0  0  0  0  0  0
    5.1219   -0.3802   -0.3683 N   0  0  0  0  0  0  0  0  0  0  0  0
    5.6412   -0.4384   -1.2326 H   0  0  0  0  0  0  0  0  0  0  0  0
    3.7443   -0.3672   -0.2612 C   0  0  0  0  0  0  0  0  0  0  0  0
    2.7334   -0.5100   -1.2237 C   0  0  0  0  0  0  0  0  0  0  0  0
    1.4138   -0.4851   -0.7915 C   0  0  0  0  0  0  0  0  0  0  0  0
    4.7953   -0.1066    3.3311 C   0  0  0  0  0  0  0  0  0  0  0  0
    4.9428   -1.5148    3.9630 C   0  0  0  0  0  0  0  0  0  0  0  0
    4.1500   -2.5501    3.3278 N   0  0  0  0  0  0  0  0  0  0  0  0
    2.7981   -2.6562    3.4808 C   0  0  0  0  0  0  0  0  0  0  0  0
    2.1643   -1.9575    4.2599 O   0  0  0  0  0  0  0  0  0  0  0  0
    2.1615   -3.7391    2.6262 C   0  0  0  0  0  0  0  0  0  0  0  0
    0.6619   -3.6075    2.2840 C   0  0  0  0  0  0  0  0  0  0  0  0
    0.9770   -4.0483    0.8320 C   0  0  0  0  0  0  0  0  0  0  0  0
    2.4827   -3.7982    1.1022 C   0  0  0  0  0  0  0  0  0  0  0  0
   -0.6398    0.0499    2.1753 C   0  0  0  0  0  0  0  0  0  0  0  0
    1.8555   -0.0773    2.5948 H   0  0  0  0  0  0  0  0  0  0  0  0
    6.7595   -0.2303    1.0190 H   0  0  0  0  0  0  0  0  0  0  0  0
    2.9676   -0.6412   -2.2827 H   0  0  0  0  0  0  0  0  0  0  0  0
    0.5895   -0.5933   -1.4984 H   0  0  0  0  0  0  0  0  0  0  0  0
    3.8951    0.3698    3.7463 H   0  0  0  0  0  0  0  0  0  0  0  0
    5.6548    0.5044    3.6526 H   0  0  0  0  0  0  0  0  0  0  0  0
    4.6633   -1.4679    5.0262 H   0  0  0  0  0  0  0  0  0  0  0  0
    5.9949   -1.8354    3.9073 H   0  0  0  0  0  0  0  0  0  0  0  0
    4.5622   -3.0271    2.5358 H   0  0  0  0  0  0  0  0  0  0  0  0
    2.3781   -4.7083    3.1079 H   0  0  0  0  0  0  0  0  0  0  0  0
    0.3328   -2.5636    2.3361 H   0  0  0  0  0  0  0  0  0  0  0  0
   -0.0378   -4.2251    2.8653 H   0  0  0  0  0  0  0  0  0  0  0  0
    0.7530   -5.1112    0.6526 H   0  0  0  0  0  0  0  0  0  0  0  0
    0.5221   -3.4489    0.0304 H   0  0  0  0  0  0  0  0  0  0  0  0
    3.1897   -4.5743    0.7694 H   0  0  0  0  0  0  0  0  0  0  0  0
    2.8129   -2.8248    0.7149 H   0  0  0  0  0  0  0  0  0  0  0  0
   -1.7377    0.0257    2.1874 H   0  0  0  0  0  0  0  0  0  0  0  0
   -0.2943    1.0695    2.4250 H   0  0  0  0  0  0  0  0  0  0  0  0
   -0.2551   -0.6462    2.9405 H   0  0  0  0  0  0  0  0  0  0  0  0
  1  2  1  0
  1 21  1  0
  2  3  2  0
  2 11  1  0
  3  4  1  0
  3 22  1  0
  4  5  1  0
  4  9  2  0
  5  6  2  0
  5 12  1  0
  6  7  1  0
  6 23  1  0
  7  8  1  0
  7  9  1  0
  9 10  1  0
 10 11  2  0
 10 24  1  0
 11 25  1  0
 12 13  1  0
 12 26  1  0
 12 27  1  0
 13 14  1  0
 13 28  1  0
 13 29  1  0
 14 15  1  0
 14 30  1  0
 15 16  2  0
 15 17  1  0
 17 18  1  0
 17 20  1  0
 17 31  1  0
 18 19  1  0
 18 32  1  0
 18 33  1  0
 19 20  1  0
 19 34  1  0
 19 35  1  0
 20 36  1  0
 20 37  1  0
 21 38  1  0
 21 39  1  0
 21 40  1  0
M  END

