rmsd193.gzmat
 OpenBabel08211713413D

 40 42  0  0  0  0  0  0  0  0999 V2000
    0.0000    0.0000    0.0000 O   0  0  0  0  0  0  0  0  0  0  0  0
    1.3627    0.0000    0.0000 C   0  0  0  0  0  0  0  0  0  0  0  0
    2.1679    0.0000    1.1221 C   0  0  0  0  0  0  0  0  0  0  0  0
    3.5546   -0.0222    0.9167 C   0  0  0  0  0  0  0  0  0  0  0  0
    4.6849   -0.0419    1.8016 C   0  0  0  0  0  0  0  0  0  0  0  0
    5.8270   -0.0750    1.0106 C   0  0  0  0  0  0  0  0  0  0  0  0
    5.4660   -0.0774   -0.3348 N   0  0  0  0  0  0  0  0  0  0  0  0
    6.0877   -0.0733   -1.1072 H   0  0  0  0  0  0  0  0  0  0  0  0
    4.0726   -0.0398   -0.4163 C   0  0  0  0  0  0  0  0  0  0  0  0
    3.2350   -0.0284   -1.5435 C   0  0  0  0  0  0  0  0  0  0  0  0
    1.8768   -0.0061   -1.3278 C   0  0  0  0  0  0  0  0  0  0  0  0
    4.6298    0.0004    3.2766 C   0  0  0  0  0  0  0  0  0  0  0  0
    4.8605    1.4384    3.7971 C   0  0  0  0  0  0  0  0  0  0  0  0
    3.8416    2.3521    3.2724 N   0  0  0  0  0  0  0  0  0  0  0  0
    3.0422    3.0813    4.1283 C   0  0  0  0  0  0  0  0  0  0  0  0
    3.2342    3.0639    5.3282 O   0  0  0  0  0  0  0  0  0  0  0  0
    1.9779    3.9128    3.4579 C   0  0  0  0  0  0  0  0  0  0  0  0
    0.7111    3.0994    3.0648 C   0  0  0  0  0  0  0  0  0  0  0  0
   -0.1456    3.9663    4.0253 C   0  0  0  0  0  0  0  0  0  0  0  0
    1.1228    4.7523    4.4471 C   0  0  0  0  0  0  0  0  0  0  0  0
   -0.6447   -0.0479    1.2643 C   0  0  0  0  0  0  0  0  0  0  0  0
    1.7739    0.0029    2.1310 H   0  0  0  0  0  0  0  0  0  0  0  0
    6.8577   -0.0992    1.3107 H   0  0  0  0  0  0  0  0  0  0  0  0
    3.6504   -0.0414   -2.5469 H   0  0  0  0  0  0  0  0  0  0  0  0
    1.1704   -0.0001   -2.1559 H   0  0  0  0  0  0  0  0  0  0  0  0
    5.3887   -0.6741    3.7235 H   0  0  0  0  0  0  0  0  0  0  0  0
    3.6511   -0.3760    3.6431 H   0  0  0  0  0  0  0  0  0  0  0  0
    5.8629    1.8042    3.4790 H   0  0  0  0  0  0  0  0  0  0  0  0
    4.8456    1.4505    4.9129 H   0  0  0  0  0  0  0  0  0  0  0  0
    3.6399    2.2638    2.2875 H   0  0  0  0  0  0  0  0  0  0  0  0
    2.3975    4.5099    2.6313 H   0  0  0  0  0  0  0  0  0  0  0  0
    0.7547    2.0412    3.3369 H   0  0  0  0  0  0  0  0  0  0  0  0
    0.4373    3.1784    2.0098 H   0  0  0  0  0  0  0  0  0  0  0  0
   -0.9091    4.5706    3.5318 H   0  0  0  0  0  0  0  0  0  0  0  0
   -0.6208    3.4097    4.8362 H   0  0  0  0  0  0  0  0  0  0  0  0
    1.0986    5.8212    4.2308 H   0  0  0  0  0  0  0  0  0  0  0  0
    1.4079    4.6239    5.4995 H   0  0  0  0  0  0  0  0  0  0  0  0
   -1.7033   -0.1232    0.9821 H   0  0  0  0  0  0  0  0  0  0  0  0
   -0.4634    0.8741    1.8256 H   0  0  0  0  0  0  0  0  0  0  0  0
   -0.3389   -0.9312    1.8339 H   0  0  0  0  0  0  0  0  0  0  0  0
  1 21  1  0  0  0  0
  2  1  1  0  0  0  0
  2  3  2  0  0  0  0
  3 22  1  0  0  0  0
  4  3  1  0  0  0  0
  4  5  1  0  0  0  0
  5 12  1  0  0  0  0
  6 23  1  0  0  0  0
  6  5  2  0  0  0  0
  7  6  1  0  0  0  0
  8  7  1  0  0  0  0
  9  7  1  0  0  0  0
  9  4  2  0  0  0  0
 10 11  2  0  0  0  0
 10  9  1  0  0  0  0
 11  2  1  0  0  0  0
 12 27  1  0  0  0  0
 12 26  1  0  0  0  0
 12 13  1  0  0  0  0
 13 29  1  0  0  0  0
 14 13  1  0  0  0  0
 14 15  1  0  0  0  0
 15 16  2  0  0  0  0
 17 15  1  0  0  0  0
 17 20  1  0  0  0  0
 18 32  1  0  0  0  0
 18 17  1  0  0  0  0
 18 19  1  0  0  0  0
 19 20  1  0  0  0  0
 19 35  1  0  0  0  0
 20 37  1  0  0  0  0
 21 39  1  0  0  0  0
 21 40  1  0  0  0  0
 24 10  1  0  0  0  0
 25 11  1  0  0  0  0
 28 13  1  0  0  0  0
 30 14  1  0  0  0  0
 31 17  1  0  0  0  0
 33 18  1  0  0  0  0
 34 19  1  0  0  0  0
 36 20  1  0  0  0  0
 38 21  1  0  0  0  0
M  END
$$$$
