40
rmsd170.gzmat
O          0.00000        0.00000        0.00000
C          1.36280        0.00000        0.00000
C          2.16760        0.00000        1.12250
C          3.55460       -0.01610        0.91820
C          4.68350       -0.02220        1.80510
C          5.82680       -0.05120        1.01580
N          5.46810       -0.06180       -0.33010
H          6.09110       -0.05190       -1.10160
C          4.07440       -0.03180       -0.41420
C          3.23770       -0.02080       -1.54200
C          1.87900       -0.00390       -1.32800
C          4.62650        0.04570        3.27930
C          4.81130        1.50140        3.76700
N          3.75600        2.36320        3.22510
C          3.10110        3.26760        4.03150
O          3.42470        3.41670        5.19380
C          2.00570        4.05080        3.35280
C          0.73010        3.21430        3.04840
C         -0.09740        4.13100        3.98770
C          1.18100        4.94310        4.32040
C         -0.64350       -0.00380        1.26570
H          1.77390       -0.00330        2.13130
H          6.85690       -0.06580        1.31810
H          3.65470       -0.02660       -2.54500
H          1.17300        0.00150       -2.15690
H          5.40740       -0.59340        3.74010
H          3.66080       -0.35510        3.65390
H          5.80080        1.89240        3.43860
H          4.79850        1.54130        4.88210
H          3.48230        2.18350        2.27050
H          2.39820        4.59990        2.48030
H          0.78660        2.17290        3.37670
H          0.42090        3.23460        2.00090
H         -0.88120        4.70290        3.48740
H         -0.54100        3.61960        4.84520
H          1.14540        5.99810        4.04450
H          1.50310        4.87620        5.36810
H         -1.70550       -0.01230        0.98690
H         -0.40370        0.90360        1.82890
H         -0.39060       -0.90590        1.83170
