40
rmsd70.gzmat
O          0.00000        0.00000        0.00000
C          1.36290        0.00000        0.00000
C          2.16770        0.00000        1.12250
C          3.55480       -0.01720        0.91770
C          4.68460       -0.02800        1.80310
C          5.82740       -0.05860        1.01270
N          5.46730       -0.06560       -0.33280
H          6.08940       -0.05990       -1.10510
C          4.07360       -0.03350       -0.41490
C          3.23670       -0.02230       -1.54260
C          1.87830       -0.00290       -1.32760
C          4.63060        0.02970        3.27750
C          4.86460        1.47380        3.77850
N          3.83270        2.37610        3.25920
C          3.09570        3.16870        4.11330
O          3.34220        3.20130        5.30330
C          2.02350        3.99890        3.45310
C          0.77200        3.18150        3.02250
C         -0.10510        4.00170        4.00480
C          1.14650        4.79900        4.45520
C         -0.64340       -0.01260        1.26590
H          1.77400       -0.00210        2.13140
H          6.85790       -0.07760        1.31360
H          3.65420       -0.03180       -2.54530
H          1.17210        0.00430       -2.15600
H          5.38880       -0.64070        3.73170
H          3.65210       -0.34130        3.64960
H          5.86050        1.83940        3.44100
H          4.86710        1.49920        4.89410
H          3.59850        2.26230        2.28420
H          2.44740        4.62380        2.64920
H          0.82930        2.11490        3.25580
H          0.50560        3.29470        1.96870
H         -0.87940        4.60550        3.52700
H         -0.57190        3.41120        4.79680
H          1.10430        5.87220        4.26290
H          1.42780        4.65290        5.50620
H         -1.70500       -0.02950        0.98650
H         -0.41160        0.89600        1.82980
H         -0.38280       -0.91330        1.83040
