40

O         -0.07020        0.17400        0.65410
C          1.27290        0.25850        0.43190
C          2.23410        0.04280        1.41590
C          3.59380        0.17900        1.06950
C          4.81140        0.05530        1.83390
C          5.84580        0.29330        0.95160
N          5.33940        0.56230       -0.30630
H          5.89280        0.73200       -1.13410
C          3.95930        0.50370       -0.26390
C          2.98780        0.71960       -1.25300
C          1.65240        0.59830       -0.89260
C          4.87040       -0.14910        3.31810
C          4.85290        1.18560        4.10500
N          3.93990        2.17320        3.56200
C          2.59190        2.12690        3.76820
O          2.07130        1.35340        4.56140
C          1.80550        3.15680        2.97860
C          0.27340        2.98810        2.89880
C          0.11620        4.50990        3.14130
C          1.57270        4.53870        3.66510
C         -0.50620       -0.40380        1.86640
H          1.95460       -0.19770        2.43950
H          6.92040        0.29050        1.12760
H          3.26440        0.97390       -2.27900
H          0.85700        0.75390       -1.62350
H          5.77240       -0.71190        3.60900
H          4.00460       -0.75120        3.63310
H          5.86040        1.63070        4.10170
H          4.56860        0.99660        5.15020
H          4.25930        2.69340        2.75410
H          2.25000        3.28350        1.97860
H         -0.07440        2.39600        3.75760
H         -0.13390        2.56210        1.97110
H          0.01020        5.06940        2.19880
H         -0.67600        4.83670        3.83170
H          2.22190        5.37170        3.35520
H          1.61700        4.44320        4.76070
H         -1.60320       -0.43290        1.82310
H         -0.19630        0.18610        2.74470
H         -0.11840       -1.43230        1.98030
