38
rmsd127.gzmat
C          0.00000        0.00000        0.00000
C          1.50980        0.00000        0.00000
O          2.28560        0.00000        0.90960
N          1.88450       -0.09040       -1.36780
C          3.26370        0.02940       -1.83420
C          3.61490        1.48270       -2.16670
C          0.76420       -0.13070       -2.23900
O          0.83740       -0.19550       -3.43590
C         -0.42650       -0.10090       -1.36470
C         -1.75300       -0.11060       -1.69440
N         -2.68450       -0.09970       -0.69320
C         -4.11830       -0.02190       -1.04050
C         -4.56010        1.43430       -1.17970
C         -2.32750       -0.03490        0.69500
O         -3.22660       -0.11160        1.50010
C         -0.89640        0.07530        1.00900
C         -0.54070        0.35380        2.38340
N         -0.78440       -0.48690        3.46860
C         -0.30210        0.14380        4.60410
C          0.23000        1.36790        4.17120
N          0.07630        1.48290        2.80700
C         -1.47670       -1.75840        3.43290
H          3.38900       -0.61510       -2.73650
H          3.94270       -0.36470       -1.04050
H          2.98270        1.87210       -2.97450
H          4.65700        1.56960       -2.49180
H          3.48000        2.13820       -1.29660
H         -2.10210       -0.13920       -2.73660
H         -4.70950       -0.52930       -0.23680
H         -4.30400       -0.58970       -1.97830
H         -4.43780        1.98090       -0.23190
H         -5.62060        1.49890       -1.45160
H         -3.98660        1.97370       -1.94230
H         -0.35500       -0.28210        5.58130
H          0.70030        2.14300        4.74420
H         -1.31570       -2.32730        4.36480
H         -1.12010       -2.37640        2.58770
H         -2.56990       -1.60000        3.30350
