38
rmsd10.gzmat
C          0.00000        0.00000        0.00000
C          1.50880        0.00000        0.00000
O          2.28250        0.00000        0.91140
N          1.88310       -0.09130       -1.36710
C          3.26520        0.04370       -1.82220
C          3.71580        1.50710       -1.78980
C          0.76180       -0.13000       -2.23830
O          0.83690       -0.18610       -3.43560
C         -0.42930       -0.11250       -1.36270
C         -1.75790       -0.14400       -1.68430
N         -2.68470       -0.14190       -0.67790
C         -4.12320       -0.10910       -1.01360
C         -4.59260        1.32940       -1.22510
C         -2.32290       -0.04280        0.70700
O         -3.21740       -0.10940        1.51820
C         -0.89230        0.08490        1.01140
C         -0.52980        0.39440        2.37690
N         -0.74400       -0.43090        3.47950
C         -0.26660        0.23240        4.59830
C          0.23150        1.46050        4.13750
N          0.06340        1.54600        2.77300
C         -1.39310       -1.72510        3.46930
H          3.34230       -0.36860       -2.85600
H          3.91530       -0.57820       -1.16140
H          3.06310        2.14290       -2.39960
H          4.73610        1.61370       -2.17220
H          3.70100        1.90590       -0.76560
H         -2.11230       -0.18420       -2.72440
H         -4.69640       -0.58170       -0.17550
H         -4.30870       -0.73130       -1.91580
H         -4.43940        1.93570       -0.31850
H         -5.66480        1.36310       -1.45410
H         -4.05980        1.82670       -2.04380
H         -0.30030       -0.17690        5.58320
H          0.68750        2.25810        4.69020
H         -1.30320       -2.22610        4.44880
H         -0.94310       -2.38400        2.70260
H         -2.47450       -1.61380        3.23650
