rmsd219.gzmat
 OpenBabel08211713383D

 38 40  0  0  0  0  0  0  0  0999 V2000
    0.0000    0.0000    0.0000 C   0  0  0  0  0  0  0  0  0  0  0  0
    1.5091    0.0000    0.0000 C   0  0  0  0  0  0  0  0  0  0  0  0
    2.2830    0.0000    0.9113 O   0  0  0  0  0  0  0  0  0  0  0  0
    1.8837   -0.0925   -1.3670 N   0  0  0  0  0  0  0  0  0  0  0  0
    3.2608    0.0528   -1.8322 C   0  0  0  0  0  0  0  0  0  0  0  0
    3.5920    1.5175   -2.1358 C   0  0  0  0  0  0  0  0  0  0  0  0
    0.7621   -0.1283   -2.2385 C   0  0  0  0  0  0  0  0  0  0  0  0
    0.8361   -0.1841   -3.4357 O   0  0  0  0  0  0  0  0  0  0  0  0
   -0.4283   -0.1047   -1.3636 C   0  0  0  0  0  0  0  0  0  0  0  0
   -1.7559   -0.1186   -1.6891 C   0  0  0  0  0  0  0  0  0  0  0  0
   -2.6854   -0.1080   -0.6855 N   0  0  0  0  0  0  0  0  0  0  0  0
   -4.1196   -0.0352   -1.0337 C   0  0  0  0  0  0  0  0  0  0  0  0
   -4.5280    1.4090   -1.3202 C   0  0  0  0  0  0  0  0  0  0  0  0
   -2.3252   -0.0312    0.7017 C   0  0  0  0  0  0  0  0  0  0  0  0
   -3.2214   -0.1026    1.5103 O   0  0  0  0  0  0  0  0  0  0  0  0
   -0.8933    0.0824    1.0107 C   0  0  0  0  0  0  0  0  0  0  0  0
   -0.5288    0.3806    2.3786 C   0  0  0  0  0  0  0  0  0  0  0  0
   -0.7271   -0.4563    3.4757 N   0  0  0  0  0  0  0  0  0  0  0  0
   -0.2472    0.2016    4.5967 C   0  0  0  0  0  0  0  0  0  0  0  0
    0.2341    1.4392    4.1437 C   0  0  0  0  0  0  0  0  0  0  0  0
    0.0549    1.5350    2.7811 N   0  0  0  0  0  0  0  0  0  0  0  0
   -1.3420   -1.7670    3.4578 C   0  0  0  0  0  0  0  0  0  0  0  0
    3.3938   -0.5737   -2.7460 H   0  0  0  0  0  0  0  0  0  0  0  0
    3.9453   -0.3465   -1.0454 H   0  0  0  0  0  0  0  0  0  0  0  0
    2.9459    1.9194   -2.9266 H   0  0  0  0  0  0  0  0  0  0  0  0
    4.6289    1.6231   -2.4708 H   0  0  0  0  0  0  0  0  0  0  0  0
    3.4610    2.1514   -1.2488 H   0  0  0  0  0  0  0  0  0  0  0  0
   -2.1081   -0.1494   -2.7302 H   0  0  0  0  0  0  0  0  0  0  0  0
   -4.7198   -0.4460   -0.1823 H   0  0  0  0  0  0  0  0  0  0  0  0
   -4.3223   -0.6927   -1.9073 H   0  0  0  0  0  0  0  0  0  0  0  0
   -4.3417    2.0571   -0.4501 H   0  0  0  0  0  0  0  0  0  0  0  0
   -5.5990    1.4774   -1.5466 H   0  0  0  0  0  0  0  0  0  0  0  0
   -3.9811    1.8368   -2.1680 H   0  0  0  0  0  0  0  0  0  0  0  0
   -0.2697   -0.2157    5.5787 H   0  0  0  0  0  0  0  0  0  0  0  0
    0.6862    2.2359    4.7010 H   0  0  0  0  0  0  0  0  0  0  0  0
   -1.3902   -2.2009    4.4719 H   0  0  0  0  0  0  0  0  0  0  0  0
   -0.7692   -2.4600    2.8125 H   0  0  0  0  0  0  0  0  0  0  0  0
   -2.3803   -1.7029    3.0669 H   0  0  0  0  0  0  0  0  0  0  0  0
  1  2  1  0  0  0  0
  1 16  2  0  0  0  0
  2  3  2  0  0  0  0
  4  2  1  0  0  0  0
  5  4  1  0  0  0  0
  5 24  1  0  0  0  0
  6  5  1  0  0  0  0
  6 27  1  0  0  0  0
  7  4  1  0  0  0  0
  7  9  1  0  0  0  0
  8  7  2  0  0  0  0
  9  1  1  0  0  0  0
 10  9  2  0  0  0  0
 10 11  1  0  0  0  0
 11 14  1  0  0  0  0
 12 11  1  0  0  0  0
 12 29  1  0  0  0  0
 13 12  1  0  0  0  0
 13 31  1  0  0  0  0
 14 16  1  0  0  0  0
 14 15  2  0  0  0  0
 16 17  1  0  0  0  0
 17 21  2  0  0  0  0
 17 18  1  0  0  0  0
 18 19  1  0  0  0  0
 19 34  1  0  0  0  0
 20 19  1  0  0  0  0
 20 35  1  0  0  0  0
 21 20  2  0  0  0  0
 22 18  1  0  0  0  0
 22 36  1  0  0  0  0
 23  5  1  0  0  0  0
 25  6  1  0  0  0  0
 26  6  1  0  0  0  0
 28 10  1  0  0  0  0
 30 12  1  0  0  0  0
 32 13  1  0  0  0  0
 33 13  1  0  0  0  0
 37 22  1  0  0  0  0
 38 22  1  0  0  0  0
M  RAD  1  19   2
M  END
$$$$
