rmsd127.gzmat
 OpenBabel08211713383D

 38 40  0  0  0  0  0  0  0  0999 V2000
    0.0000    0.0000    0.0000 C   0  0  0  0  0  0  0  0  0  0  0  0
    1.5098    0.0000    0.0000 C   0  0  0  0  0  0  0  0  0  0  0  0
    2.2856    0.0000    0.9096 O   0  0  0  0  0  0  0  0  0  0  0  0
    1.8845   -0.0904   -1.3678 N   0  0  0  0  0  0  0  0  0  0  0  0
    3.2637    0.0294   -1.8342 C   0  0  0  0  0  0  0  0  0  0  0  0
    3.6149    1.4827   -2.1667 C   0  0  0  0  0  0  0  0  0  0  0  0
    0.7642   -0.1307   -2.2390 C   0  0  0  0  0  0  0  0  0  0  0  0
    0.8374   -0.1955   -3.4359 O   0  0  0  0  0  0  0  0  0  0  0  0
   -0.4265   -0.1009   -1.3647 C   0  0  0  0  0  0  0  0  0  0  0  0
   -1.7530   -0.1106   -1.6944 C   0  0  0  0  0  0  0  0  0  0  0  0
   -2.6845   -0.0997   -0.6932 N   0  0  0  0  0  0  0  0  0  0  0  0
   -4.1183   -0.0219   -1.0405 C   0  0  0  0  0  0  0  0  0  0  0  0
   -4.5601    1.4343   -1.1797 C   0  0  0  0  0  0  0  0  0  0  0  0
   -2.3275   -0.0349    0.6950 C   0  0  0  0  0  0  0  0  0  0  0  0
   -3.2266   -0.1116    1.5001 O   0  0  0  0  0  0  0  0  0  0  0  0
   -0.8964    0.0753    1.0090 C   0  0  0  0  0  0  0  0  0  0  0  0
   -0.5407    0.3538    2.3834 C   0  0  0  0  0  0  0  0  0  0  0  0
   -0.7844   -0.4869    3.4686 N   0  0  0  0  0  0  0  0  0  0  0  0
   -0.3021    0.1438    4.6041 C   0  0  0  0  0  0  0  0  0  0  0  0
    0.2300    1.3679    4.1712 C   0  0  0  0  0  0  0  0  0  0  0  0
    0.0763    1.4829    2.8070 N   0  0  0  0  0  0  0  0  0  0  0  0
   -1.4767   -1.7584    3.4329 C   0  0  0  0  0  0  0  0  0  0  0  0
    3.3890   -0.6151   -2.7365 H   0  0  0  0  0  0  0  0  0  0  0  0
    3.9427   -0.3647   -1.0405 H   0  0  0  0  0  0  0  0  0  0  0  0
    2.9827    1.8721   -2.9745 H   0  0  0  0  0  0  0  0  0  0  0  0
    4.6570    1.5696   -2.4918 H   0  0  0  0  0  0  0  0  0  0  0  0
    3.4800    2.1382   -1.2966 H   0  0  0  0  0  0  0  0  0  0  0  0
   -2.1021   -0.1392   -2.7366 H   0  0  0  0  0  0  0  0  0  0  0  0
   -4.7095   -0.5293   -0.2368 H   0  0  0  0  0  0  0  0  0  0  0  0
   -4.3040   -0.5897   -1.9783 H   0  0  0  0  0  0  0  0  0  0  0  0
   -4.4378    1.9809   -0.2319 H   0  0  0  0  0  0  0  0  0  0  0  0
   -5.6206    1.4989   -1.4516 H   0  0  0  0  0  0  0  0  0  0  0  0
   -3.9866    1.9737   -1.9423 H   0  0  0  0  0  0  0  0  0  0  0  0
   -0.3550   -0.2821    5.5813 H   0  0  0  0  0  0  0  0  0  0  0  0
    0.7003    2.1430    4.7442 H   0  0  0  0  0  0  0  0  0  0  0  0
   -1.3157   -2.3273    4.3648 H   0  0  0  0  0  0  0  0  0  0  0  0
   -1.1201   -2.3764    2.5877 H   0  0  0  0  0  0  0  0  0  0  0  0
   -2.5699   -1.6000    3.3035 H   0  0  0  0  0  0  0  0  0  0  0  0
  1  2  1  0  0  0  0
  1 16  2  0  0  0  0
  2  3  2  0  0  0  0
  4  2  1  0  0  0  0
  5  4  1  0  0  0  0
  5 24  1  0  0  0  0
  6  5  1  0  0  0  0
  6 27  1  0  0  0  0
  7  4  1  0  0  0  0
  7  9  1  0  0  0  0
  8  7  2  0  0  0  0
  9  1  1  0  0  0  0
 10  9  2  0  0  0  0
 10 11  1  0  0  0  0
 11 14  1  0  0  0  0
 12 11  1  0  0  0  0
 12 29  1  0  0  0  0
 13 12  1  0  0  0  0
 13 31  1  0  0  0  0
 14 16  1  0  0  0  0
 14 15  2  0  0  0  0
 16 17  1  0  0  0  0
 17 21  2  0  0  0  0
 17 18  1  0  0  0  0
 18 19  1  0  0  0  0
 19 34  1  0  0  0  0
 20 19  1  0  0  0  0
 20 35  1  0  0  0  0
 21 20  2  0  0  0  0
 22 18  1  0  0  0  0
 22 36  1  0  0  0  0
 23  5  1  0  0  0  0
 25  6  1  0  0  0  0
 26  6  1  0  0  0  0
 28 10  1  0  0  0  0
 30 12  1  0  0  0  0
 32 13  1  0  0  0  0
 33 13  1  0  0  0  0
 37 22  1  0  0  0  0
 38 22  1  0  0  0  0
M  RAD  1  19   2
M  END
$$$$
