38
rmsd13.gzmat
C          0.00000        0.00000        0.00000
C          1.50950        0.00000        0.00000
O          2.28340        0.00000        0.91120
N          1.88410       -0.09320       -1.36720
C          3.26320        0.05820       -1.82600
C          3.71590        1.51850       -1.73540
C          0.76290       -0.14270       -2.23750
O          0.83710       -0.20590       -3.43450
C         -0.42760       -0.12250       -1.36230
C         -1.75500       -0.14880       -1.68830
N         -2.68450       -0.13400       -0.68480
C         -4.12020       -0.07860       -1.02820
C         -4.56380        1.36750       -1.24420
C         -2.32580       -0.03100        0.70070
O         -3.22270       -0.09400        1.50960
C         -0.89510        0.09810        1.00810
C         -0.53640        0.43090        2.36910
N         -0.77160       -0.36490        3.48880
C         -0.29730        0.31880        4.59630
C          0.22300        1.52840        4.11140
N          0.06940        1.58330        2.74370
C         -1.43430       -1.65210        3.50140
H          3.32990       -0.31180       -2.87650
H          3.92040       -0.58980       -1.19820
H          3.10790        2.17040       -2.37310
H          4.76000        1.62590       -2.04620
H          3.63490        1.89630       -0.70590
H         -2.10540       -0.19280       -2.72960
H         -4.70590       -0.54180       -0.19390
H         -4.31030       -0.69810       -1.93150
H         -4.42150        1.96880       -0.33280
H         -5.62940        1.41830       -1.49790
H         -4.00530        1.85940       -2.04890
H         -0.34970       -0.06440        5.59100
H          0.68440        2.33230        4.65060
H         -1.30630       -2.15990        4.47310
H         -1.02560       -2.31030        2.71180
H         -2.52350       -1.52800        3.31610
