38
rmsd14.gzmat
C          0.00000        0.00000        0.00000
C          1.50950        0.00000        0.00000
O          2.28380        0.00000        0.91070
N          1.88400       -0.09060       -1.36780
C          3.26400        0.05130       -1.82690
C          3.73720        1.50350       -1.71350
C          0.76280       -0.14230       -2.23750
O          0.83720       -0.20710       -3.43450
C         -0.42780       -0.12090       -1.36240
C         -1.75530       -0.14380       -1.68770
N         -2.68580       -0.12000       -0.68450
C         -4.11920       -0.05660       -1.03710
C         -4.49660        1.34610       -1.51120
C         -2.32560       -0.02530        0.70100
O         -3.22070       -0.08960        1.51200
C         -0.89470        0.09690        1.00870
C         -0.53180        0.42190        2.37050
N         -0.78660       -0.36550        3.49230
C         -0.29280        0.30780        4.59790
C          0.25860        1.50240        4.11020
N          0.10430        1.55900        2.74260
C         -1.48020       -1.63630        3.51150
H          3.32470       -0.30190       -2.88350
H          3.91340       -0.61540       -1.21070
H          3.13730        2.17530       -2.33810
H          4.78220        1.60160       -2.02480
H          3.66410        1.86520       -0.67750
H         -2.10570       -0.19080       -2.72890
H         -4.72620       -0.33650       -0.13820
H         -4.34040       -0.81930       -1.81590
H         -4.26790        2.10340       -0.74610
H         -5.57190        1.41400       -1.71830
H         -3.96560        1.63600       -2.42500
H         -0.35410       -0.07190        5.59350
H          0.74340        2.29400        4.64710
H         -1.33570       -2.15640        4.47440
H         -1.11090       -2.29710        2.70460
H         -2.57100       -1.48460        3.35770
