38
rmsd12.gzmat
C          0.00000        0.00000        0.00000
C          1.50930        0.00000        0.00000
O          2.28370        0.00000        0.91030
N          1.88320       -0.09400       -1.36830
C          3.25740        0.08320       -1.83140
C          3.64510        1.56500       -1.84460
C          0.76190       -0.14070       -2.23790
O          0.83630       -0.20300       -3.43520
C         -0.42830       -0.11970       -1.36220
C         -1.75580       -0.14180       -1.68680
N         -2.68430       -0.12240       -0.68220
C         -4.12000       -0.05660       -1.02450
C         -4.56120        1.39520       -1.20520
C         -2.32460       -0.02110        0.70290
O         -3.22260       -0.07600        1.51140
C         -0.89350        0.09850        1.01010
C         -0.52370        0.41770        2.37120
N         -0.80020       -0.36010        3.49450
C         -0.27460        0.29390        4.59690
C          0.31560        1.46850        4.10620
N          0.15380        1.53160        2.74050
C         -1.55280       -1.59700        3.52070
H          3.34790       -0.35610       -2.85330
H          3.93580       -0.49080       -1.15600
H          3.00720        2.14270       -2.52380
H          4.68210        1.69670       -2.16860
H          3.55010        2.01020       -0.84410
H         -2.10780       -0.18520       -2.72740
H         -4.70780       -0.53840       -0.20220
H         -4.31110       -0.65400       -1.94240
H         -4.39080        1.98060       -0.28830
H         -5.63360        1.45460       -1.42790
H         -4.02330        1.89830       -2.01680
H         -0.33880       -0.08560        5.59240
H          0.83440        2.24070        4.63990
H         -1.38860       -2.14460        4.46480
H         -1.25620       -2.25570        2.68300
H         -2.64110       -1.39060        3.41970
