15
rmsd4.gzmat
N          0.00000        0.00000        0.00000
C          1.34470        0.00000        0.00000
C          2.09200        0.00000        1.18620
C          1.41690        0.02950        2.40840
C          0.02500        0.03260        2.41130
C         -0.64680        0.01380        1.18130
C          3.57490        0.01810        1.19660
O          4.22600        0.69390        1.96610
N          4.21590       -0.79660        0.28200
H          1.81830        0.01380       -0.98960
H          1.98220        0.05760        3.34430
H         -0.53080        0.05470        3.34490
H         -1.74210        0.01600        1.12130
H          3.72770       -1.40300       -0.33630
H          5.21660       -0.83190        0.26390
