15
rmsd3.gzmat
N          0.00000        0.00000        0.00000
C          1.34500        0.00000        0.00000
C          2.09660        0.00000        1.18340
C          1.41340       -0.00390        2.40530
C          0.02230       -0.00420        2.41010
C         -0.64900       -0.00210        1.18000
C          3.57880       -0.00580        1.23830
O          4.18590       -0.07560        2.29050
N          4.29300        0.07040        0.05810
H          1.80650       -0.00280       -0.99410
H          1.98180       -0.00940        3.34310
H         -0.53460       -0.00680        3.34330
H         -1.74430       -0.00320        1.11900
H          3.87180        0.13760       -0.83790
H          5.29490        0.06430        0.09120
