15
rmsd6.gzmat
N          0.00000        0.00000        0.00000
C          1.34350        0.00000        0.00000
C          2.09390        0.00000        1.18970
C          1.42010        0.03280        2.40920
C          0.02710        0.03900        2.41090
C         -0.64590        0.01630        1.18210
C          3.57060        0.01580        1.06500
O          4.14490        0.57710        0.15320
N          4.30550       -0.65630        2.02290
H          1.83510        0.00550       -0.98550
H          1.96690        0.06780        3.35160
H         -0.52940        0.06440        3.34340
H         -1.74160        0.01640        1.12500
H          3.89480       -1.16960        2.76740
H          5.30520       -0.67650        1.95220
