15
rmsd1.gzmat
N          0.00000        0.00000        0.00000
C          1.34340        0.00000        0.00000
C          2.09410        0.00000        1.18890
C          1.42130       -0.03090        2.40860
C          0.02800       -0.03480        2.41040
C         -0.64600       -0.01550        1.18190
C          3.57090       -0.01820        1.06030
O          4.14530       -0.64050        0.18950
N          4.30350        0.73120        1.96070
H          1.83480       -0.00640       -0.98500
H          1.97070       -0.06650        3.34950
H         -0.52830       -0.05670        3.34310
H         -1.74190       -0.01690        1.12310
H          3.88980        1.29200        2.66830
H          5.30190        0.76090        1.87810
