15

N         -0.00790        0.07450       -0.00070
C          1.32400        0.04650        0.00180
C          2.09960       -0.02620        1.17090
C          1.42740       -0.04300        2.39900
C          0.03340       -0.00620        2.40510
C         -0.63560        0.04700        1.17850
C          3.59620       -0.04320        1.02490
O          4.14490        0.34080        0.00750
N          4.29700       -0.50040        2.10910
H          1.83680        0.08200       -0.96450
H          1.97980       -0.05580        3.34190
H         -0.52780       -0.00920        3.34180
H         -1.73120        0.07540        1.15050
H          3.85430       -1.05710        2.82770
H          5.29980       -0.59230        1.99360
