rmsd4.gzmat
 OpenBabel08211713423D

 15 15  0  0  1  0  0  0  0  0999 V2000
    0.0000    0.0000    0.0000 N   0  0  0  0  0  0  0  0  0  0  0  0
    1.3447    0.0000    0.0000 C   0  0  0  0  0  0  0  0  0  0  0  0
    2.0920    0.0000    1.1862 C   0  0  2  0  0  0  0  0  0  0  0  0
    1.4169    0.0295    2.4084 C   0  0  0  0  0  0  0  0  0  0  0  0
    0.0250    0.0326    2.4113 C   0  0  0  0  0  0  0  0  0  0  0  0
   -0.6468    0.0138    1.1813 C   0  0  0  0  0  0  0  0  0  0  0  0
    3.5749    0.0181    1.1966 C   0  0  0  0  0  0  0  0  0  0  0  0
    4.2260    0.6939    1.9661 O   0  0  0  0  0  0  0  0  0  0  0  0
    4.2159   -0.7966    0.2820 N   0  0  0  0  0  0  0  0  0  0  0  0
    1.8183    0.0138   -0.9896 H   0  0  0  0  0  0  0  0  0  0  0  0
    1.9822    0.0576    3.3443 H   0  0  0  0  0  0  0  0  0  0  0  0
   -0.5308    0.0547    3.3449 H   0  0  0  0  0  0  0  0  0  0  0  0
   -1.7421    0.0160    1.1213 H   0  0  0  0  0  0  0  0  0  0  0  0
    3.7277   -1.4030   -0.3363 H   0  0  0  0  0  0  0  0  0  0  0  0
    5.2166   -0.8319    0.2639 H   0  0  0  0  0  0  0  0  0  0  0  0
  1  2  2  0  0  0  0
  1  6  2  0  0  0  0
  2  3  1  0  0  0  0
  3  7  1  6  0  0  0
  3  4  1  0  0  0  0
  4  5  2  0  0  0  0
  4 11  1  0  0  0  0
  5 12  1  0  0  0  0
  6  5  1  0  0  0  0
  7  8  2  0  0  0  0
  9  7  1  0  0  0  0
 10  2  1  0  0  0  0
 13  6  1  0  0  0  0
 14  9  1  0  0  0  0
 15  9  1  0  0  0  0
M  RAD  1   3   2
M  END
$$$$
