40
rmsd29.gzmat
O          0.00000        0.00000        0.00000
C          1.40550        0.00000        0.00000
O          1.88960        0.00000        1.09760
C          2.07500       -0.01160       -1.30100
C          1.34940       -0.06580       -2.45130
C         -0.07660       -0.09640       -2.36770
C         -0.88640       -0.18060       -3.59370
O         -0.38970       -0.22860       -4.69170
C         -2.38680       -0.25580       -3.41780
C         -2.90440        0.47560       -2.16620
C         -2.69690        1.98710       -2.31690
C         -4.40020        0.18060       -1.99230
C         -2.15170       -0.03510       -0.91180
C         -0.68730       -0.04220       -1.15120
N          3.48090        0.03090       -1.21420
C          4.28090        0.52520       -2.24220
O          3.80540        0.88330       -3.29620
C          5.73890        0.53400       -1.95060
C          6.59710        0.03000       -2.92840
C          7.97190        0.03160       -2.70350
C          8.48170        0.54360       -1.51120
C          7.62050        1.06130       -0.54430
C          6.24460        1.05980       -0.76290
H          1.81330       -0.07910       -3.45060
H         -2.88140        0.15030       -4.32510
H         -2.67730       -1.32640       -3.39080
H         -1.64100        2.23980       -2.47700
H         -3.03360        2.53410       -1.42960
H         -3.25500        2.38410       -3.17300
H         -4.59780       -0.88890       -1.86530
H         -4.97580        0.51620       -2.86310
H         -4.81170        0.69720       -1.11800
H         -2.49120       -1.06160       -0.64620
H         -2.41180        0.58520       -0.02600
H          3.88790       -0.23950       -0.32270
H          6.18860       -0.35330       -3.86610
H          8.64700       -0.36230       -3.46090
H          9.55660        0.54390       -1.33600
H          8.02340        1.46940        0.38110
H          5.57570        1.48080       -0.01270
