rmsd28.gzmat
 OpenBabel08211713393D

 40 42  0  0  0  0  0  0  0  0999 V2000
    0.0000    0.0000    0.0000 O   0  0  0  0  0  0  0  0  0  0  0  0
    1.4070    0.0000    0.0000 C   0  0  0  0  0  0  0  0  0  0  0  0
    1.8901    0.0000    1.0975 O   0  0  0  0  0  0  0  0  0  0  0  0
    2.0716    0.0173   -1.3020 C   0  0  0  0  0  0  0  0  0  0  0  0
    1.3456    0.1036   -2.4505 C   0  0  0  0  0  0  0  0  0  0  0  0
   -0.0797    0.1276   -2.3661 C   0  0  0  0  0  0  0  0  0  0  0  0
   -0.8915    0.2316   -3.5890 C   0  0  0  0  0  0  0  0  0  0  0  0
   -0.4058    0.4577   -4.6692 O   0  0  0  0  0  0  0  0  0  0  0  0
   -2.3791    0.0131   -3.4291 C   0  0  0  0  0  0  0  0  0  0  0  0
   -2.9387    0.5694   -2.1068 C   0  0  0  0  0  0  0  0  0  0  0  0
   -2.8350    2.0992   -2.0935 C   0  0  0  0  0  0  0  0  0  0  0  0
   -4.4107    0.1572   -1.9710 C   0  0  0  0  0  0  0  0  0  0  0  0
   -2.1511   -0.0179   -0.9087 C   0  0  0  0  0  0  0  0  0  0  0  0
   -0.6887    0.0470   -1.1497 C   0  0  0  0  0  0  0  0  0  0  0  0
    3.4773   -0.0598   -1.2315 N   0  0  0  0  0  0  0  0  0  0  0  0
    4.2311   -0.6608   -2.2375 C   0  0  0  0  0  0  0  0  0  0  0  0
    3.7156   -1.0602   -3.2576 O   0  0  0  0  0  0  0  0  0  0  0  0
    5.6927   -0.7231   -1.9751 C   0  0  0  0  0  0  0  0  0  0  0  0
    6.2007   -1.2359   -0.7825 C   0  0  0  0  0  0  0  0  0  0  0  0
    7.5801   -1.2972   -0.5959 C   0  0  0  0  0  0  0  0  0  0  0  0
    8.4407   -0.8511   -1.5986 C   0  0  0  0  0  0  0  0  0  0  0  0
    7.9268   -0.3508   -2.7944 C   0  0  0  0  0  0  0  0  0  0  0  0
    6.5489   -0.2890   -2.9878 C   0  0  0  0  0  0  0  0  0  0  0  0
    1.8110    0.1385   -3.4477 H   0  0  0  0  0  0  0  0  0  0  0  0
   -2.9132    0.4684   -4.2890 H   0  0  0  0  0  0  0  0  0  0  0  0
   -2.5800   -1.0754   -3.5110 H   0  0  0  0  0  0  0  0  0  0  0  0
   -1.7990    2.4395   -2.2128 H   0  0  0  0  0  0  0  0  0  0  0  0
   -3.2140    2.5229   -1.1571 H   0  0  0  0  0  0  0  0  0  0  0  0
   -3.4152    2.5471   -2.9087 H   0  0  0  0  0  0  0  0  0  0  0  0
   -4.5354   -0.9308   -1.9771 H   0  0  0  0  0  0  0  0  0  0  0  0
   -5.0144    0.5577   -2.7940 H   0  0  0  0  0  0  0  0  0  0  0  0
   -4.8488    0.5338   -1.0399 H   0  0  0  0  0  0  0  0  0  0  0  0
   -2.4459   -1.0777   -0.7318 H   0  0  0  0  0  0  0  0  0  0  0  0
   -2.4272    0.5106    0.0301 H   0  0  0  0  0  0  0  0  0  0  0  0
    3.9076    0.2336   -0.3595 H   0  0  0  0  0  0  0  0  0  0  0  0
    5.5310   -1.6008   -0.0038 H   0  0  0  0  0  0  0  0  0  0  0  0
    7.9858   -1.6965    0.3322 H   0  0  0  0  0  0  0  0  0  0  0  0
    9.5184   -0.8975   -1.4491 H   0  0  0  0  0  0  0  0  0  0  0  0
    8.6017   -0.0127   -3.5788 H   0  0  0  0  0  0  0  0  0  0  0  0
    6.1357    0.0869   -3.9262 H   0  0  0  0  0  0  0  0  0  0  0  0
  2  1  1  0  0  0  0
  2  3  2  0  0  0  0
  4 15  1  0  0  0  0
  4  2  1  0  0  0  0
  5  6  1  0  0  0  0
  5  4  2  0  0  0  0
  6 14  2  0  0  0  0
  7  9  1  0  0  0  0
  7  6  1  0  0  0  0
  8  7  2  0  0  0  0
  9 10  1  0  0  0  0
 10 11  1  0  0  0  0
 10 12  1  0  0  0  0
 10 13  1  0  0  0  0
 11 28  1  0  0  0  0
 12 32  1  0  0  0  0
 13 33  1  0  0  0  0
 13 34  1  0  0  0  0
 14 13  1  0  0  0  0
 14  1  1  0  0  0  0
 15 35  1  0  0  0  0
 16 18  1  0  0  0  0
 16 15  1  0  0  0  0
 17 16  2  0  0  0  0
 18 19  2  0  0  0  0
 19 20  1  0  0  0  0
 19 36  1  0  0  0  0
 20 37  1  0  0  0  0
 21 38  1  0  0  0  0
 21 20  2  0  0  0  0
 22 21  1  0  0  0  0
 23 22  2  0  0  0  0
 23 18  1  0  0  0  0
 24  5  1  0  0  0  0
 25  9  1  0  0  0  0
 26  9  1  0  0  0  0
 27 11  1  0  0  0  0
 29 11  1  0  0  0  0
 30 12  1  0  0  0  0
 31 12  1  0  0  0  0
 39 22  1  0  0  0  0
 40 23  1  0  0  0  0
M  END
$$$$
