
     RDKit          3D

 40 42  0  0  0  0  0  0  0  0999 V2000
    0.0814    0.1237   -0.0755 O   0  0  0  0  0  0  0  0  0  0  0  0
    1.4603    0.1704   -0.0975 C   0  0  0  0  0  0  0  0  0  0  0  0
    2.0617    0.2212    0.9490 O   0  0  0  0  0  0  0  0  0  0  0  0
    2.0881    0.1573   -1.4237 C   0  0  0  0  0  0  0  0  0  0  0  0
    1.3203    0.0919   -2.5525 C   0  0  0  0  0  0  0  0  0  0  0  0
   -0.1077    0.0291   -2.4250 C   0  0  0  0  0  0  0  0  0  0  0  0
   -0.9680   -0.0479   -3.6350 C   0  0  0  0  0  0  0  0  0  0  0  0
   -0.4977    0.0105   -4.7532 O   0  0  0  0  0  0  0  0  0  0  0  0
   -2.4550   -0.2458   -3.3878 C   0  0  0  0  0  0  0  0  0  0  0  0
   -2.9880    0.4654   -2.1275 C   0  0  0  0  0  0  0  0  0  0  0  0
   -2.8760    1.9903   -2.2977 C   0  0  0  0  0  0  0  0  0  0  0  0
   -4.4564    0.0871   -1.8998 C   0  0  0  0  0  0  0  0  0  0  0  0
   -2.1487    0.0013   -0.9168 C   0  0  0  0  0  0  0  0  0  0  0  0
   -0.6813    0.0551   -1.1860 C   0  0  0  0  0  0  0  0  0  0  0  0
    3.4722    0.2259   -1.3372 N   0  0  0  0  0  0  0  0  0  0  0  0
    4.3725    0.2341   -2.3792 C   0  0  0  0  0  0  0  0  0  0  0  0
    4.0287    0.1377   -3.5457 O   0  0  0  0  0  0  0  0  0  0  0  0
    5.8140    0.3564   -1.9781 C   0  0  0  0  0  0  0  0  0  0  0  0
    6.7749    0.0273   -2.9461 C   0  0  0  0  0  0  0  0  0  0  0  0
    8.1340    0.1169   -2.6497 C   0  0  0  0  0  0  0  0  0  0  0  0
    8.5485    0.5490   -1.3856 C   0  0  0  0  0  0  0  0  0  0  0  0
    7.5981    0.8952   -0.4211 C   0  0  0  0  0  0  0  0  0  0  0  0
    6.2366    0.8000   -0.7146 C   0  0  0  0  0  0  0  0  0  0  0  0
    1.7700    0.0814   -3.5429 H   0  0  0  0  0  0  0  0  0  0  0  0
   -2.9927    0.0735   -4.2924 H   0  0  0  0  0  0  0  0  0  0  0  0
   -2.6161   -1.3357   -3.2869 H   0  0  0  0  0  0  0  0  0  0  0  0
   -1.8348    2.3159   -2.4437 H   0  0  0  0  0  0  0  0  0  0  0  0
   -3.2714    2.5113   -1.4116 H   0  0  0  0  0  0  0  0  0  0  0  0
   -3.4552    2.3234   -3.1728 H   0  0  0  0  0  0  0  0  0  0  0  0
   -4.5771   -1.0025   -1.7902 H   0  0  0  0  0  0  0  0  0  0  0  0
   -5.0791    0.4129   -2.7474 H   0  0  0  0  0  0  0  0  0  0  0  0
   -4.8491    0.5657   -0.9883 H   0  0  0  0  0  0  0  0  0  0  0  0
   -2.4167   -1.0393   -0.6531 H   0  0  0  0  0  0  0  0  0  0  0  0
   -2.3690    0.6080   -0.0238 H   0  0  0  0  0  0  0  0  0  0  0  0
    3.8115    0.2209   -0.3798 H   0  0  0  0  0  0  0  0  0  0  0  0
    6.4258   -0.2968   -3.9278 H   0  0  0  0  0  0  0  0  0  0  0  0
    8.8749   -0.1486   -3.4074 H   0  0  0  0  0  0  0  0  0  0  0  0
    9.6137    0.6219   -1.1533 H   0  0  0  0  0  0  0  0  0  0  0  0
    7.9169    1.2475    0.5624 H   0  0  0  0  0  0  0  0  0  0  0  0
    5.5135    1.1051    0.0457 H   0  0  0  0  0  0  0  0  0  0  0  0
  1  2  1  0
  1 14  1  0
  2  3  2  0
  2  4  1  0
  4  5  2  0
  4 15  1  0
  5  6  1  0
  5 24  1  0
  6  7  1  0
  6 14  2  0
  7  8  2  0
  7  9  1  0
  9 10  1  0
  9 25  1  0
  9 26  1  0
 10 11  1  0
 10 12  1  0
 10 13  1  0
 11 27  1  0
 11 28  1  0
 11 29  1  0
 12 30  1  0
 12 31  1  0
 12 32  1  0
 13 14  1  0
 13 33  1  0
 13 34  1  0
 15 16  1  0
 15 35  1  0
 16 17  2  0
 16 18  1  0
 18 19  2  0
 18 23  1  0
 19 20  1  0
 19 36  1  0
 20 21  2  0
 20 37  1  0
 21 22  1  0
 21 38  1  0
 22 23  2  0
 22 39  1  0
 23 40  1  0
M  END

