rmsd41.gzmat
 OpenBabel08211713393D

 40 42  0  0  0  0  0  0  0  0999 V2000
    0.0000    0.0000    0.0000 O   0  0  0  0  0  0  0  0  0  0  0  0
    1.4068    0.0000    0.0000 C   0  0  0  0  0  0  0  0  0  0  0  0
    1.8902    0.0000    1.0977 O   0  0  0  0  0  0  0  0  0  0  0  0
    2.0745   -0.0143   -1.3013 C   0  0  0  0  0  0  0  0  0  0  0  0
    1.3492   -0.0836   -2.4511 C   0  0  0  0  0  0  0  0  0  0  0  0
   -0.0763   -0.1096   -2.3674 C   0  0  0  0  0  0  0  0  0  0  0  0
   -0.8840   -0.1879   -3.5948 C   0  0  0  0  0  0  0  0  0  0  0  0
   -0.3849   -0.2545   -4.6908 O   0  0  0  0  0  0  0  0  0  0  0  0
   -2.3860   -0.2251   -3.4228 C   0  0  0  0  0  0  0  0  0  0  0  0
   -2.8866    0.5205   -2.1719 C   0  0  0  0  0  0  0  0  0  0  0  0
   -2.6304    2.0251   -2.3190 C   0  0  0  0  0  0  0  0  0  0  0  0
   -4.3915    0.2713   -2.0054 C   0  0  0  0  0  0  0  0  0  0  0  0
   -2.1519   -0.0164   -0.9173 C   0  0  0  0  0  0  0  0  0  0  0  0
   -0.6873   -0.0436   -1.1507 C   0  0  0  0  0  0  0  0  0  0  0  0
    3.4805    0.0423   -1.2224 N   0  0  0  0  0  0  0  0  0  0  0  0
    4.2608    0.5731   -2.2474 C   0  0  0  0  0  0  0  0  0  0  0  0
    3.7669    0.9482   -3.2872 O   0  0  0  0  0  0  0  0  0  0  0  0
    5.7230    0.5907   -1.9800 C   0  0  0  0  0  0  0  0  0  0  0  0
    6.5623    0.0746   -2.9680 C   0  0  0  0  0  0  0  0  0  0  0  0
    7.9416    0.0908   -2.7755 C   0  0  0  0  0  0  0  0  0  0  0  0
    8.4744    0.6291   -1.6045 C   0  0  0  0  0  0  0  0  0  0  0  0
    7.6314    1.1559   -0.6265 C   0  0  0  0  0  0  0  0  0  0  0  0
    6.2502    1.1388   -0.8117 C   0  0  0  0  0  0  0  0  0  0  0  0
    1.8135   -0.1081   -3.4499 H   0  0  0  0  0  0  0  0  0  0  0  0
   -2.8670    0.1936   -4.3316 H   0  0  0  0  0  0  0  0  0  0  0  0
   -2.7032   -1.2885   -3.3971 H   0  0  0  0  0  0  0  0  0  0  0  0
   -1.5656    2.2452   -2.4696 H   0  0  0  0  0  0  0  0  0  0  0  0
   -2.9588    2.5820   -1.4349 H   0  0  0  0  0  0  0  0  0  0  0  0
   -3.1667    2.4406   -3.1799 H   0  0  0  0  0  0  0  0  0  0  0  0
   -4.6248   -0.7946   -1.9140 H   0  0  0  0  0  0  0  0  0  0  0  0
   -4.9556    0.6538   -2.8649 H   0  0  0  0  0  0  0  0  0  0  0  0
   -4.7864    0.7729   -1.1149 H   0  0  0  0  0  0  0  0  0  0  0  0
   -2.5112   -1.0393   -0.6646 H   0  0  0  0  0  0  0  0  0  0  0  0
   -2.4066    0.5995   -0.0270 H   0  0  0  0  0  0  0  0  0  0  0  0
    3.8974   -0.2326   -0.3378 H   0  0  0  0  0  0  0  0  0  0  0  0
    6.1352   -0.3296   -3.8885 H   0  0  0  0  0  0  0  0  0  0  0  0
    8.6023   -0.3117   -3.5413 H   0  0  0  0  0  0  0  0  0  0  0  0
    9.5533    0.6423   -1.4554 H   0  0  0  0  0  0  0  0  0  0  0  0
    8.0535    1.5837    0.2814 H   0  0  0  0  0  0  0  0  0  0  0  0
    5.5950    1.5644   -0.0519 H   0  0  0  0  0  0  0  0  0  0  0  0
  2  1  1  0  0  0  0
  2  3  2  0  0  0  0
  4 15  1  0  0  0  0
  4  2  1  0  0  0  0
  5  6  1  0  0  0  0
  5  4  2  0  0  0  0
  6 14  2  0  0  0  0
  7  9  1  0  0  0  0
  7  6  1  0  0  0  0
  8  7  2  0  0  0  0
  9 26  1  0  0  0  0
  9 10  1  0  0  0  0
 10 12  1  0  0  0  0
 10 13  1  0  0  0  0
 11 10  1  0  0  0  0
 11 28  1  0  0  0  0
 12 30  1  0  0  0  0
 12 32  1  0  0  0  0
 13 33  1  0  0  0  0
 13 34  1  0  0  0  0
 14 13  1  0  0  0  0
 14  1  1  0  0  0  0
 15 35  1  0  0  0  0
 16 18  1  0  0  0  0
 16 15  1  0  0  0  0
 17 16  2  0  0  0  0
 18 23  2  0  0  0  0
 19 20  2  0  0  0  0
 19 18  1  0  0  0  0
 20 21  1  0  0  0  0
 21 38  1  0  0  0  0
 21 22  2  0  0  0  0
 22 39  1  0  0  0  0
 23 22  1  0  0  0  0
 23 40  1  0  0  0  0
 24  5  1  0  0  0  0
 25  9  1  0  0  0  0
 27 11  1  0  0  0  0
 29 11  1  0  0  0  0
 31 12  1  0  0  0  0
 36 19  1  0  0  0  0
 37 20  1  0  0  0  0
M  END
$$$$
