40

O          0.08140        0.12370       -0.07550
C          1.46030        0.17040       -0.09750
O          2.06170        0.22120        0.94900
C          2.08810        0.15730       -1.42370
C          1.32030        0.09190       -2.55250
C         -0.10770        0.02910       -2.42500
C         -0.96800       -0.04790       -3.63500
O         -0.49770        0.01050       -4.75320
C         -2.45500       -0.24580       -3.38780
C         -2.98800        0.46540       -2.12750
C         -2.87600        1.99030       -2.29770
C         -4.45640        0.08710       -1.89980
C         -2.14870        0.00130       -0.91680
C         -0.68130        0.05510       -1.18600
N          3.47220        0.22590       -1.33720
C          4.37250        0.23410       -2.37920
O          4.02870        0.13770       -3.54570
C          5.81400        0.35640       -1.97810
C          6.77490        0.02730       -2.94610
C          8.13400        0.11690       -2.64970
C          8.54850        0.54900       -1.38560
C          7.59810        0.89520       -0.42110
C          6.23660        0.80000       -0.71460
H          1.77000        0.08140       -3.54290
H         -2.99270        0.07350       -4.29240
H         -2.61610       -1.33570       -3.28690
H         -1.83480        2.31590       -2.44370
H         -3.27140        2.51130       -1.41160
H         -3.45520        2.32340       -3.17280
H         -4.57710       -1.00250       -1.79020
H         -5.07910        0.41290       -2.74740
H         -4.84910        0.56570       -0.98830
H         -2.41670       -1.03930       -0.65310
H         -2.36900        0.60800       -0.02380
H          3.81150        0.22090       -0.37980
H          6.42580       -0.29680       -3.92780
H          8.87490       -0.14860       -3.40740
H          9.61370        0.62190       -1.15330
H          7.91690        1.24750        0.56240
H          5.51350        1.10510        0.04570
