
     RDKit          3D

 51 54  0  0  0  0  0  0  0  0999 V2000
    0.0402    0.1022   -0.3204 C   0  0  0  0  0  0  0  0  0  0  0  0
    1.5523   -0.0936   -0.1470 C   0  0  0  0  0  0  0  0  0  0  0  0
    1.9667   -0.1030    1.3461 C   0  0  0  0  0  0  0  0  0  0  0  0
    1.6188    0.6751    2.2132 O   0  0  0  0  0  0  0  0  0  0  0  0
    2.8434   -1.1386    1.4977 N   0  0  0  0  0  0  0  0  0  0  0  0
    3.1667   -1.7724    0.2279 C   0  0  0  0  0  0  0  0  0  0  0  0
    2.0565   -1.4120   -0.6385 N   0  0  0  0  0  0  0  0  0  0  0  0
    1.1059   -2.4409   -0.9120 C   0  0  0  0  0  0  0  0  0  0  0  0
    0.5649   -2.5279   -2.2028 C   0  0  0  0  0  0  0  0  0  0  0  0
   -0.3828   -3.5051   -2.5132 C   0  0  0  0  0  0  0  0  0  0  0  0
   -0.7866   -4.4263   -1.5426 C   0  0  0  0  0  0  0  0  0  0  0  0
   -0.2417   -4.3558   -0.2571 C   0  0  0  0  0  0  0  0  0  0  0  0
    0.6908   -3.3661    0.0606 C   0  0  0  0  0  0  0  0  0  0  0  0
    2.3097    1.0473   -0.8677 C   0  0  0  0  0  0  0  0  0  0  0  0
    1.7629    2.4335   -0.4968 C   0  0  0  0  0  0  0  0  0  0  0  0
    0.3288    2.5617   -0.7261 N   0  0  0  0  0  0  0  0  0  0  0  0
   -0.0612    2.6823   -2.1238 C   0  0  0  0  0  0  0  0  0  0  0  0
   -1.4100    3.4130   -2.3033 C   0  0  0  0  0  0  0  0  0  0  0  0
   -1.3173    4.5854   -3.0951 O   0  0  0  0  0  0  0  0  0  0  0  0
   -0.7391    5.7031   -2.5767 C   0  0  0  0  0  0  0  0  0  0  0  0
   -0.1362    5.7677   -1.3110 C   0  0  0  0  0  0  0  0  0  0  0  0
    0.4211    6.9778   -0.8803 C   0  0  0  0  0  0  0  0  0  0  0  0
    0.3915    8.1150   -1.6879 C   0  0  0  0  0  0  0  0  0  0  0  0
   -0.2073    8.0380   -2.9519 C   0  0  0  0  0  0  0  0  0  0  0  0
   -0.7688    6.8440   -3.3964 C   0  0  0  0  0  0  0  0  0  0  0  0
   -0.4007    1.5384    0.0192 C   0  0  0  0  0  0  0  0  0  0  0  0
   -0.5123   -0.6162    0.3033 H   0  0  0  0  0  0  0  0  0  0  0  0
   -0.2201   -0.1305   -1.3638 H   0  0  0  0  0  0  0  0  0  0  0  0
    3.4106   -1.2129    2.3352 H   0  0  0  0  0  0  0  0  0  0  0  0
    4.1233   -1.3843   -0.1749 H   0  0  0  0  0  0  0  0  0  0  0  0
    3.2568   -2.8639    0.3178 H   0  0  0  0  0  0  0  0  0  0  0  0
    0.9114   -1.8209   -2.9590 H   0  0  0  0  0  0  0  0  0  0  0  0
   -0.7958   -3.5575   -3.5235 H   0  0  0  0  0  0  0  0  0  0  0  0
   -1.5203   -5.1977   -1.7870 H   0  0  0  0  0  0  0  0  0  0  0  0
   -0.5556   -5.0682    0.5099 H   0  0  0  0  0  0  0  0  0  0  0  0
    1.0853   -3.2946    1.0764 H   0  0  0  0  0  0  0  0  0  0  0  0
    3.3875    0.9911   -0.6406 H   0  0  0  0  0  0  0  0  0  0  0  0
    2.2060    0.8644   -1.9493 H   0  0  0  0  0  0  0  0  0  0  0  0
    1.9540    2.6248    0.5705 H   0  0  0  0  0  0  0  0  0  0  0  0
    2.2861    3.2155   -1.0693 H   0  0  0  0  0  0  0  0  0  0  0  0
   -0.1040    1.7055   -2.6491 H   0  0  0  0  0  0  0  0  0  0  0  0
    0.7055    3.2715   -2.6484 H   0  0  0  0  0  0  0  0  0  0  0  0
   -1.8332    3.6531   -1.3118 H   0  0  0  0  0  0  0  0  0  0  0  0
   -2.1323    2.7803   -2.8382 H   0  0  0  0  0  0  0  0  0  0  0  0
   -0.0790    4.8823   -0.6751 H   0  0  0  0  0  0  0  0  0  0  0  0
    0.8898    7.0204    0.1064 H   0  0  0  0  0  0  0  0  0  0  0  0
    0.8314    9.0525   -1.3410 H   0  0  0  0  0  0  0  0  0  0  0  0
   -0.2393    8.9194   -3.5976 H   0  0  0  0  0  0  0  0  0  0  0  0
   -1.2438    6.7652   -4.3761 H   0  0  0  0  0  0  0  0  0  0  0  0
   -1.4787    1.6422   -0.1803 H   0  0  0  0  0  0  0  0  0  0  0  0
   -0.2468    1.7176    1.0920 H   0  0  0  0  0  0  0  0  0  0  0  0
  1  2  1  0
  1 26  1  0
  1 27  1  0
  1 28  1  0
  2  3  1  0
  2  7  1  0
  2 14  1  0
  3  4  2  0
  3  5  1  0
  5  6  1  0
  5 29  1  0
  6  7  1  0
  6 30  1  0
  6 31  1  0
  7  8  1  0
  8  9  2  0
  8 13  1  0
  9 10  1  0
  9 32  1  0
 10 11  2  0
 10 33  1  0
 11 12  1  0
 11 34  1  0
 12 13  2  0
 12 35  1  0
 13 36  1  0
 14 15  1  0
 14 37  1  0
 14 38  1  0
 15 16  1  0
 15 39  1  0
 15 40  1  0
 16 17  1  0
 16 26  1  0
 17 18  1  0
 17 41  1  0
 17 42  1  0
 18 19  1  0
 18 43  1  0
 18 44  1  0
 19 20  1  0
 20 21  2  0
 20 25  1  0
 21 22  1  0
 21 45  1  0
 22 23  2  0
 22 46  1  0
 23 24  1  0
 23 47  1  0
 24 25  2  0
 24 48  1  0
 25 49  1  0
 26 50  1  0
 26 51  1  0
M  END

