51

C          0.04020        0.10220       -0.32040
C          1.55230       -0.09360       -0.14700
C          1.96670       -0.10300        1.34610
O          1.61880        0.67510        2.21320
N          2.84340       -1.13860        1.49770
C          3.16670       -1.77240        0.22790
N          2.05650       -1.41200       -0.63850
C          1.10590       -2.44090       -0.91200
C          0.56490       -2.52790       -2.20280
C         -0.38280       -3.50510       -2.51320
C         -0.78660       -4.42630       -1.54260
C         -0.24170       -4.35580       -0.25710
C          0.69080       -3.36610        0.06060
C          2.30970        1.04730       -0.86770
C          1.76290        2.43350       -0.49680
N          0.32880        2.56170       -0.72610
C         -0.06120        2.68230       -2.12380
C         -1.41000        3.41300       -2.30330
O         -1.31730        4.58540       -3.09510
C         -0.73910        5.70310       -2.57670
C         -0.13620        5.76770       -1.31100
C          0.42110        6.97780       -0.88030
C          0.39150        8.11500       -1.68790
C         -0.20730        8.03800       -2.95190
C         -0.76880        6.84400       -3.39640
C         -0.40070        1.53840        0.01920
H         -0.51230       -0.61620        0.30330
H         -0.22010       -0.13050       -1.36380
H          3.41060       -1.21290        2.33520
H          4.12330       -1.38430       -0.17490
H          3.25680       -2.86390        0.31780
H          0.91140       -1.82090       -2.95900
H         -0.79580       -3.55750       -3.52350
H         -1.52030       -5.19770       -1.78700
H         -0.55560       -5.06820        0.50990
H          1.08530       -3.29460        1.07640
H          3.38750        0.99110       -0.64060
H          2.20600        0.86440       -1.94930
H          1.95400        2.62480        0.57050
H          2.28610        3.21550       -1.06930
H         -0.10400        1.70550       -2.64910
H          0.70550        3.27150       -2.64840
H         -1.83320        3.65310       -1.31180
H         -2.13230        2.78030       -2.83820
H         -0.07900        4.88230       -0.67510
H          0.88980        7.02040        0.10640
H          0.83140        9.05250       -1.34100
H         -0.23930        8.91940       -3.59760
H         -1.24380        6.76520       -4.37610
H         -1.47870        1.64220       -0.18030
H         -0.24680        1.71760        1.09200
