51

C         -0.04460       -0.01520       -0.08020
C          1.48800       -0.05530       -0.01160
C          1.99690       -0.15170        1.44810
O          1.63450        0.51000        2.40160
N          2.97970       -1.10070        1.45440
C          3.28780       -1.57510        0.11310
N          2.09490       -1.26090       -0.65390
C          1.24210       -2.35590       -0.98490
C          0.60040       -2.35700       -2.23200
C         -0.25030       -3.40280       -2.59290
C         -0.45800       -4.47490       -1.72100
C          0.18300       -4.48610       -0.47890
C          1.01950       -3.43140       -0.10800
C          2.08450        1.22110       -0.65460
C          1.39430        2.50700       -0.16890
N         -0.05390        2.47730       -0.34370
C         -0.45010        2.59960       -1.73830
C         -1.95360        2.74520       -1.94800
O         -2.67810        1.52820       -1.81510
C         -2.61210        0.57200       -2.77660
C         -3.21640       -0.65600       -2.45630
C         -3.23060       -1.69380       -3.38240
C         -2.63860       -1.53280       -4.64160
C         -2.02890       -0.31780       -4.95380
C         -2.00880        0.73670       -4.03320
C         -0.60740        1.33670        0.38900
H         -0.47150       -0.83150        0.52150
H         -0.36010       -0.20350       -1.11620
H          3.60670       -1.18280        2.24730
H          4.17150       -1.04710       -0.29820
H          3.49890       -2.65300        0.08990
H          0.78140       -1.52690       -2.91700
H         -0.74570       -3.37740       -3.56440
H         -1.11640       -5.29840       -2.00740
H          0.01990       -5.31510        0.21450
H          1.48710       -3.42880        0.87890
H          3.16820        1.27560       -0.45610
H          1.97450        1.10470       -1.74420
H          1.60590        2.65060        0.90190
H          1.80800        3.37680       -0.70540
H         -0.08740        1.77160       -2.38380
H          0.02180        3.51580       -2.13340
H         -2.15670        3.19950       -2.93300
H         -2.36390        3.41140       -1.17570
H         -3.67070       -0.76530       -1.47010
H         -3.70210       -2.64260       -3.11580
H         -2.65140       -2.34790       -5.36830
H         -1.55880       -0.17660       -5.93030
H         -1.52700        1.67440       -4.30690
H         -1.69910        1.32430        0.28780
H         -0.36750        1.47880        1.45150
