rmsd109.gzmat
 OpenBabel08211713403D

 51 54  0  0  0  0  0  0  0  0999 V2000
    0.0000    0.0000    0.0000 C   0  0  0  0  0  0  0  0  0  0  0  0
    1.5363    0.0000    0.0000 C   0  0  0  0  0  0  0  0  0  0  0  0
    2.0298    0.0000    1.4647 C   0  0  0  0  0  0  0  0  0  0  0  0
    1.8630    0.8413    2.3123 O   0  0  0  0  0  0  0  0  0  0  0  0
    2.6975   -1.1894    1.6983 N   0  0  0  0  0  0  0  0  0  0  0  0
    2.8793   -1.9790    0.4700 C   0  0  0  0  0  0  0  0  0  0  0  0
    2.1530   -1.2321   -0.5945 N   0  0  0  0  0  0  0  0  0  0  0  0
    1.2909   -2.0118   -1.4304 C   0  0  0  0  0  0  0  0  0  0  0  0
    1.2920   -1.6693   -2.7907 C   0  0  0  0  0  0  0  0  0  0  0  0
    0.5006   -2.3877   -3.6803 C   0  0  0  0  0  0  0  0  0  0  0  0
   -0.2847   -3.4466   -3.2260 C   0  0  0  0  0  0  0  0  0  0  0  0
   -0.2807   -3.7870   -1.8749 C   0  0  0  0  0  0  0  0  0  0  0  0
    0.4987   -3.0703   -0.9707 C   0  0  0  0  0  0  0  0  0  0  0  0
    2.1154    1.1978   -0.7690 C   0  0  0  0  0  0  0  0  0  0  0  0
    1.4538    2.5126   -0.3198 C   0  0  0  0  0  0  0  0  0  0  0  0
   -0.0185    2.4935   -0.4009 N   0  0  0  0  0  0  0  0  0  0  0  0
   -0.5165    2.4660   -1.7928 C   0  0  0  0  0  0  0  0  0  0  0  0
   -1.7265    3.4187   -1.8416 C   0  0  0  0  0  0  0  0  0  0  0  0
   -2.1723    3.5461   -3.1850 O   0  0  0  0  0  0  0  0  0  0  0  0
   -1.4479    4.3114   -4.0421 C   0  0  0  0  0  0  0  0  0  0  0  0
   -1.9161    4.2344   -5.3644 C   0  0  0  0  0  0  0  0  0  0  0  0
   -1.2768    4.9834   -6.3415 C   0  0  0  0  0  0  0  0  0  0  0  0
   -0.1852    5.7929   -6.0137 C   0  0  0  0  0  0  0  0  0  0  0  0
    0.2650    5.8545   -4.6982 C   0  0  0  0  0  0  0  0  0  0  0  0
   -0.3621    5.1153   -3.6960 C   0  0  0  0  0  0  0  0  0  0  0  0
   -0.5481    1.3820    0.4106 C   0  0  0  0  0  0  0  0  0  0  0  0
   -0.3915   -0.7795    0.6783 H   0  0  0  0  0  0  0  0  0  0  0  0
   -0.3810   -0.2630   -1.0074 H   0  0  0  0  0  0  0  0  0  0  0  0
    3.1727   -1.4176    2.5473 H   0  0  0  0  0  0  0  0  0  0  0  0
    3.9577   -2.0049    0.1665 H   0  0  0  0  0  0  0  0  0  0  0  0
    2.5188   -3.0221    0.6185 H   0  0  0  0  0  0  0  0  0  0  0  0
    1.9223   -0.8525   -3.1398 H   0  0  0  0  0  0  0  0  0  0  0  0
    0.4992   -2.1234   -4.7372 H   0  0  0  0  0  0  0  0  0  0  0  0
   -0.8995   -4.0065   -3.9271 H   0  0  0  0  0  0  0  0  0  0  0  0
   -0.8924   -4.6155   -1.5205 H   0  0  0  0  0  0  0  0  0  0  0  0
    0.4776   -3.3291    0.0853 H   0  0  0  0  0  0  0  0  0  0  0  0
    3.2113    1.2493   -0.6298 H   0  0  0  0  0  0  0  0  0  0  0  0
    1.9640    1.0412   -1.8548 H   0  0  0  0  0  0  0  0  0  0  0  0
    1.7212    2.7301    0.7439 H   0  0  0  0  0  0  0  0  0  0  0  0
    1.8396    3.3640   -0.9183 H   0  0  0  0  0  0  0  0  0  0  0  0
   -0.8115    1.4564   -2.1457 H   0  0  0  0  0  0  0  0  0  0  0  0
    0.2606    2.8138   -2.5064 H   0  0  0  0  0  0  0  0  0  0  0  0
   -1.5092    4.4001   -1.3887 H   0  0  0  0  0  0  0  0  0  0  0  0
   -2.6212    2.9882   -1.3542 H   0  0  0  0  0  0  0  0  0  0  0  0
   -2.7640    3.5969   -5.5982 H   0  0  0  0  0  0  0  0  0  0  0  0
   -1.6272    4.9405   -7.3720 H   0  0  0  0  0  0  0  0  0  0  0  0
    0.3090    6.3726   -6.7874 H   0  0  0  0  0  0  0  0  0  0  0  0
    1.1159    6.4854   -4.4444 H   0  0  0  0  0  0  0  0  0  0  0  0
   -0.0080    5.1785   -2.6718 H   0  0  0  0  0  0  0  0  0  0  0  0
   -1.6567    1.3861    0.3518 H   0  0  0  0  0  0  0  0  0  0  0  0
   -0.2847    1.5960    1.4760 H   0  0  0  0  0  0  0  0  0  0  0  0
  1  2  1  0  0  0  0
  1 26  1  0  0  0  0
  1 27  1  0  0  0  0
  2  3  1  0  0  0  0
  3  5  1  0  0  0  0
  3  4  2  0  0  0  0
  5 29  1  0  0  0  0
  6 31  1  0  0  0  0
  6  5  1  0  0  0  0
  7  2  1  0  0  0  0
  7  6  1  0  0  0  0
  8 13  1  0  0  0  0
  8  7  1  0  0  0  0
  9  8  2  0  0  0  0
 10 11  2  0  0  0  0
 10  9  1  0  0  0  0
 11 12  1  0  0  0  0
 12 35  1  0  0  0  0
 12 13  2  0  0  0  0
 13 36  1  0  0  0  0
 14 37  1  0  0  0  0
 14 15  1  0  0  0  0
 14  2  1  0  0  0  0
 15 39  1  0  0  0  0
 16 15  1  0  0  0  0
 16 26  1  0  0  0  0
 17 16  1  0  0  0  0
 18 17  1  0  0  0  0
 18 43  1  0  0  0  0
 18 44  1  0  0  0  0
 19 18  1  0  0  0  0
 20 25  1  0  0  0  0
 20 19  1  0  0  0  0
 21 20  2  0  0  0  0
 22 23  2  0  0  0  0
 22 21  1  0  0  0  0
 23 24  1  0  0  0  0
 24 48  1  0  0  0  0
 24 25  2  0  0  0  0
 25 49  1  0  0  0  0
 26 51  1  0  0  0  0
 28  1  1  0  0  0  0
 30  6  1  0  0  0  0
 32  9  1  0  0  0  0
 33 10  1  0  0  0  0
 34 11  1  0  0  0  0
 38 14  1  0  0  0  0
 40 15  1  0  0  0  0
 41 17  1  0  0  0  0
 42 17  1  0  0  0  0
 45 21  1  0  0  0  0
 46 22  1  0  0  0  0
 47 23  1  0  0  0  0
 50 26  1  0  0  0  0
M  END
$$$$
