rmsd82.gzmat
 OpenBabel08211713403D

 51 54  0  0  0  0  0  0  0  0999 V2000
    0.0000    0.0000    0.0000 C   0  0  0  0  0  0  0  0  0  0  0  0
    1.5394    0.0000    0.0000 C   0  0  0  0  0  0  0  0  0  0  0  0
    2.0606    0.0000    1.4588 C   0  0  0  0  0  0  0  0  0  0  0  0
    2.0871    0.9085    2.2501 O   0  0  0  0  0  0  0  0  0  0  0  0
    2.5395   -1.2682    1.7390 N   0  0  0  0  0  0  0  0  0  0  0  0
    2.3214   -2.1951    0.6139 C   0  0  0  0  0  0  0  0  0  0  0  0
    1.9634   -1.3362   -0.5499 N   0  0  0  0  0  0  0  0  0  0  0  0
    2.9711   -1.2802   -1.5730 C   0  0  0  0  0  0  0  0  0  0  0  0
    4.3421   -1.1878   -1.3073 C   0  0  0  0  0  0  0  0  0  0  0  0
    5.2456   -1.1749   -2.3659 C   0  0  0  0  0  0  0  0  0  0  0  0
    4.7886   -1.2442   -3.6807 C   0  0  0  0  0  0  0  0  0  0  0  0
    3.4214   -1.3277   -3.9414 C   0  0  0  0  0  0  0  0  0  0  0  0
    2.5070   -1.3483   -2.8930 C   0  0  0  0  0  0  0  0  0  0  0  0
    2.1065    1.1963   -0.7689 C   0  0  0  0  0  0  0  0  0  0  0  0
    1.4479    2.5128   -0.3068 C   0  0  0  0  0  0  0  0  0  0  0  0
   -0.0244    2.4955   -0.3632 N   0  0  0  0  0  0  0  0  0  0  0  0
   -0.5485    2.5081   -1.7454 C   0  0  0  0  0  0  0  0  0  0  0  0
   -1.1871    3.9004   -1.9409 C   0  0  0  0  0  0  0  0  0  0  0  0
   -1.8613    3.7548   -3.1938 O   0  0  0  0  0  0  0  0  0  0  0  0
   -2.6248    4.7891   -3.6237 C   0  0  0  0  0  0  0  0  0  0  0  0
   -2.7418    6.0267   -2.9917 C   0  0  0  0  0  0  0  0  0  0  0  0
   -3.5659    6.9920   -3.5704 C   0  0  0  0  0  0  0  0  0  0  0  0
   -4.2565    6.7240   -4.7485 C   0  0  0  0  0  0  0  0  0  0  0  0
   -4.1268    5.4768   -5.3670 C   0  0  0  0  0  0  0  0  0  0  0  0
   -3.3127    4.4993   -4.8147 C   0  0  0  0  0  0  0  0  0  0  0  0
   -0.5457    1.3718    0.4359 C   0  0  0  0  0  0  0  0  0  0  0  0
   -0.3890   -0.7975    0.6586 H   0  0  0  0  0  0  0  0  0  0  0  0
   -0.3597   -0.2575   -1.0161 H   0  0  0  0  0  0  0  0  0  0  0  0
    2.9165   -1.5616    2.6148 H   0  0  0  0  0  0  0  0  0  0  0  0
    3.2161   -2.8297    0.4312 H   0  0  0  0  0  0  0  0  0  0  0  0
    1.4396   -2.8564    0.8142 H   0  0  0  0  0  0  0  0  0  0  0  0
    4.7013   -1.1168   -0.2826 H   0  0  0  0  0  0  0  0  0  0  0  0
    6.3136   -1.1060   -2.1640 H   0  0  0  0  0  0  0  0  0  0  0  0
    5.4994   -1.2324   -4.5040 H   0  0  0  0  0  0  0  0  0  0  0  0
    3.0661   -1.3792   -4.9696 H   0  0  0  0  0  0  0  0  0  0  0  0
    1.4370   -1.4234   -3.0844 H   0  0  0  0  0  0  0  0  0  0  0  0
    3.2031    1.2640   -0.6395 H   0  0  0  0  0  0  0  0  0  0  0  0
    1.9392    1.0573   -1.8558 H   0  0  0  0  0  0  0  0  0  0  0  0
    1.7352    2.7279    0.7529 H   0  0  0  0  0  0  0  0  0  0  0  0
    1.8236    3.3630   -0.9139 H   0  0  0  0  0  0  0  0  0  0  0  0
   -1.3188    1.7262   -1.9159 H   0  0  0  0  0  0  0  0  0  0  0  0
    0.2298    2.3366   -2.5162 H   0  0  0  0  0  0  0  0  0  0  0  0
   -0.4341    4.6998   -2.0167 H   0  0  0  0  0  0  0  0  0  0  0  0
   -1.9120    4.1318   -1.1427 H   0  0  0  0  0  0  0  0  0  0  0  0
   -2.2110    6.2479   -2.0730 H   0  0  0  0  0  0  0  0  0  0  0  0
   -3.6694    7.9649   -3.0910 H   0  0  0  0  0  0  0  0  0  0  0  0
   -4.8966    7.4819   -5.1899 H   0  0  0  0  0  0  0  0  0  0  0  0
   -4.6699    5.2715   -6.2890 H   0  0  0  0  0  0  0  0  0  0  0  0
   -3.1974    3.5242   -5.2784 H   0  0  0  0  0  0  0  0  0  0  0  0
   -1.6551    1.3798    0.3914 H   0  0  0  0  0  0  0  0  0  0  0  0
   -0.2718    1.5715    1.5007 H   0  0  0  0  0  0  0  0  0  0  0  0
  1  2  1  0  0  0  0
  1 26  1  0  0  0  0
  1 27  1  0  0  0  0
  2  3  1  0  0  0  0
  3  5  1  0  0  0  0
  3  4  2  0  0  0  0
  5 29  1  0  0  0  0
  6 31  1  0  0  0  0
  6  5  1  0  0  0  0
  7  2  1  0  0  0  0
  7  6  1  0  0  0  0
  8  9  1  0  0  0  0
  8  7  1  0  0  0  0
  9 32  1  0  0  0  0
 10 33  1  0  0  0  0
 10  9  2  0  0  0  0
 11 10  1  0  0  0  0
 12 11  2  0  0  0  0
 12 13  1  0  0  0  0
 13  8  2  0  0  0  0
 14 37  1  0  0  0  0
 14 15  1  0  0  0  0
 14  2  1  0  0  0  0
 15 39  1  0  0  0  0
 16 15  1  0  0  0  0
 16 26  1  0  0  0  0
 17 16  1  0  0  0  0
 18 17  1  0  0  0  0
 18 44  1  0  0  0  0
 19 18  1  0  0  0  0
 20 19  1  0  0  0  0
 20 21  2  0  0  0  0
 21 45  1  0  0  0  0
 22 46  1  0  0  0  0
 22 21  1  0  0  0  0
 23 22  2  0  0  0  0
 24 25  2  0  0  0  0
 24 23  1  0  0  0  0
 25 20  1  0  0  0  0
 26 51  1  0  0  0  0
 28  1  1  0  0  0  0
 30  6  1  0  0  0  0
 34 11  1  0  0  0  0
 35 12  1  0  0  0  0
 36 13  1  0  0  0  0
 38 14  1  0  0  0  0
 40 15  1  0  0  0  0
 41 17  1  0  0  0  0
 42 17  1  0  0  0  0
 43 18  1  0  0  0  0
 47 23  1  0  0  0  0
 48 24  1  0  0  0  0
 49 25  1  0  0  0  0
 50 26  1  0  0  0  0
M  END
$$$$
