51
rmsd217.gzmat
C          0.00000        0.00000        0.00000
C          1.53100        0.00000        0.00000
C          2.07190        0.00000        1.45210
O          1.75000        0.70020        2.37890
N          3.02920       -0.99560        1.54790
C          3.27350       -1.64330        0.24630
N          2.14190       -1.22420       -0.62790
C          1.21470       -2.27800       -0.93670
C          0.78080       -2.34170       -2.26710
C         -0.09440       -3.35210       -2.65360
C         -0.53680       -4.29340       -1.72510
C         -0.10410       -4.22510       -0.40170
C          0.76970       -3.21890       -0.00020
C          2.09750        1.20850       -0.76610
C          1.44850        2.51570       -0.27960
N         -0.02510        2.50740       -0.33650
C         -0.55340        2.55660       -1.71800
C         -1.32890        3.87770       -1.88710
O         -0.59550        4.76460       -2.72240
C          0.42070        5.49040       -2.18590
C          1.20250        6.13020       -3.16120
C          2.25650        6.93370       -2.74820
C          2.53100        7.09880       -1.38860
C          1.74470        6.45500       -0.43590
C          0.68220        5.64250       -0.82460
C         -0.54890        1.37200        0.44400
H         -0.39460       -0.79110        0.66500
H         -0.37420       -0.24290       -1.01410
H          3.56280       -1.20490        2.36480
H          4.21030       -1.24480       -0.22110
H          3.36130       -2.74640        0.35000
H          1.13980       -1.60620       -2.98640
H         -0.43140       -3.40860       -3.68770
H         -1.21930       -5.08230       -2.03360
H         -0.45260       -4.95940        0.32330
H          1.09670       -3.16130        1.03620
H          3.19580        1.26090       -0.65410
H          1.92050        1.06420       -1.85030
H          1.73470        2.71260        0.78230
H          1.83100        3.37720       -0.87030
H         -1.22360        1.70050       -1.93880
H          0.25200        2.51180       -2.48400
H         -1.58650        4.34470       -0.92120
H         -2.24930        3.74390       -2.48640
H          0.97260        5.98960       -4.21290
H          2.87560        7.43710       -3.48930
H          3.35780        7.72940       -1.07640
H          1.96090        6.58350        0.62420
H          0.08320        5.12590       -0.07510
H         -1.65740        1.37500        0.39210
H         -0.28070        1.55710        1.51480
