51
rmsd53.gzmat
C          0.00000        0.00000        0.00000
C          1.53890        0.00000        0.00000
C          2.06460        0.00000        1.45700
O          2.06620        0.90020        2.25860
N          2.58490       -1.25440        1.72310
C          2.38180       -2.18220        0.59650
N          1.96300       -1.33300       -0.55350
C          2.91160       -1.27610       -1.63020
C          4.29530       -1.17650       -1.44430
C          5.13640       -1.16600       -2.55340
C          4.60570       -1.24770       -3.83950
C          3.22610       -1.33860       -4.02090
C          2.37370       -1.35430       -2.92160
C          2.10400        1.20130       -0.76410
C          1.44920        2.51410       -0.28560
N         -0.02350        2.50050       -0.33590
C         -0.55440        2.54080       -1.71690
C         -1.16370        3.93710       -1.95070
O         -2.55990        3.82440       -2.19650
C         -3.39130        3.57290       -1.15060
C         -4.69940        3.26640       -1.55860
C         -5.65660        3.01110       -0.58630
C         -5.32030        3.05650        0.76900
C         -4.01740        3.36360        1.15370
C         -3.03870        3.62460        0.19740
C         -0.54290        1.36680        0.45130
H         -0.38850       -0.80390        0.65150
H         -0.36210       -0.24720       -1.01720
H          2.96720       -1.54450        2.59820
H          3.29840       -2.77800        0.39270
H          1.53160       -2.88000        0.80960
H          4.71310       -1.09870       -0.44270
H          6.21390       -1.08940       -2.41370
H          5.26790       -1.24050       -4.70250
H          2.81300       -1.40110       -5.02660
H          1.29500       -1.43550       -3.05070
H          3.20150        1.26560       -0.64180
H          1.92940        1.07140       -1.85070
H          1.74060        2.71700        0.77550
H          1.82490        3.36970       -0.88450
H         -1.34490        1.77410       -1.87880
H          0.22190        2.33130       -2.48030
H         -0.82400        4.38880       -2.90100
H         -0.95900        4.63540       -1.12040
H         -4.94070        3.23510       -2.61680
H         -6.67700        2.77230       -0.88290
H         -6.07650        2.85300        1.52080
H         -3.75630        3.40080        2.21100
H         -2.01870        3.85640        0.50430
H         -1.65440        1.37480        0.41020
H         -0.26700        1.55380        1.51810
