
     RDKit          3D

 51 54  0  0  0  0  0  0  0  0999 V2000
   -0.0446   -0.0152   -0.0802 C   0  0  0  0  0  0  0  0  0  0  0  0
    1.4880   -0.0553   -0.0116 C   0  0  0  0  0  0  0  0  0  0  0  0
    1.9969   -0.1517    1.4481 C   0  0  0  0  0  0  0  0  0  0  0  0
    1.6345    0.5100    2.4016 O   0  0  0  0  0  0  0  0  0  0  0  0
    2.9797   -1.1007    1.4544 N   0  0  0  0  0  0  0  0  0  0  0  0
    3.2878   -1.5751    0.1131 C   0  0  0  0  0  0  0  0  0  0  0  0
    2.0949   -1.2609   -0.6539 N   0  0  0  0  0  0  0  0  0  0  0  0
    1.2421   -2.3559   -0.9849 C   0  0  0  0  0  0  0  0  0  0  0  0
    0.6004   -2.3570   -2.2320 C   0  0  0  0  0  0  0  0  0  0  0  0
   -0.2503   -3.4028   -2.5929 C   0  0  0  0  0  0  0  0  0  0  0  0
   -0.4580   -4.4749   -1.7210 C   0  0  0  0  0  0  0  0  0  0  0  0
    0.1830   -4.4861   -0.4789 C   0  0  0  0  0  0  0  0  0  0  0  0
    1.0195   -3.4314   -0.1080 C   0  0  0  0  0  0  0  0  0  0  0  0
    2.0845    1.2211   -0.6546 C   0  0  0  0  0  0  0  0  0  0  0  0
    1.3943    2.5070   -0.1689 C   0  0  0  0  0  0  0  0  0  0  0  0
   -0.0539    2.4773   -0.3437 N   0  0  0  0  0  0  0  0  0  0  0  0
   -0.4501    2.5996   -1.7383 C   0  0  0  0  0  0  0  0  0  0  0  0
   -1.9536    2.7452   -1.9480 C   0  0  0  0  0  0  0  0  0  0  0  0
   -2.6781    1.5282   -1.8151 O   0  0  0  0  0  0  0  0  0  0  0  0
   -2.6121    0.5720   -2.7766 C   0  0  0  0  0  0  0  0  0  0  0  0
   -3.2164   -0.6560   -2.4563 C   0  0  0  0  0  0  0  0  0  0  0  0
   -3.2306   -1.6938   -3.3824 C   0  0  0  0  0  0  0  0  0  0  0  0
   -2.6386   -1.5328   -4.6416 C   0  0  0  0  0  0  0  0  0  0  0  0
   -2.0289   -0.3178   -4.9538 C   0  0  0  0  0  0  0  0  0  0  0  0
   -2.0088    0.7367   -4.0332 C   0  0  0  0  0  0  0  0  0  0  0  0
   -0.6074    1.3367    0.3890 C   0  0  0  0  0  0  0  0  0  0  0  0
   -0.4715   -0.8315    0.5215 H   0  0  0  0  0  0  0  0  0  0  0  0
   -0.3601   -0.2035   -1.1162 H   0  0  0  0  0  0  0  0  0  0  0  0
    3.6067   -1.1828    2.2473 H   0  0  0  0  0  0  0  0  0  0  0  0
    4.1715   -1.0471   -0.2982 H   0  0  0  0  0  0  0  0  0  0  0  0
    3.4989   -2.6530    0.0899 H   0  0  0  0  0  0  0  0  0  0  0  0
    0.7814   -1.5269   -2.9170 H   0  0  0  0  0  0  0  0  0  0  0  0
   -0.7457   -3.3774   -3.5644 H   0  0  0  0  0  0  0  0  0  0  0  0
   -1.1164   -5.2984   -2.0074 H   0  0  0  0  0  0  0  0  0  0  0  0
    0.0199   -5.3151    0.2145 H   0  0  0  0  0  0  0  0  0  0  0  0
    1.4871   -3.4288    0.8789 H   0  0  0  0  0  0  0  0  0  0  0  0
    3.1682    1.2756   -0.4561 H   0  0  0  0  0  0  0  0  0  0  0  0
    1.9745    1.1047   -1.7442 H   0  0  0  0  0  0  0  0  0  0  0  0
    1.6059    2.6506    0.9019 H   0  0  0  0  0  0  0  0  0  0  0  0
    1.8080    3.3768   -0.7054 H   0  0  0  0  0  0  0  0  0  0  0  0
   -0.0874    1.7716   -2.3838 H   0  0  0  0  0  0  0  0  0  0  0  0
    0.0218    3.5158   -2.1334 H   0  0  0  0  0  0  0  0  0  0  0  0
   -2.1567    3.1995   -2.9330 H   0  0  0  0  0  0  0  0  0  0  0  0
   -2.3639    3.4114   -1.1757 H   0  0  0  0  0  0  0  0  0  0  0  0
   -3.6707   -0.7653   -1.4701 H   0  0  0  0  0  0  0  0  0  0  0  0
   -3.7021   -2.6426   -3.1158 H   0  0  0  0  0  0  0  0  0  0  0  0
   -2.6514   -2.3479   -5.3683 H   0  0  0  0  0  0  0  0  0  0  0  0
   -1.5588   -0.1766   -5.9303 H   0  0  0  0  0  0  0  0  0  0  0  0
   -1.5270    1.6744   -4.3069 H   0  0  0  0  0  0  0  0  0  0  0  0
   -1.6991    1.3243    0.2878 H   0  0  0  0  0  0  0  0  0  0  0  0
   -0.3675    1.4788    1.4515 H   0  0  0  0  0  0  0  0  0  0  0  0
  1  2  1  0
  1 26  1  0
  1 27  1  0
  1 28  1  0
  2  3  1  0
  2  7  1  0
  2 14  1  0
  3  4  2  0
  3  5  1  0
  5  6  1  0
  5 29  1  0
  6  7  1  0
  6 30  1  0
  6 31  1  0
  7  8  1  0
  8  9  2  0
  8 13  1  0
  9 10  1  0
  9 32  1  0
 10 11  2  0
 10 33  1  0
 11 12  1  0
 11 34  1  0
 12 13  2  0
 12 35  1  0
 13 36  1  0
 14 15  1  0
 14 37  1  0
 14 38  1  0
 15 16  1  0
 15 39  1  0
 15 40  1  0
 16 17  1  0
 16 26  1  0
 17 18  1  0
 17 41  1  0
 17 42  1  0
 18 19  1  0
 18 43  1  0
 18 44  1  0
 19 20  1  0
 20 21  2  0
 20 25  1  0
 21 22  1  0
 21 45  1  0
 22 23  2  0
 22 46  1  0
 23 24  1  0
 23 47  1  0
 24 25  2  0
 24 48  1  0
 25 49  1  0
 26 50  1  0
 26 51  1  0
M  END

