
     RDKit          3D

 51 54  0  0  0  0  0  0  0  0999 V2000
    0.0559    0.1356    0.2473 C   0  0  0  0  0  0  0  0  0  0  0  0
    1.5871   -0.0879    0.1744 C   0  0  0  0  0  0  0  0  0  0  0  0
    2.1662   -0.0589    1.6020 C   0  0  0  0  0  0  0  0  0  0  0  0
    2.3177    0.9173    2.3108 O   0  0  0  0  0  0  0  0  0  0  0  0
    2.4373   -1.3474    1.9435 N   0  0  0  0  0  0  0  0  0  0  0  0
    2.0945   -2.3092    0.9247 C   0  0  0  0  0  0  0  0  0  0  0  0
    1.9428   -1.4647   -0.2478 N   0  0  0  0  0  0  0  0  0  0  0  0
    1.3813   -2.0304   -1.4195 C   0  0  0  0  0  0  0  0  0  0  0  0
    1.9210   -1.6927   -2.6734 C   0  0  0  0  0  0  0  0  0  0  0  0
    1.3743   -2.2096   -3.8486 C   0  0  0  0  0  0  0  0  0  0  0  0
    0.2983   -3.1003   -3.7949 C   0  0  0  0  0  0  0  0  0  0  0  0
   -0.2277   -3.4652   -2.5532 C   0  0  0  0  0  0  0  0  0  0  0  0
    0.3024   -2.9310   -1.3767 C   0  0  0  0  0  0  0  0  0  0  0  0
    2.2239    0.9854   -0.7223 C   0  0  0  0  0  0  0  0  0  0  0  0
    1.7549    2.4039   -0.3547 C   0  0  0  0  0  0  0  0  0  0  0  0
    0.3035    2.5439   -0.3672 N   0  0  0  0  0  0  0  0  0  0  0  0
   -0.3140    2.5995   -1.6817 C   0  0  0  0  0  0  0  0  0  0  0  0
   -1.4860    3.5837   -1.6816 C   0  0  0  0  0  0  0  0  0  0  0  0
   -2.1747    3.6025   -2.9207 O   0  0  0  0  0  0  0  0  0  0  0  0
   -1.6566    4.2730   -3.9826 C   0  0  0  0  0  0  0  0  0  0  0  0
   -2.3547    4.1337   -5.1945 C   0  0  0  0  0  0  0  0  0  0  0  0
   -1.9148    4.7938   -6.3383 C   0  0  0  0  0  0  0  0  0  0  0  0
   -0.7726    5.6036   -6.2986 C   0  0  0  0  0  0  0  0  0  0  0  0
   -0.0815    5.7409   -5.0947 C   0  0  0  0  0  0  0  0  0  0  0  0
   -0.5114    5.0834   -3.9365 C   0  0  0  0  0  0  0  0  0  0  0  0
   -0.3119    1.5974    0.5564 C   0  0  0  0  0  0  0  0  0  0  0  0
   -0.3891   -0.5369    1.0004 H   0  0  0  0  0  0  0  0  0  0  0  0
   -0.3676   -0.1600   -0.7262 H   0  0  0  0  0  0  0  0  0  0  0  0
    2.7528   -1.5938    2.8737 H   0  0  0  0  0  0  0  0  0  0  0  0
    2.8964   -3.0531    0.7662 H   0  0  0  0  0  0  0  0  0  0  0  0
    1.1754   -2.8676    1.2094 H   0  0  0  0  0  0  0  0  0  0  0  0
    2.7903   -1.0359   -2.7097 H   0  0  0  0  0  0  0  0  0  0  0  0
    1.8060   -1.9299   -4.8127 H   0  0  0  0  0  0  0  0  0  0  0  0
   -0.1223   -3.5132   -4.7144 H   0  0  0  0  0  0  0  0  0  0  0  0
   -1.0667   -4.1633   -2.4978 H   0  0  0  0  0  0  0  0  0  0  0  0
   -0.1370   -3.2075   -0.4170 H   0  0  0  0  0  0  0  0  0  0  0  0
    3.3213    0.9046   -0.6676 H   0  0  0  0  0  0  0  0  0  0  0  0
    1.9324    0.7742   -1.7627 H   0  0  0  0  0  0  0  0  0  0  0  0
    2.1177    2.6535    0.6523 H   0  0  0  0  0  0  0  0  0  0  0  0
    2.1910    3.1328   -1.0556 H   0  0  0  0  0  0  0  0  0  0  0  0
   -0.6847    1.6213   -2.0511 H   0  0  0  0  0  0  0  0  0  0  0  0
    0.4353    2.9333   -2.4150 H   0  0  0  0  0  0  0  0  0  0  0  0
   -1.1362    4.5887   -1.3926 H   0  0  0  0  0  0  0  0  0  0  0  0
   -2.2359    3.2749   -0.9390 H   0  0  0  0  0  0  0  0  0  0  0  0
   -3.2432    3.4996   -5.2059 H   0  0  0  0  0  0  0  0  0  0  0  0
   -2.4696    4.6754   -7.2725 H   0  0  0  0  0  0  0  0  0  0  0  0
   -0.4278    6.1195   -7.1970 H   0  0  0  0  0  0  0  0  0  0  0  0
    0.8116    6.3692   -5.0456 H   0  0  0  0  0  0  0  0  0  0  0  0
    0.0489    5.2112   -3.0108 H   0  0  0  0  0  0  0  0  0  0  0  0
   -1.4064    1.7162    0.5301 H   0  0  0  0  0  0  0  0  0  0  0  0
    0.0153    1.8483    1.5770 H   0  0  0  0  0  0  0  0  0  0  0  0
  1  2  1  0
  1 26  1  0
  1 27  1  0
  1 28  1  0
  2  3  1  0
  2  7  1  0
  2 14  1  0
  3  4  2  0
  3  5  1  0
  5  6  1  0
  5 29  1  0
  6  7  1  0
  6 30  1  0
  6 31  1  0
  7  8  1  0
  8  9  2  0
  8 13  1  0
  9 10  1  0
  9 32  1  0
 10 11  2  0
 10 33  1  0
 11 12  1  0
 11 34  1  0
 12 13  2  0
 12 35  1  0
 13 36  1  0
 14 15  1  0
 14 37  1  0
 14 38  1  0
 15 16  1  0
 15 39  1  0
 15 40  1  0
 16 17  1  0
 16 26  1  0
 17 18  1  0
 17 41  1  0
 17 42  1  0
 18 19  1  0
 18 43  1  0
 18 44  1  0
 19 20  1  0
 20 21  2  0
 20 25  1  0
 21 22  1  0
 21 45  1  0
 22 23  2  0
 22 46  1  0
 23 24  1  0
 23 47  1  0
 24 25  2  0
 24 48  1  0
 25 49  1  0
 26 50  1  0
 26 51  1  0
M  END

