51
rmsd109.gzmat
C          0.00000        0.00000        0.00000
C          1.53630        0.00000        0.00000
C          2.02980        0.00000        1.46470
O          1.86300        0.84130        2.31230
N          2.69750       -1.18940        1.69830
C          2.87930       -1.97900        0.47000
N          2.15300       -1.23210       -0.59450
C          1.29090       -2.01180       -1.43040
C          1.29200       -1.66930       -2.79070
C          0.50060       -2.38770       -3.68030
C         -0.28470       -3.44660       -3.22600
C         -0.28070       -3.78700       -1.87490
C          0.49870       -3.07030       -0.97070
C          2.11540        1.19780       -0.76900
C          1.45380        2.51260       -0.31980
N         -0.01850        2.49350       -0.40090
C         -0.51650        2.46600       -1.79280
C         -1.72650        3.41870       -1.84160
O         -2.17230        3.54610       -3.18500
C         -1.44790        4.31140       -4.04210
C         -1.91610        4.23440       -5.36440
C         -1.27680        4.98340       -6.34150
C         -0.18520        5.79290       -6.01370
C          0.26500        5.85450       -4.69820
C         -0.36210        5.11530       -3.69600
C         -0.54810        1.38200        0.41060
H         -0.39150       -0.77950        0.67830
H         -0.38100       -0.26300       -1.00740
H          3.17270       -1.41760        2.54730
H          3.95770       -2.00490        0.16650
H          2.51880       -3.02210        0.61850
H          1.92230       -0.85250       -3.13980
H          0.49920       -2.12340       -4.73720
H         -0.89950       -4.00650       -3.92710
H         -0.89240       -4.61550       -1.52050
H          0.47760       -3.32910        0.08530
H          3.21130        1.24930       -0.62980
H          1.96400        1.04120       -1.85480
H          1.72120        2.73010        0.74390
H          1.83960        3.36400       -0.91830
H         -0.81150        1.45640       -2.14570
H          0.26060        2.81380       -2.50640
H         -1.50920        4.40010       -1.38870
H         -2.62120        2.98820       -1.35420
H         -2.76400        3.59690       -5.59820
H         -1.62720        4.94050       -7.37200
H          0.30900        6.37260       -6.78740
H          1.11590        6.48540       -4.44440
H         -0.00800        5.17850       -2.67180
H         -1.65670        1.38610        0.35180
H         -0.28470        1.59600        1.47600
