51

C          0.05590        0.13560        0.24730
C          1.58710       -0.08790        0.17440
C          2.16620       -0.05890        1.60200
O          2.31770        0.91730        2.31080
N          2.43730       -1.34740        1.94350
C          2.09450       -2.30920        0.92470
N          1.94280       -1.46470       -0.24780
C          1.38130       -2.03040       -1.41950
C          1.92100       -1.69270       -2.67340
C          1.37430       -2.20960       -3.84860
C          0.29830       -3.10030       -3.79490
C         -0.22770       -3.46520       -2.55320
C          0.30240       -2.93100       -1.37670
C          2.22390        0.98540       -0.72230
C          1.75490        2.40390       -0.35470
N          0.30350        2.54390       -0.36720
C         -0.31400        2.59950       -1.68170
C         -1.48600        3.58370       -1.68160
O         -2.17470        3.60250       -2.92070
C         -1.65660        4.27300       -3.98260
C         -2.35470        4.13370       -5.19450
C         -1.91480        4.79380       -6.33830
C         -0.77260        5.60360       -6.29860
C         -0.08150        5.74090       -5.09470
C         -0.51140        5.08340       -3.93650
C         -0.31190        1.59740        0.55640
H         -0.38910       -0.53690        1.00040
H         -0.36760       -0.16000       -0.72620
H          2.75280       -1.59380        2.87370
H          2.89640       -3.05310        0.76620
H          1.17540       -2.86760        1.20940
H          2.79030       -1.03590       -2.70970
H          1.80600       -1.92990       -4.81270
H         -0.12230       -3.51320       -4.71440
H         -1.06670       -4.16330       -2.49780
H         -0.13700       -3.20750       -0.41700
H          3.32130        0.90460       -0.66760
H          1.93240        0.77420       -1.76270
H          2.11770        2.65350        0.65230
H          2.19100        3.13280       -1.05560
H         -0.68470        1.62130       -2.05110
H          0.43530        2.93330       -2.41500
H         -1.13620        4.58870       -1.39260
H         -2.23590        3.27490       -0.93900
H         -3.24320        3.49960       -5.20590
H         -2.46960        4.67540       -7.27250
H         -0.42780        6.11950       -7.19700
H          0.81160        6.36920       -5.04560
H          0.04890        5.21120       -3.01080
H         -1.40640        1.71620        0.53010
H          0.01530        1.84830        1.57700
