51
rmsd144.gzmat
C          0.00000        0.00000        0.00000
C          1.53220        0.00000        0.00000
C          2.06210        0.00000        1.45510
O          1.75720        0.72550        2.36830
N          2.97730       -1.03100        1.57670
C          3.22160       -1.70140        0.28750
N          2.14430       -1.22470       -0.62440
C          1.20990       -2.24190       -1.01920
C          0.85030       -2.24810       -2.37320
C         -0.03200       -3.21650       -2.84230
C         -0.55250       -4.17420       -1.97290
C         -0.19170       -4.16430       -0.62660
C          0.68670       -3.19940       -0.14200
C          2.10020        1.20860       -0.76460
C          1.45450        2.51530       -0.27140
N         -0.01840        2.50830       -0.33680
C         -0.53540        2.54990       -1.72290
C         -1.77730        3.46230       -1.73960
O         -1.60350        4.51010       -2.68470
C         -0.75760        5.53110       -2.37970
C         -0.09250        5.70140       -1.16640
C          0.73730        6.80920       -1.01090
C          0.89990        7.72520       -2.04790
C          0.22340        7.53990       -3.25580
C         -0.60990        6.44430       -3.43580
C         -0.55220        1.37310        0.43720
H         -0.39370       -0.78850        0.66850
H         -0.37610       -0.24900       -1.01220
H          3.49680       -1.24380        2.40180
H          4.19400       -1.36400       -0.15490
H          3.24090       -2.80720        0.40390
H          1.27030       -1.50070       -3.04580
H         -0.31420       -3.22660       -3.89430
H         -1.24020       -4.93020       -2.34590
H         -0.60170       -4.91170        0.05140
H          0.95500       -3.18590        0.91250
H          3.19900        1.25540       -0.65650
H          1.91840        1.06830       -1.84810
H          1.73490        2.70120        0.79480
H          1.83980        3.38190       -0.85060
H         -0.78170        1.54820       -2.12870
H          0.22780        2.97420       -2.41450
H         -2.01920        3.87000       -0.74180
H         -2.66750        2.95490       -2.15470
H         -0.20840        4.98400       -0.35260
H          1.26180        6.95670       -0.06720
H          1.55100        8.58430       -1.91930
H          0.35120        8.25970       -4.06250
H         -1.14410        6.28280       -4.36690
H         -1.66000        1.37690        0.36950
H         -0.29780        1.55740        1.51100
