29
rmsd160.gzmat
Cl         0.00000        0.00000        0.00000
C          1.71160        0.00000        0.00000
C          2.37930        0.00000        1.21700
C          3.77130        0.00020        1.22260
C          4.46880       -0.00620        0.00610
C          3.76800       -0.00900       -1.21650
C          2.37920       -0.00390       -1.21900
N          5.88050        0.02840       -0.06930
C          6.72560       -0.32870        0.97000
O          6.32630       -0.64070        2.07040
C          8.19670       -0.21450        0.70140
C          8.88020       -0.82590       -0.34950
C         10.27160       -0.72670       -0.43490
C         10.97750        0.00950        0.51350
C         10.29570        0.63710        1.55420
C          8.91130        0.51700        1.65350
C          8.19370       -1.57100       -1.42270
O          7.26400       -1.20530       -2.10150
O          8.77810       -2.77000       -1.63620
H          1.83190       -0.00230        2.16050
H          4.30440        0.00090        2.17690
H          4.31180       -0.02390       -2.16070
H          1.83150       -0.00780       -2.16180
H          6.27980        0.12420       -1.00890
H         10.80530       -1.23060       -1.24420
H         12.06200        0.08880        0.44340
H         10.84560        1.21460        2.29780
H          8.37870        0.98280        2.48800
H          8.33670       -3.29960       -2.35350
