29
rmsd145.gzmat
Cl         0.00000        0.00000        0.00000
C          1.71160        0.00000        0.00000
C          2.38000        0.00000        1.21630
C          3.77190       -0.00830        1.22070
C          4.46870       -0.00810        0.00370
C          3.76710       -0.00010       -1.21850
C          2.37810        0.00130       -1.21970
N          5.87970       -0.06190       -0.07090
C          6.72960        0.27450        0.97160
O          6.33350        0.60460        2.06790
C          8.19750        0.10790        0.71390
C          8.90920        0.68000       -0.34030
C         10.29570        0.52330       -0.41880
C         10.96780       -0.22900        0.54140
C         10.25780       -0.81350        1.58830
C          8.87880       -0.63760        1.67960
C          8.25830        1.44550       -1.42130
O          7.32080        1.11190       -2.10580
O          8.88740        2.62290       -1.63140
H          1.83290        0.00500        2.16050
H          4.30520       -0.01350        2.17460
H          4.31000        0.01170       -2.16330
H          1.82920        0.00600       -2.16220
H          6.27870       -0.17150       -1.00930
H         10.85240        0.99540       -1.23150
H         12.04820       -0.35430        0.47630
H         10.78170       -1.40060        2.34300
H          8.32440       -1.07100        2.51750
H          8.47230        3.16680       -2.35390
