29
rmsd156.gzmat
Cl         0.00000        0.00000        0.00000
C          1.71170        0.00000        0.00000
C          2.38080        0.00000        1.21610
C          3.77290       -0.00210        1.22000
C          4.46890        0.00200        0.00270
C          3.76660        0.00410       -1.21920
C          2.37780        0.00100       -1.22000
N          5.88010       -0.03730       -0.07590
C          6.73220        0.28940        0.96830
O          6.34040        0.58810        2.07500
C          8.20010        0.15630        0.69060
C          8.88740        0.77770       -0.35180
C         10.27530        0.64870       -0.45360
C         10.97330       -0.12450        0.47080
C         10.28800       -0.75670        1.50650
C          8.90740       -0.60920        1.62150
C          8.20910        1.57130       -1.39550
O          7.26880        1.24800       -2.08050
O          8.81680        2.76580       -1.56830
H          1.83440        0.00200        2.16060
H          4.30670       -0.00350        2.17350
H          4.30910        0.01500       -2.16460
H          1.82850        0.00250       -2.16220
H          6.27660       -0.11780       -1.01840
H         10.81240        1.15960       -1.25590
H         12.05480       -0.22820        0.38680
H         10.83250       -1.35910        2.23400
H          8.37230       -1.08060        2.45140
H          8.38380        3.33080       -2.26370
