rmsd154.gzmat
 OpenBabel08211713383D

 29 30  0  0  0  0  0  0  0  0999 V2000
    0.0000    0.0000    0.0000 Cl  0  0  0  0  0  0  0  0  0  0  0  0
    1.7116    0.0000    0.0000 C   0  0  0  0  0  0  0  0  0  0  0  0
    2.3798    0.0000    1.2169 C   0  0  0  0  0  0  0  0  0  0  0  0
    3.7717    0.0072    1.2218 C   0  0  0  0  0  0  0  0  0  0  0  0
    4.4684    0.0024    0.0048 C   0  0  0  0  0  0  0  0  0  0  0  0
    3.7671   -0.0061   -1.2172 C   0  0  0  0  0  0  0  0  0  0  0  0
    2.3782   -0.0011   -1.2193 C   0  0  0  0  0  0  0  0  0  0  0  0
    5.8797    0.0488   -0.0705 N   0  0  0  0  0  0  0  0  0  0  0  0
    6.7287   -0.2999    0.9688 C   0  0  0  0  0  0  0  0  0  0  0  0
    6.3327   -0.6249    2.0666 O   0  0  0  0  0  0  0  0  0  0  0  0
    8.1980   -0.1556    0.7041 C   0  0  0  0  0  0  0  0  0  0  0  0
    8.8963   -0.7434   -0.3503 C   0  0  0  0  0  0  0  0  0  0  0  0
   10.2851   -0.6102   -0.4338 C   0  0  0  0  0  0  0  0  0  0  0  0
   10.9724    0.1356    0.5206 C   0  0  0  0  0  0  0  0  0  0  0  0
   10.2755    0.7366    1.5670 C   0  0  0  0  0  0  0  0  0  0  0  0
    8.8942    0.5840    1.6631 C   0  0  0  0  0  0  0  0  0  0  0  0
    8.2285   -1.4938   -1.4314 C   0  0  0  0  0  0  0  0  0  0  0  0
    7.2957   -1.1388   -2.1116 O   0  0  0  0  0  0  0  0  0  0  0  0
    8.8355   -2.6802   -1.6529 O   0  0  0  0  0  0  0  0  0  0  0  0
    1.8326   -0.0052    2.1608 H   0  0  0  0  0  0  0  0  0  0  0  0
    4.3058    0.0148    2.1753 H   0  0  0  0  0  0  0  0  0  0  0  0
    4.3104   -0.0244   -2.1615 H   0  0  0  0  0  0  0  0  0  0  0  0
    1.8295   -0.0008   -2.1621 H   0  0  0  0  0  0  0  0  0  0  0  0
    6.2785    0.1584   -1.0091 H   0  0  0  0  0  0  0  0  0  0  0  0
   10.8312   -1.0948   -1.2463 H   0  0  0  0  0  0  0  0  0  0  0  0
   12.0542    0.2443    0.4499 H   0  0  0  0  0  0  0  0  0  0  0  0
   10.8114    1.3194    2.3168 H   0  0  0  0  0  0  0  0  0  0  0  0
    8.3488    1.0324    2.4993 H   0  0  0  0  0  0  0  0  0  0  0  0
    8.4082   -3.2088   -2.3799 H   0  0  0  0  0  0  0  0  0  0  0  0
  1  2  1  0  0  0  0
  2  3  2  0  0  0  0
  3  4  1  0  0  0  0
  3 20  1  0  0  0  0
  4 21  1  0  0  0  0
  5  4  2  0  0  0  0
  6  5  1  0  0  0  0
  7  6  2  0  0  0  0
  7  2  1  0  0  0  0
  8  5  1  0  0  0  0
  8  9  1  0  0  0  0
  9 10  2  0  0  0  0
 11  9  1  0  0  0  0
 11 16  2  0  0  0  0
 12 11  1  0  0  0  0
 13 12  2  0  0  0  0
 13 14  1  0  0  0  0
 14 15  2  0  0  0  0
 15 16  1  0  0  0  0
 15 27  1  0  0  0  0
 16 28  1  0  0  0  0
 17 12  1  0  0  0  0
 18 17  2  0  0  0  0
 19 17  1  0  0  0  0
 22  6  1  0  0  0  0
 23  7  1  0  0  0  0
 24  8  1  0  0  0  0
 25 13  1  0  0  0  0
 26 14  1  0  0  0  0
 29 19  1  0  0  0  0
M  END
$$$$
