rmsd163.gzmat
 OpenBabel08211713383D

 29 30  0  0  0  0  0  0  0  0999 V2000
    0.0000    0.0000    0.0000 Cl  0  0  0  0  0  0  0  0  0  0  0  0
    1.7116    0.0000    0.0000 C   0  0  0  0  0  0  0  0  0  0  0  0
    2.3776    0.0000    1.2200 C   0  0  0  0  0  0  0  0  0  0  0  0
    3.7666    0.0019    1.2190 C   0  0  0  0  0  0  0  0  0  0  0  0
    4.4676   -0.0064   -0.0030 C   0  0  0  0  0  0  0  0  0  0  0  0
    3.7718   -0.0076   -1.2204 C   0  0  0  0  0  0  0  0  0  0  0  0
    2.3801   -0.0002   -1.2164 C   0  0  0  0  0  0  0  0  0  0  0  0
    5.8790   -0.0579    0.0714 N   0  0  0  0  0  0  0  0  0  0  0  0
    6.7257    0.3212   -0.9588 C   0  0  0  0  0  0  0  0  0  0  0  0
    6.3267    0.6710   -2.0477 O   0  0  0  0  0  0  0  0  0  0  0  0
    8.1956    0.1801   -0.6968 C   0  0  0  0  0  0  0  0  0  0  0  0
    8.8870    0.7437    0.3751 C   0  0  0  0  0  0  0  0  0  0  0  0
   10.2762    0.6159    0.4599 C   0  0  0  0  0  0  0  0  0  0  0  0
   10.9712   -0.0999   -0.5120 C   0  0  0  0  0  0  0  0  0  0  0  0
   10.2816   -0.6760   -1.5768 C   0  0  0  0  0  0  0  0  0  0  0  0
    8.8996   -0.5282   -1.6741 C   0  0  0  0  0  0  0  0  0  0  0  0
    8.2138    1.4687    1.4703 C   0  0  0  0  0  0  0  0  0  0  0  0
    7.2745    1.1029    2.1355 O   0  0  0  0  0  0  0  0  0  0  0  0
    8.8256    2.6464    1.7236 O   0  0  0  0  0  0  0  0  0  0  0  0
    1.8291    0.0021    2.1627 H   0  0  0  0  0  0  0  0  0  0  0  0
    4.3105    0.0186    2.1633 H   0  0  0  0  0  0  0  0  0  0  0  0
    4.3074   -0.0121   -2.1728 H   0  0  0  0  0  0  0  0  0  0  0  0
    1.8340    0.0037   -2.1611 H   0  0  0  0  0  0  0  0  0  0  0  0
    6.2771   -0.1830    1.0080 H   0  0  0  0  0  0  0  0  0  0  0  0
   10.8171    1.0812    1.2870 H   0  0  0  0  0  0  0  0  0  0  0  0
   12.0535   -0.2024   -0.4412 H   0  0  0  0  0  0  0  0  0  0  0  0
   10.8235   -1.2351   -2.3402 H   0  0  0  0  0  0  0  0  0  0  0  0
    8.3609   -0.9541   -2.5258 H   0  0  0  0  0  0  0  0  0  0  0  0
    8.3973    3.1607    2.4597 H   0  0  0  0  0  0  0  0  0  0  0  0
  1  2  1  0  0  0  0
  2  3  2  0  0  0  0
  3 20  1  0  0  0  0
  4  3  1  0  0  0  0
  4 21  1  0  0  0  0
  5  8  1  0  0  0  0
  5  4  2  0  0  0  0
  6  7  2  0  0  0  0
  6  5  1  0  0  0  0
  7  2  1  0  0  0  0
  8 24  1  0  0  0  0
  9 11  1  0  0  0  0
  9  8  1  0  0  0  0
 10  9  2  0  0  0  0
 11 12  2  0  0  0  0
 12 13  1  0  0  0  0
 12 17  1  0  0  0  0
 13 25  1  0  0  0  0
 14 26  1  0  0  0  0
 14 13  2  0  0  0  0
 15 14  1  0  0  0  0
 16 15  2  0  0  0  0
 16 11  1  0  0  0  0
 17 19  1  0  0  0  0
 17 18  2  0  0  0  0
 19 29  1  0  0  0  0
 22  6  1  0  0  0  0
 23  7  1  0  0  0  0
 27 15  1  0  0  0  0
 28 16  1  0  0  0  0
M  END
$$$$
