29
rmsd163.gzmat
Cl         0.00000        0.00000        0.00000
C          1.71160        0.00000        0.00000
C          2.37760        0.00000        1.22000
C          3.76660        0.00190        1.21900
C          4.46760       -0.00640       -0.00300
C          3.77180       -0.00760       -1.22040
C          2.38010       -0.00020       -1.21640
N          5.87900       -0.05790        0.07140
C          6.72570        0.32120       -0.95880
O          6.32670        0.67100       -2.04770
C          8.19560        0.18010       -0.69680
C          8.88700        0.74370        0.37510
C         10.27620        0.61590        0.45990
C         10.97120       -0.09990       -0.51200
C         10.28160       -0.67600       -1.57680
C          8.89960       -0.52820       -1.67410
C          8.21380        1.46870        1.47030
O          7.27450        1.10290        2.13550
O          8.82560        2.64640        1.72360
H          1.82910        0.00210        2.16270
H          4.31050        0.01860        2.16330
H          4.30740       -0.01210       -2.17280
H          1.83400        0.00370       -2.16110
H          6.27710       -0.18300        1.00800
H         10.81710        1.08120        1.28700
H         12.05350       -0.20240       -0.44120
H         10.82350       -1.23510       -2.34020
H          8.36090       -0.95410       -2.52580
H          8.39730        3.16070        2.45970
