45
rmsd6.gzmat
C          0.00000        0.00000        0.00000
C          1.54190        0.00000        0.00000
N          2.04700        0.00000        1.38240
C          1.28950        0.74370        2.33510
C          1.03780        0.26690        3.56230
C          0.82720        2.05410        1.88320
C          0.01970        2.34100        0.83930
C         -0.29810        3.77230        0.53730
N         -0.53820        1.37490       -0.03350
C         -1.74780        1.61560       -0.70210
O         -2.36590        2.64200       -0.53530
C         -2.23910        0.57390       -1.64870
C         -3.33110       -0.21060       -1.27800
C         -3.85060       -1.13670       -2.18090
C         -3.25770       -1.24080       -3.43340
C         -2.17550       -0.46080       -3.82370
C         -1.66300        0.46200       -2.91440
Cl        -3.88840       -2.37630       -4.54470
C          3.26820       -0.61020        1.63270
O          3.80400       -1.24580        0.74580
C          3.88310       -0.45480        2.97790
C          4.18460       -1.60550        3.70710
C          4.78320       -1.49090        4.96080
C          5.07680       -0.21860        5.43490
C          4.81000        0.93890        4.71370
C          4.20470        0.81290        3.46530
Cl         5.80240       -0.06650        6.97780
H         -0.35580       -0.57230       -0.88660
H         -0.39400       -0.53560        0.89850
H          1.94420        0.88050       -0.55230
H          1.92640       -0.90850       -0.52880
H          0.47660        0.81950        4.29770
H          1.36450       -0.69380        3.92140
H          1.20550        2.87120        2.50360
H         -1.29420        4.04860        0.93160
H         -0.33040        3.98260       -0.54310
H          0.43190        4.46290        0.97910
H         -3.78370       -0.09310       -0.29140
H         -4.70620       -1.75450       -1.90660
H         -1.73560       -0.55940       -4.81640
H         -0.81960        1.09560       -3.19500
H          3.95950       -2.59000        3.29100
H          5.01480       -2.38160        5.54460
H          5.06000        1.92350        5.10790
H          3.97830        1.70200        2.87460
