
     RDKit          3D

 45 47  0  0  0  0  0  0  0  0999 V2000
    0.0974   -0.0383   -0.0593 C   0  0  0  0  0  0  0  0  0  0  0  0
    1.6088   -0.2825    0.0165 C   0  0  0  0  0  0  0  0  0  0  0  0
    2.0863   -0.1443    1.3876 N   0  0  0  0  0  0  0  0  0  0  0  0
    1.2729   -0.7992    2.3877 C   0  0  0  0  0  0  0  0  0  0  0  0
    1.6597   -1.9816    2.8870 C   0  0  0  0  0  0  0  0  0  0  0  0
    0.0679   -0.0774    2.8172 C   0  0  0  0  0  0  0  0  0  0  0  0
   -0.5848    0.8798    2.1210 C   0  0  0  0  0  0  0  0  0  0  0  0
   -1.7222    1.6722    2.6952 C   0  0  0  0  0  0  0  0  0  0  0  0
   -0.2837    1.1279    0.7431 N   0  0  0  0  0  0  0  0  0  0  0  0
    0.0371    2.4179    0.3349 C   0  0  0  0  0  0  0  0  0  0  0  0
    0.2067    3.3296    1.1257 O   0  0  0  0  0  0  0  0  0  0  0  0
    0.1846    2.6508   -1.1434 C   0  0  0  0  0  0  0  0  0  0  0  0
   -0.7976    2.2746   -2.0712 C   0  0  0  0  0  0  0  0  0  0  0  0
   -0.6426    2.5665   -3.4265 C   0  0  0  0  0  0  0  0  0  0  0  0
    0.5134    3.2261   -3.8575 C   0  0  0  0  0  0  0  0  0  0  0  0
    1.4972    3.6201   -2.9461 C   0  0  0  0  0  0  0  0  0  0  0  0
    1.3155    3.3453   -1.5920 C   0  0  0  0  0  0  0  0  0  0  0  0
    0.7236    3.5676   -5.5557 Cl  0  0  0  0  0  0  0  0  0  0  0  0
    2.8518    0.9100    1.8694 C   0  0  0  0  0  0  0  0  0  0  0  0
    2.9119    1.1496    3.0616 O   0  0  0  0  0  0  0  0  0  0  0  0
    3.5978    1.7745    0.8912 C   0  0  0  0  0  0  0  0  0  0  0  0
    3.6161    3.1508    1.1636 C   0  0  0  0  0  0  0  0  0  0  0  0
    4.2735    4.0368    0.3126 C   0  0  0  0  0  0  0  0  0  0  0  0
    4.9311    3.5378   -0.8161 C   0  0  0  0  0  0  0  0  0  0  0  0
    4.9768    2.1656   -1.0733 C   0  0  0  0  0  0  0  0  0  0  0  0
    4.3114    1.2899   -0.2141 C   0  0  0  0  0  0  0  0  0  0  0  0
    5.6821    4.6470   -1.9371 Cl  0  0  0  0  0  0  0  0  0  0  0  0
   -0.1957    0.0943   -1.1067 H   0  0  0  0  0  0  0  0  0  0  0  0
   -0.4607   -0.8982    0.3330 H   0  0  0  0  0  0  0  0  0  0  0  0
    2.1145    0.4564   -0.6131 H   0  0  0  0  0  0  0  0  0  0  0  0
    1.8451   -1.2850   -0.3805 H   0  0  0  0  0  0  0  0  0  0  0  0
    1.0610   -2.4952    3.6422 H   0  0  0  0  0  0  0  0  0  0  0  0
    2.5936   -2.4436    2.5621 H   0  0  0  0  0  0  0  0  0  0  0  0
   -0.3151   -0.3310    3.8077 H   0  0  0  0  0  0  0  0  0  0  0  0
   -2.6139    1.5960    2.0506 H   0  0  0  0  0  0  0  0  0  0  0  0
   -1.4480    2.7354    2.7564 H   0  0  0  0  0  0  0  0  0  0  0  0
   -1.9749    1.3148    3.7025 H   0  0  0  0  0  0  0  0  0  0  0  0
   -1.7013    1.7632   -1.7313 H   0  0  0  0  0  0  0  0  0  0  0  0
   -1.4088    2.2881   -4.1513 H   0  0  0  0  0  0  0  0  0  0  0  0
    2.3932    4.1384   -3.2909 H   0  0  0  0  0  0  0  0  0  0  0  0
    2.0629    3.6646   -0.8687 H   0  0  0  0  0  0  0  0  0  0  0  0
    3.0760    3.5177    2.0369 H   0  0  0  0  0  0  0  0  0  0  0  0
    4.2606    5.1106    0.5035 H   0  0  0  0  0  0  0  0  0  0  0  0
    5.5217    1.7937   -1.9418 H   0  0  0  0  0  0  0  0  0  0  0  0
    4.3579    0.2171   -0.4104 H   0  0  0  0  0  0  0  0  0  0  0  0
  1  2  1  0
  1  9  1  0
  1 28  1  0
  1 29  1  0
  2  3  1  0
  2 30  1  0
  2 31  1  0
  3  4  1  0
  3 19  1  0
  4  5  2  3
  4  6  1  0
  5 32  1  0
  5 33  1  0
  6  7  2  0
  6 34  1  0
  7  8  1  0
  7  9  1  0
  8 35  1  0
  8 36  1  0
  8 37  1  0
  9 10  1  0
 10 11  2  0
 10 12  1  0
 12 13  2  0
 12 17  1  0
 13 14  1  0
 13 38  1  0
 14 15  2  0
 14 39  1  0
 15 16  1  0
 15 18  1  0
 16 17  2  0
 16 40  1  0
 17 41  1  0
 19 20  2  0
 19 21  1  0
 21 22  2  0
 21 26  1  0
 22 23  1  0
 22 42  1  0
 23 24  2  0
 23 43  1  0
 24 25  1  0
 24 27  1  0
 25 26  2  0
 25 44  1  0
 26 45  1  0
M  END

