45
rmsd5.gzmat
C          0.00000        0.00000        0.00000
C          1.55290        0.00000        0.00000
N          2.09770        0.00000        1.36270
C          1.48650       -0.95460        2.25740
C          2.12050       -2.10920        2.49950
C          0.20840       -0.59260        2.86150
C         -0.69980        0.26120        2.34650
C         -1.93390        0.65150        3.08750
N         -0.58030        0.84910        1.04900
C         -0.54060        2.24870        0.95070
O         -0.71010        2.92440        1.94170
C         -0.32160        2.83940       -0.39430
C         -1.29240        2.71520       -1.38860
C         -1.08040        3.30250       -2.63390
C          0.10230        4.00420       -2.83740
C          1.07330        4.15320       -1.85600
C          0.85080        3.56430       -0.61200
Cl         0.37050        4.72060       -4.36910
C          2.61430        1.19900        1.85800
O          2.92510        2.08440        1.08770
C          2.79730        1.30810        3.32830
C          3.77950        0.56940        3.98490
C          3.92590        0.69650        5.36520
C          3.07670        1.56550        6.03830
C          2.09890        2.31870        5.40080
C          1.96320        2.18770        4.02060
Cl         3.24620        1.71740        7.73650
H         -0.37290        0.33200       -0.99500
H         -0.37790       -1.03970        0.14410
H          1.94360        0.88680       -0.55780
H          1.92850       -0.90220       -0.53320
H          1.72710       -2.87200        3.15170
H          3.07250       -2.36890        2.06210
H          0.01650       -1.06520        3.82750
H         -2.80870        0.73690        2.42620
H         -1.80480        1.64650        3.55860
H         -2.18690       -0.05820        3.88530
H         -2.21500        2.16800       -1.19160
H         -1.82790        3.21230       -3.42110
H          1.99000        4.71510       -2.03990
H          1.59660        3.66950        0.18710
H          4.42580       -0.10590        3.42300
H          4.68760        0.12500        5.89300
H          1.45060        2.99750        5.95480
H          1.20450        2.76810        3.48400
