rmsd1.gzmat
 OpenBabel08211713373D

 45 47  0  0  0  0  0  0  0  0999 V2000
    0.0000    0.0000    0.0000 C   0  0  0  0  0  0  0  0  0  0  0  0
    1.5461    0.0000    0.0000 C   0  0  0  0  0  0  0  0  0  0  0  0
    2.0990    0.0000    1.3575 N   0  0  0  0  0  0  0  0  0  0  0  0
    1.3043   -0.6667    2.3631 C   0  0  0  0  0  0  0  0  0  0  0  0
    1.6869   -1.8737    2.7988 C   0  0  0  0  0  0  0  0  0  0  0  0
    0.1263    0.0333    2.8705 C   0  0  0  0  0  0  0  0  0  0  0  0
   -0.6951    0.8582    2.1891 C   0  0  0  0  0  0  0  0  0  0  0  0
   -1.8375    1.5518    2.8516 C   0  0  0  0  0  0  0  0  0  0  0  0
   -0.5662    1.1001    0.7880 N   0  0  0  0  0  0  0  0  0  0  0  0
   -0.5806    2.4139    0.3049 C   0  0  0  0  0  0  0  0  0  0  0  0
   -0.9820    3.3192    1.0018 O   0  0  0  0  0  0  0  0  0  0  0  0
   -0.0746    2.6695   -1.0737 C   0  0  0  0  0  0  0  0  0  0  0  0
   -0.7364    2.2076   -2.2094 C   0  0  0  0  0  0  0  0  0  0  0  0
   -0.2121    2.4841   -3.4715 C   0  0  0  0  0  0  0  0  0  0  0  0
    0.9555    3.2332   -3.5535 C   0  0  0  0  0  0  0  0  0  0  0  0
    1.6041    3.7431   -2.4360 C   0  0  0  0  0  0  0  0  0  0  0  0
    1.0722    3.4584   -1.1812 C   0  0  0  0  0  0  0  0  0  0  0  0
    1.6223    3.5511   -5.0947 Cl  0  0  0  0  0  0  0  0  0  0  0  0
    3.0586    0.9107    1.7890 C   0  0  0  0  0  0  0  0  0  0  0  0
    3.3441    0.9820    2.9641 O   0  0  0  0  0  0  0  0  0  0  0  0
    3.7351    1.7456    0.7557 C   0  0  0  0  0  0  0  0  0  0  0  0
    3.6990    3.1306    0.9210 C   0  0  0  0  0  0  0  0  0  0  0  0
    4.2718    3.9556   -0.0457 C   0  0  0  0  0  0  0  0  0  0  0  0
    4.8731    3.3584   -1.1465 C   0  0  0  0  0  0  0  0  0  0  0  0
    4.9702    1.9810   -1.3015 C   0  0  0  0  0  0  0  0  0  0  0  0
    4.3980    1.1664   -0.3266 C   0  0  0  0  0  0  0  0  0  0  0  0
    5.5073    4.3646   -2.3764 Cl  0  0  0  0  0  0  0  0  0  0  0  0
   -0.3735    0.0490   -1.0466 H   0  0  0  0  0  0  0  0  0  0  0  0
   -0.3837   -0.9657    0.4117 H   0  0  0  0  0  0  0  0  0  0  0  0
    1.9109    0.8793   -0.5791 H   0  0  0  0  0  0  0  0  0  0  0  0
    1.9124   -0.9133   -0.5275 H   0  0  0  0  0  0  0  0  0  0  0  0
    1.1482   -2.4249    3.5516 H   0  0  0  0  0  0  0  0  0  0  0  0
    2.5724   -2.3804    2.4481 H   0  0  0  0  0  0  0  0  0  0  0  0
   -0.0624   -0.1473    3.9329 H   0  0  0  0  0  0  0  0  0  0  0  0
   -2.7238    1.6109    2.2015 H   0  0  0  0  0  0  0  0  0  0  0  0
   -1.5711    2.5992    3.0963 H   0  0  0  0  0  0  0  0  0  0  0  0
   -2.1399    1.0638    3.7869 H   0  0  0  0  0  0  0  0  0  0  0  0
   -1.6637    1.6404   -2.1166 H   0  0  0  0  0  0  0  0  0  0  0  0
   -0.7150    2.1225   -4.3682 H   0  0  0  0  0  0  0  0  0  0  0  0
    2.5013    4.3569   -2.5306 H   0  0  0  0  0  0  0  0  0  0  0  0
    1.5453    3.8613   -0.2816 H   0  0  0  0  0  0  0  0  0  0  0  0
    3.2252    3.5622    1.8076 H   0  0  0  0  0  0  0  0  0  0  0  0
    4.2465    5.0398    0.0689 H   0  0  0  0  0  0  0  0  0  0  0  0
    5.4762    1.5420   -2.1608 H   0  0  0  0  0  0  0  0  0  0  0  0
    4.4662    0.0806   -0.4109 H   0  0  0  0  0  0  0  0  0  0  0  0
  1  2  1  0  0  0  0
  1 29  1  0  0  0  0
  1  9  1  0  0  0  0
  2  3  1  0  0  0  0
  3 19  1  0  0  0  0
  3  4  1  0  0  0  0
  4  5  2  0  0  0  0
  4  6  1  0  0  0  0
  5 32  1  0  0  0  0
  6 34  1  0  0  0  0
  7  8  1  0  0  0  0
  7  6  2  0  0  0  0
  8 36  1  0  0  0  0
  8 37  1  0  0  0  0
  9  7  1  0  0  0  0
 10  9  1  0  0  0  0
 10 11  2  0  0  0  0
 12 10  1  0  0  0  0
 13 38  1  0  0  0  0
 13 12  2  0  0  0  0
 14 13  1  0  0  0  0
 15 14  2  0  0  0  0
 15 16  1  0  0  0  0
 16 17  2  0  0  0  0
 17 12  1  0  0  0  0
 17 41  1  0  0  0  0
 18 15  1  0  0  0  0
 19 20  2  0  0  0  0
 21 22  1  0  0  0  0
 21 19  1  0  0  0  0
 22 42  1  0  0  0  0
 23 43  1  0  0  0  0
 23 22  2  0  0  0  0
 24 23  1  0  0  0  0
 25 24  2  0  0  0  0
 25 26  1  0  0  0  0
 26 21  2  0  0  0  0
 27 24  1  0  0  0  0
 28  1  1  0  0  0  0
 30  2  1  0  0  0  0
 31  2  1  0  0  0  0
 33  5  1  0  0  0  0
 35  8  1  0  0  0  0
 39 14  1  0  0  0  0
 40 16  1  0  0  0  0
 44 25  1  0  0  0  0
 45 26  1  0  0  0  0
M  END
$$$$
