
     RDKit          3D

 45 47  0  0  0  0  0  0  0  0999 V2000
   -0.1515   -0.0582    0.2623 C   0  0  0  0  0  0  0  0  0  0  0  0
    1.3694   -0.1118    0.1160 C   0  0  0  0  0  0  0  0  0  0  0  0
    2.0423   -0.0148    1.4103 N   0  0  0  0  0  0  0  0  0  0  0  0
    1.5696    0.9901    2.3086 C   0  0  0  0  0  0  0  0  0  0  0  0
    1.8475    1.0177    3.6309 C   0  0  0  0  0  0  0  0  0  0  0  0
    0.8296    2.1456    1.7381 C   0  0  0  0  0  0  0  0  0  0  0  0
   -0.1473    2.3198    0.8098 C   0  0  0  0  0  0  0  0  0  0  0  0
   -0.6276    3.7206    0.5183 C   0  0  0  0  0  0  0  0  0  0  0  0
   -0.6878    1.2785    0.0307 N   0  0  0  0  0  0  0  0  0  0  0  0
   -1.8844    1.4161   -0.6899 C   0  0  0  0  0  0  0  0  0  0  0  0
   -2.7500    2.2199   -0.4017 O   0  0  0  0  0  0  0  0  0  0  0  0
   -2.0468    0.5358   -1.8969 C   0  0  0  0  0  0  0  0  0  0  0  0
   -3.3402    0.1205   -2.2446 C   0  0  0  0  0  0  0  0  0  0  0  0
   -3.5624   -0.6268   -3.3990 C   0  0  0  0  0  0  0  0  0  0  0  0
   -2.4814   -0.9391   -4.2301 C   0  0  0  0  0  0  0  0  0  0  0  0
   -1.1877   -0.5088   -3.9183 C   0  0  0  0  0  0  0  0  0  0  0  0
   -0.9778    0.2236   -2.7511 C   0  0  0  0  0  0  0  0  0  0  0  0
   -2.7505   -1.8682   -5.6801 Cl  0  0  0  0  0  0  0  0  0  0  0  0
    3.0142   -0.9462    1.7612 C   0  0  0  0  0  0  0  0  0  0  0  0
    3.3378   -1.1946    2.9090 O   0  0  0  0  0  0  0  0  0  0  0  0
    3.7330   -1.6453    0.6354 C   0  0  0  0  0  0  0  0  0  0  0  0
    4.2554   -0.9526   -0.4667 C   0  0  0  0  0  0  0  0  0  0  0  0
    5.0209   -1.6130   -1.4273 C   0  0  0  0  0  0  0  0  0  0  0  0
    5.2563   -2.9838   -1.2880 C   0  0  0  0  0  0  0  0  0  0  0  0
    4.7557   -3.6901   -0.1896 C   0  0  0  0  0  0  0  0  0  0  0  0
    4.0112   -3.0125    0.7739 C   0  0  0  0  0  0  0  0  0  0  0  0
    6.1966   -3.8216   -2.4953 Cl  0  0  0  0  0  0  0  0  0  0  0  0
   -0.6241   -0.7473   -0.4432 H   0  0  0  0  0  0  0  0  0  0  0  0
   -0.4319   -0.3965    1.2751 H   0  0  0  0  0  0  0  0  0  0  0  0
    1.6934    0.6879   -0.5714 H   0  0  0  0  0  0  0  0  0  0  0  0
    1.6489   -1.0662   -0.3398 H   0  0  0  0  0  0  0  0  0  0  0  0
    1.4950    1.8753    4.2068 H   0  0  0  0  0  0  0  0  0  0  0  0
    2.4013    0.2317    4.1314 H   0  0  0  0  0  0  0  0  0  0  0  0
    1.1047    3.0722    2.2448 H   0  0  0  0  0  0  0  0  0  0  0  0
   -1.6654    3.8713    0.8403 H   0  0  0  0  0  0  0  0  0  0  0  0
   -0.6032    3.9263   -0.5638 H   0  0  0  0  0  0  0  0  0  0  0  0
    0.0252    4.4444    1.0222 H   0  0  0  0  0  0  0  0  0  0  0  0
   -4.1729    0.3981   -1.5962 H   0  0  0  0  0  0  0  0  0  0  0  0
   -4.5649   -0.9637   -3.6659 H   0  0  0  0  0  0  0  0  0  0  0  0
   -0.3614   -0.7441   -4.5902 H   0  0  0  0  0  0  0  0  0  0  0  0
    0.0282    0.5741   -2.5120 H   0  0  0  0  0  0  0  0  0  0  0  0
    4.0800    0.1203   -0.5682 H   0  0  0  0  0  0  0  0  0  0  0  0
    5.4399   -1.0747   -2.2785 H   0  0  0  0  0  0  0  0  0  0  0  0
    4.9607   -4.7571   -0.0930 H   0  0  0  0  0  0  0  0  0  0  0  0
    3.6413   -3.5402    1.6548 H   0  0  0  0  0  0  0  0  0  0  0  0
  1  2  1  0
  1  9  1  0
  1 28  1  0
  1 29  1  0
  2  3  1  0
  2 30  1  0
  2 31  1  0
  3  4  1  0
  3 19  1  0
  4  5  2  3
  4  6  1  0
  5 32  1  0
  5 33  1  0
  6  7  2  0
  6 34  1  0
  7  8  1  0
  7  9  1  0
  8 35  1  0
  8 36  1  0
  8 37  1  0
  9 10  1  0
 10 11  2  0
 10 12  1  0
 12 13  2  0
 12 17  1  0
 13 14  1  0
 13 38  1  0
 14 15  2  0
 14 39  1  0
 15 16  1  0
 15 18  1  0
 16 17  2  0
 16 40  1  0
 17 41  1  0
 19 20  2  0
 19 21  1  0
 21 22  2  0
 21 26  1  0
 22 23  1  0
 22 42  1  0
 23 24  2  0
 23 43  1  0
 24 25  1  0
 24 27  1  0
 25 26  2  0
 25 44  1  0
 26 45  1  0
M  END

