
     RDKit          3D

 45 47  0  0  0  0  0  0  0  0999 V2000
    0.1365   -0.0110   -0.0369 C   0  0  0  0  0  0  0  0  0  0  0  0
    1.6704   -0.1517    0.0404 C   0  0  0  0  0  0  0  0  0  0  0  0
    2.1087   -0.1082    1.4313 N   0  0  0  0  0  0  0  0  0  0  0  0
    1.4562   -1.0555    2.3013 C   0  0  0  0  0  0  0  0  0  0  0  0
    2.0544   -2.2228    2.5894 C   0  0  0  0  0  0  0  0  0  0  0  0
    0.1334   -0.6749    2.8042 C   0  0  0  0  0  0  0  0  0  0  0  0
   -0.6740    0.2758    2.2803 C   0  0  0  0  0  0  0  0  0  0  0  0
   -1.9627    0.6871    2.9305 C   0  0  0  0  0  0  0  0  0  0  0  0
   -0.3898    0.8721    1.0119 N   0  0  0  0  0  0  0  0  0  0  0  0
   -0.3321    2.2570    0.9156 C   0  0  0  0  0  0  0  0  0  0  0  0
   -0.3715    2.9747    1.9007 O   0  0  0  0  0  0  0  0  0  0  0  0
   -0.2353    2.8478   -0.4599 C   0  0  0  0  0  0  0  0  0  0  0  0
   -1.2210    2.6127   -1.4284 C   0  0  0  0  0  0  0  0  0  0  0  0
   -1.1632    3.2491   -2.6686 C   0  0  0  0  0  0  0  0  0  0  0  0
   -0.1004    4.1157   -2.9388 C   0  0  0  0  0  0  0  0  0  0  0  0
    0.8906    4.3603   -1.9833 C   0  0  0  0  0  0  0  0  0  0  0  0
    0.8138    3.7335   -0.7404 C   0  0  0  0  0  0  0  0  0  0  0  0
   -0.0119    4.9050   -4.4941 Cl  0  0  0  0  0  0  0  0  0  0  0  0
    2.5295    1.1247    1.9112 C   0  0  0  0  0  0  0  0  0  0  0  0
    2.7179    2.0764    1.1686 O   0  0  0  0  0  0  0  0  0  0  0  0
    2.7316    1.2539    3.3904 C   0  0  0  0  0  0  0  0  0  0  0  0
    2.1015    2.3259    4.0395 C   0  0  0  0  0  0  0  0  0  0  0  0
    2.2780    2.5220    5.4079 C   0  0  0  0  0  0  0  0  0  0  0  0
    3.1104    1.6552    6.1223 C   0  0  0  0  0  0  0  0  0  0  0  0
    3.7633    0.5962    5.4864 C   0  0  0  0  0  0  0  0  0  0  0  0
    3.5628    0.3953    4.1205 C   0  0  0  0  0  0  0  0  0  0  0  0
    3.3413    1.9003    7.8370 Cl  0  0  0  0  0  0  0  0  0  0  0  0
   -0.1507    0.3657   -1.0253 H   0  0  0  0  0  0  0  0  0  0  0  0
   -0.3482   -0.9875    0.0993 H   0  0  0  0  0  0  0  0  0  0  0  0
    2.1593    0.6845   -0.4726 H   0  0  0  0  0  0  0  0  0  0  0  0
    1.9857   -1.0969   -0.4274 H   0  0  0  0  0  0  0  0  0  0  0  0
    1.5600   -2.9670    3.2169 H   0  0  0  0  0  0  0  0  0  0  0  0
    3.0505   -2.4472    2.2039 H   0  0  0  0  0  0  0  0  0  0  0  0
   -0.2194   -1.2091    3.6888 H   0  0  0  0  0  0  0  0  0  0  0  0
   -2.8046    0.5643    2.2288 H   0  0  0  0  0  0  0  0  0  0  0  0
   -1.9220    1.7484    3.2140 H   0  0  0  0  0  0  0  0  0  0  0  0
   -2.1545    0.0868    3.8300 H   0  0  0  0  0  0  0  0  0  0  0  0
   -2.0517    1.9377   -1.2076 H   0  0  0  0  0  0  0  0  0  0  0  0
   -1.9329    3.0817   -3.4231 H   0  0  0  0  0  0  0  0  0  0  0  0
    1.7121    5.0388   -2.2169 H   0  0  0  0  0  0  0  0  0  0  0  0
    1.5815    3.8986    0.0159 H   0  0  0  0  0  0  0  0  0  0  0  0
    1.4460    2.9833    3.4657 H   0  0  0  0  0  0  0  0  0  0  0  0
    1.7774    3.3421    5.9243 H   0  0  0  0  0  0  0  0  0  0  0  0
    4.4192   -0.0600    6.0598 H   0  0  0  0  0  0  0  0  0  0  0  0
    4.0697   -0.4300    3.6197 H   0  0  0  0  0  0  0  0  0  0  0  0
  1  2  1  0
  1  9  1  0
  1 28  1  0
  1 29  1  0
  2  3  1  0
  2 30  1  0
  2 31  1  0
  3  4  1  0
  3 19  1  0
  4  5  2  3
  4  6  1  0
  5 32  1  0
  5 33  1  0
  6  7  2  0
  6 34  1  0
  7  8  1  0
  7  9  1  0
  8 35  1  0
  8 36  1  0
  8 37  1  0
  9 10  1  0
 10 11  2  0
 10 12  1  0
 12 13  2  0
 12 17  1  0
 13 14  1  0
 13 38  1  0
 14 15  2  0
 14 39  1  0
 15 16  1  0
 15 18  1  0
 16 17  2  0
 16 40  1  0
 17 41  1  0
 19 20  2  0
 19 21  1  0
 21 22  2  0
 21 26  1  0
 22 23  1  0
 22 42  1  0
 23 24  2  0
 23 43  1  0
 24 25  1  0
 24 27  1  0
 25 26  2  0
 25 44  1  0
 26 45  1  0
M  END

