rmsd2.gzmat
 OpenBabel08211713373D

 45 47  0  0  0  0  0  0  0  0999 V2000
    0.0000    0.0000    0.0000 C   0  0  0  0  0  0  0  0  0  0  0  0
    1.5458    0.0000    0.0000 C   0  0  0  0  0  0  0  0  0  0  0  0
    2.0343    0.0000    1.3841 N   0  0  0  0  0  0  0  0  0  0  0  0
    1.3241    0.8304    2.3054 C   0  0  0  0  0  0  0  0  0  0  0  0
    1.1499    0.4712    3.5854 C   0  0  0  0  0  0  0  0  0  0  0  0
    0.8264    2.1055    1.7895 C   0  0  0  0  0  0  0  0  0  0  0  0
   -0.0040    2.3573    0.7552 C   0  0  0  0  0  0  0  0  0  0  0  0
   -0.3800    3.7758    0.4571 C   0  0  0  0  0  0  0  0  0  0  0  0
   -0.5212    1.3726   -0.1213 N   0  0  0  0  0  0  0  0  0  0  0  0
   -1.6553    1.6044   -0.9134 C   0  0  0  0  0  0  0  0  0  0  0  0
   -2.3342    2.5951   -0.7711 O   0  0  0  0  0  0  0  0  0  0  0  0
   -1.9798    0.6006   -1.9675 C   0  0  0  0  0  0  0  0  0  0  0  0
   -3.1713   -0.1173   -1.8653 C   0  0  0  0  0  0  0  0  0  0  0  0
   -3.5243   -1.0124   -2.8739 C   0  0  0  0  0  0  0  0  0  0  0  0
   -2.6697   -1.1515   -3.9604 C   0  0  0  0  0  0  0  0  0  0  0  0
   -1.4867   -0.4324   -4.0887 C   0  0  0  0  0  0  0  0  0  0  0  0
   -1.1423    0.4593   -3.0755 C   0  0  0  0  0  0  0  0  0  0  0  0
   -3.0943   -2.2509   -5.1986 Cl  0  0  0  0  0  0  0  0  0  0  0  0
    3.1917   -0.6730    1.7550 C   0  0  0  0  0  0  0  0  0  0  0  0
    3.6082   -0.6327    2.8910 O   0  0  0  0  0  0  0  0  0  0  0  0
    3.8809   -1.4620    0.6910 C   0  0  0  0  0  0  0  0  0  0  0  0
    4.6820   -0.8125   -0.2476 C   0  0  0  0  0  0  0  0  0  0  0  0
    5.3391   -1.5576   -1.2246 C   0  0  0  0  0  0  0  0  0  0  0  0
    5.1766   -2.9379   -1.2201 C   0  0  0  0  0  0  0  0  0  0  0  0
    4.4021   -3.6050   -0.2790 C   0  0  0  0  0  0  0  0  0  0  0  0
    3.7475   -2.8497    0.6927 C   0  0  0  0  0  0  0  0  0  0  0  0
    5.9682   -3.8580   -2.4261 Cl  0  0  0  0  0  0  0  0  0  0  0  0
   -0.3664   -0.6364   -0.8350 H   0  0  0  0  0  0  0  0  0  0  0  0
   -0.3909   -0.4671    0.9386 H   0  0  0  0  0  0  0  0  0  0  0  0
    1.9407    0.8888   -0.5466 H   0  0  0  0  0  0  0  0  0  0  0  0
    1.9129   -0.9027   -0.5390 H   0  0  0  0  0  0  0  0  0  0  0  0
    0.6312    1.0896    4.2982 H   0  0  0  0  0  0  0  0  0  0  0  0
    1.5290   -0.4429    4.0154 H   0  0  0  0  0  0  0  0  0  0  0  0
    1.1958    2.9526    2.3793 H   0  0  0  0  0  0  0  0  0  0  0  0
   -1.4118    3.9920    0.7925 H   0  0  0  0  0  0  0  0  0  0  0  0
   -0.3553    4.0064   -0.6184 H   0  0  0  0  0  0  0  0  0  0  0  0
    0.2799    4.4958    0.9589 H   0  0  0  0  0  0  0  0  0  0  0  0
   -3.8295    0.0298   -1.0059 H   0  0  0  0  0  0  0  0  0  0  0  0
   -4.4535   -1.5792   -2.8081 H   0  0  0  0  0  0  0  0  0  0  0  0
   -0.8423   -0.5543   -4.9597 H   0  0  0  0  0  0  0  0  0  0  0  0
   -0.2254    1.0463   -3.1512 H   0  0  0  0  0  0  0  0  0  0  0  0
    4.7971    0.2719   -0.2130 H   0  0  0  0  0  0  0  0  0  0  0  0
    5.9655   -1.0634   -1.9669 H   0  0  0  0  0  0  0  0  0  0  0  0
    4.3076   -4.6910   -0.2885 H   0  0  0  0  0  0  0  0  0  0  0  0
    3.1408   -3.3428    1.4551 H   0  0  0  0  0  0  0  0  0  0  0  0
  1  2  1  0  0  0  0
  1 29  1  0  0  0  0
  2  3  1  0  0  0  0
  3 19  1  0  0  0  0
  3  4  1  0  0  0  0
  4  5  2  0  0  0  0
  5 33  1  0  0  0  0
  5 32  1  0  0  0  0
  6  4  1  0  0  0  0
  6 34  1  0  0  0  0
  7  6  2  0  0  0  0
  8  7  1  0  0  0  0
  8 35  1  0  0  0  0
  8 37  1  0  0  0  0
  9  1  1  0  0  0  0
  9  7  1  0  0  0  0
 10 11  2  0  0  0  0
 10  9  1  0  0  0  0
 12 13  1  0  0  0  0
 12 10  1  0  0  0  0
 13 38  1  0  0  0  0
 14 39  1  0  0  0  0
 14 13  2  0  0  0  0
 15 14  1  0  0  0  0
 16 15  2  0  0  0  0
 16 17  1  0  0  0  0
 17 12  2  0  0  0  0
 18 15  1  0  0  0  0
 19 20  2  0  0  0  0
 21 26  1  0  0  0  0
 21 19  1  0  0  0  0
 22 42  1  0  0  0  0
 22 21  2  0  0  0  0
 23 24  2  0  0  0  0
 23 22  1  0  0  0  0
 24 25  1  0  0  0  0
 25 26  2  0  0  0  0
 26 45  1  0  0  0  0
 27 24  1  0  0  0  0
 28  1  1  0  0  0  0
 30  2  1  0  0  0  0
 31  2  1  0  0  0  0
 36  8  1  0  0  0  0
 40 16  1  0  0  0  0
 41 17  1  0  0  0  0
 43 23  1  0  0  0  0
 44 25  1  0  0  0  0
M  END
$$$$
