
     RDKit          3D

 40 42  0  0  0  0  0  0  0  0999 V2000
    0.5555    1.2969    0.3700 S   0  0  0  0  0  0  0  0  0  0  0  0
    1.4698   -0.0612   -0.2671 C   0  0  0  0  0  0  0  0  0  0  0  0
    1.1470   -1.1942    0.3016 N   0  0  0  0  0  0  0  0  0  0  0  0
    0.1934   -1.0737    1.2494 N   0  0  0  0  0  0  0  0  0  0  0  0
   -0.2366    0.1448    1.4088 C   0  0  0  0  0  0  0  0  0  0  0  0
   -1.2701    0.4974    2.4693 C   0  0  0  0  0  0  0  0  0  0  0  0
   -2.3768   -0.4627    2.3696 N   0  0  0  0  0  0  0  0  0  0  0  0
   -3.0890   -0.7837    1.2669 C   0  0  0  0  0  0  0  0  0  0  0  0
   -3.0359    0.0456   -0.1731 S   0  0  0  0  0  0  0  0  0  0  0  0
   -3.9225   -2.0104    1.4280 C   0  0  0  0  0  0  0  0  0  0  0  0
   -5.2108   -2.0761    0.8742 C   0  0  0  0  0  0  0  0  0  0  0  0
   -5.9818   -3.2276    1.0225 C   0  0  0  0  0  0  0  0  0  0  0  0
   -5.4694   -4.3370    1.7050 C   0  0  0  0  0  0  0  0  0  0  0  0
   -4.1788   -4.2893    2.2373 C   0  0  0  0  0  0  0  0  0  0  0  0
   -3.4096   -3.1312    2.1050 C   0  0  0  0  0  0  0  0  0  0  0  0
   -0.6168    0.2771    3.8457 C   0  0  0  0  0  0  0  0  0  0  0  0
   -1.7679    1.9444    2.3508 C   0  0  0  0  0  0  0  0  0  0  0  0
    2.4822    0.0650   -1.3213 C   0  0  0  0  0  0  0  0  0  0  0  0
    3.1631   -1.0872   -1.7559 C   0  0  0  0  0  0  0  0  0  0  0  0
    4.1291   -0.9949   -2.7553 C   0  0  0  0  0  0  0  0  0  0  0  0
    4.4304    0.2424   -3.3356 C   0  0  0  0  0  0  0  0  0  0  0  0
    3.7571    1.3906   -2.9095 C   0  0  0  0  0  0  0  0  0  0  0  0
    2.7888    1.3035   -1.9093 C   0  0  0  0  0  0  0  0  0  0  0  0
   -2.5121   -1.0574    3.1795 H   0  0  0  0  0  0  0  0  0  0  0  0
   -5.5875   -1.2110    0.3259 H   0  0  0  0  0  0  0  0  0  0  0  0
   -6.9883   -3.2636    0.5991 H   0  0  0  0  0  0  0  0  0  0  0  0
   -6.0729   -5.2415    1.8116 H   0  0  0  0  0  0  0  0  0  0  0  0
   -3.7620   -5.1613    2.7468 H   0  0  0  0  0  0  0  0  0  0  0  0
   -2.3838   -3.1126    2.4812 H   0  0  0  0  0  0  0  0  0  0  0  0
    0.2347    0.9600    3.9700 H   0  0  0  0  0  0  0  0  0  0  0  0
   -0.2449   -0.7545    3.9282 H   0  0  0  0  0  0  0  0  0  0  0  0
   -1.3427    0.4780    4.6498 H   0  0  0  0  0  0  0  0  0  0  0  0
   -0.9299    2.6470    2.4765 H   0  0  0  0  0  0  0  0  0  0  0  0
   -2.5045    2.1417    3.1432 H   0  0  0  0  0  0  0  0  0  0  0  0
   -2.2427    2.1110    1.3759 H   0  0  0  0  0  0  0  0  0  0  0  0
    2.9145   -2.0432   -1.2940 H   0  0  0  0  0  0  0  0  0  0  0  0
    4.6516   -1.8954   -3.0863 H   0  0  0  0  0  0  0  0  0  0  0  0
    5.1881    0.3109   -4.1198 H   0  0  0  0  0  0  0  0  0  0  0  0
    3.9851    2.3597   -3.3590 H   0  0  0  0  0  0  0  0  0  0  0  0
    2.2654    2.2065   -1.5854 H   0  0  0  0  0  0  0  0  0  0  0  0
  1  2  1  0
  1  5  1  0
  2  3  2  0
  2 18  1  0
  3  4  1  0
  4  5  2  0
  5  6  1  0
  6  7  1  0
  6 16  1  0
  6 17  1  0
  7  8  1  0
  7 24  1  0
  8  9  2  0
  8 10  1  0
 10 11  2  0
 10 15  1  0
 11 12  1  0
 11 25  1  0
 12 13  2  0
 12 26  1  0
 13 14  1  0
 13 27  1  0
 14 15  2  0
 14 28  1  0
 15 29  1  0
 16 30  1  0
 16 31  1  0
 16 32  1  0
 17 33  1  0
 17 34  1  0
 17 35  1  0
 18 19  2  0
 18 23  1  0
 19 20  1  0
 19 36  1  0
 20 21  2  0
 20 37  1  0
 21 22  1  0
 21 38  1  0
 22 23  2  0
 22 39  1  0
 23 40  1  0
M  END

