40
rmsd247.gzmat
S          0.00000        0.00000        0.00000
C          1.76860        0.00000        0.00000
N          2.28720        0.00000        1.22290
N          1.36760       -0.02510        2.19990
C          0.11080       -0.03600        1.79860
C         -1.03210       -0.13970        2.76800
N         -2.12900        0.82190        2.45220
C         -2.71040        0.99010        1.25490
S         -2.18340        0.23980       -0.14650
C         -3.84920        1.92450        1.19820
C         -5.02170        1.63400        1.90100
C         -6.10350        2.50700        1.82650
C         -6.01250        3.66750        1.05840
C         -4.84070        3.95540        0.36050
C         -3.75580        3.08420        0.42540
C         -1.58280       -1.57460        2.77000
C         -0.54370        0.22470        4.18440
C          2.56100        0.04660       -1.21370
C          3.60320        0.97590       -1.31650
C          4.36550        1.03820       -2.47940
C          4.09820        0.16960       -3.53660
C          3.06690       -0.76220       -3.43120
C          2.29520       -0.82620       -2.27340
H         -2.45060        1.37740        3.24580
H         -5.09690        0.72270        2.49240
H         -7.02290        2.28070        2.36470
H         -6.85990        4.35000        1.00150
H         -4.77280        4.86040       -0.24190
H         -2.84160        3.30890       -0.12970
H         -0.78440       -2.28570        3.02920
H         -1.97330       -1.89060        1.79440
H         -2.38910       -1.69950        3.50020
H          0.27790       -0.44900        4.48620
H         -1.32950        0.13860        4.93830
H         -0.11240        1.23480        4.22130
H          3.81640        1.64000       -0.47800
H          5.17360        1.76180       -2.56110
H          4.69680        0.21710       -4.44310
H          2.86360       -1.44340       -4.25450
H          1.49450       -1.56080       -2.19520
