rmsd143.gzmat
 OpenBabel08211713393D

 40 43  0  0  1  0  0  0  0  0999 V2000
    0.0000    0.0000    0.0000 S   0  0  1  0  0  0  0  0  0  0  0  0
    1.7685    0.0000    0.0000 C   0  0  0  0  0  0  0  0  0  0  0  0
    2.2832    0.0000    1.2263 N   0  0  0  0  0  0  0  0  0  0  0  0
    1.3626   -0.0158    2.2015 N   0  0  0  0  0  0  0  0  0  0  0  0
    0.1062   -0.0219    1.7988 C   0  0  0  0  0  0  0  0  0  0  0  0
   -1.0386   -0.1101    2.7672 C   0  0  0  0  0  0  0  0  0  0  0  0
   -2.1480    0.8283    2.4256 N   0  0  0  0  0  0  0  0  0  0  0  0
   -2.7362    0.9524    1.2263 C   0  0  2  0  0  0  0  0  0  0  0  0
   -2.1786    0.2057   -0.1637 S   0  0  0  0  0  0  0  0  0  0  0  0
   -3.9175    1.8319    1.1588 C   0  0  0  0  0  0  0  0  0  0  0  0
   -3.8709    3.0058    0.4043 C   0  0  0  0  0  0  0  0  0  0  0  0
   -4.9995    3.8194    0.3296 C   0  0  0  0  0  0  0  0  0  0  0  0
   -6.1689    3.4560    0.9952 C   0  0  0  0  0  0  0  0  0  0  0  0
   -6.2118    2.2815    1.7468 C   0  0  0  0  0  0  0  0  0  0  0  0
   -5.0850    1.4692    1.8355 C   0  0  0  0  0  0  0  0  0  0  0  0
   -1.5748   -1.5506    2.8052 C   0  0  0  0  0  0  0  0  0  0  0  0
   -0.5631    0.2974    4.1762 C   0  0  0  0  0  0  0  0  0  0  0  0
    2.5717    0.0546   -1.2063 C   0  0  0  0  0  0  0  0  0  0  0  0
    3.7391    0.8297   -1.2127 C   0  0  0  0  0  0  0  0  0  0  0  0
    4.5148    0.9125   -2.3648 C   0  0  0  0  0  0  0  0  0  0  0  0
    4.1363    0.2176   -3.5128 C   0  0  0  0  0  0  0  0  0  0  0  0
    2.9826   -0.5642   -3.5053 C   0  0  0  0  0  0  0  0  0  0  0  0
    2.1991   -0.6488   -2.3565 C   0  0  0  0  0  0  0  0  0  0  0  0
   -2.4865    1.3905    3.2072 H   0  0  0  0  0  0  0  0  0  0  0  0
   -2.9597    3.2854   -0.1297 H   0  0  0  0  0  0  0  0  0  0  0  0
   -4.9660    4.7392   -0.2531 H   0  0  0  0  0  0  0  0  0  0  0  0
   -7.0532    4.0889    0.9271 H   0  0  0  0  0  0  0  0  0  0  0  0
   -7.1284    1.9980    2.2616 H   0  0  0  0  0  0  0  0  0  0  0  0
   -5.1204    0.5484    2.4168 H   0  0  0  0  0  0  0  0  0  0  0  0
   -0.7623   -2.2508    3.0506 H   0  0  0  0  0  0  0  0  0  0  0  0
   -1.9918   -1.8833    1.8464 H   0  0  0  0  0  0  0  0  0  0  0  0
   -2.3564   -1.6725    3.5620 H   0  0  0  0  0  0  0  0  0  0  0  0
    0.2729   -0.3492    4.4974 H   0  0  0  0  0  0  0  0  0  0  0  0
   -1.3505    0.2074    4.9286 H   0  0  0  0  0  0  0  0  0  0  0  0
   -0.1593    1.3189    4.1921 H   0  0  0  0  0  0  0  0  0  0  0  0
    4.0378    1.3587   -0.3055 H   0  0  0  0  0  0  0  0  0  0  0  0
    5.4184    1.5180   -2.3673 H   0  0  0  0  0  0  0  0  0  0  0  0
    4.7432    0.2829   -4.4129 H   0  0  0  0  0  0  0  0  0  0  0  0
    2.6909   -1.1126   -4.3985 H   0  0  0  0  0  0  0  0  0  0  0  0
    1.3038   -1.2697   -2.3612 H   0  0  0  0  0  0  0  0  0  0  0  0
  1  9  1  1  0  0  0
  1  2  1  0  0  0  0
  1  5  1  0  0  0  0
  2  3  2  0  0  0  0
  3  4  1  0  0  0  0
  5  4  2  0  0  0  0
  5  6  1  0  0  0  0
  6 16  1  0  0  0  0
  6 17  1  0  0  0  0
  7  6  1  0  0  0  0
  7 24  1  0  0  0  0
  8 10  1  6  0  0  0
  8  7  1  0  0  0  0
  9  8  1  0  0  0  0
 10 15  2  0  0  0  0
 11 10  1  0  0  0  0
 12 11  2  0  0  0  0
 12 13  1  0  0  0  0
 13 14  2  0  0  0  0
 14 15  1  0  0  0  0
 14 28  1  0  0  0  0
 15 29  1  0  0  0  0
 16 30  1  0  0  0  0
 16 32  1  0  0  0  0
 17 35  1  0  0  0  0
 17 33  1  0  0  0  0
 17 34  1  0  0  0  0
 18  2  1  0  0  0  0
 19 18  1  0  0  0  0
 19 36  1  0  0  0  0
 20 19  2  0  0  0  0
 21 22  2  0  0  0  0
 21 20  1  0  0  0  0
 22 23  1  0  0  0  0
 23 18  2  0  0  0  0
 25 11  1  0  0  0  0
 26 12  1  0  0  0  0
 27 13  1  0  0  0  0
 31 16  1  0  0  0  0
 37 20  1  0  0  0  0
 38 21  1  0  0  0  0
 39 22  1  0  0  0  0
 40 23  1  0  0  0  0
M  RAD  1   8   2
M  END
$$$$
