rmsd247.gzmat
 OpenBabel08211713393D

 40 43  0  0  1  0  0  0  0  0999 V2000
    0.0000    0.0000    0.0000 S   0  0  1  0  0  0  0  0  0  0  0  0
    1.7686    0.0000    0.0000 C   0  0  0  0  0  0  0  0  0  0  0  0
    2.2872    0.0000    1.2229 N   0  0  0  0  0  0  0  0  0  0  0  0
    1.3676   -0.0251    2.1999 N   0  0  0  0  0  0  0  0  0  0  0  0
    0.1108   -0.0360    1.7986 C   0  0  0  0  0  0  0  0  0  0  0  0
   -1.0321   -0.1397    2.7680 C   0  0  0  0  0  0  0  0  0  0  0  0
   -2.1290    0.8219    2.4522 N   0  0  0  0  0  0  0  0  0  0  0  0
   -2.7104    0.9901    1.2549 C   0  0  2  0  0  0  0  0  0  0  0  0
   -2.1834    0.2398   -0.1465 S   0  0  0  0  0  0  0  0  0  0  0  0
   -3.8492    1.9245    1.1982 C   0  0  0  0  0  0  0  0  0  0  0  0
   -5.0217    1.6340    1.9010 C   0  0  0  0  0  0  0  0  0  0  0  0
   -6.1035    2.5070    1.8265 C   0  0  0  0  0  0  0  0  0  0  0  0
   -6.0125    3.6675    1.0584 C   0  0  0  0  0  0  0  0  0  0  0  0
   -4.8407    3.9554    0.3605 C   0  0  0  0  0  0  0  0  0  0  0  0
   -3.7558    3.0842    0.4254 C   0  0  0  0  0  0  0  0  0  0  0  0
   -1.5828   -1.5746    2.7700 C   0  0  0  0  0  0  0  0  0  0  0  0
   -0.5437    0.2247    4.1844 C   0  0  0  0  0  0  0  0  0  0  0  0
    2.5610    0.0466   -1.2137 C   0  0  0  0  0  0  0  0  0  0  0  0
    3.6032    0.9759   -1.3165 C   0  0  0  0  0  0  0  0  0  0  0  0
    4.3655    1.0382   -2.4794 C   0  0  0  0  0  0  0  0  0  0  0  0
    4.0982    0.1696   -3.5366 C   0  0  0  0  0  0  0  0  0  0  0  0
    3.0669   -0.7622   -3.4312 C   0  0  0  0  0  0  0  0  0  0  0  0
    2.2952   -0.8262   -2.2734 C   0  0  0  0  0  0  0  0  0  0  0  0
   -2.4506    1.3774    3.2458 H   0  0  0  0  0  0  0  0  0  0  0  0
   -5.0969    0.7227    2.4924 H   0  0  0  0  0  0  0  0  0  0  0  0
   -7.0229    2.2807    2.3647 H   0  0  0  0  0  0  0  0  0  0  0  0
   -6.8599    4.3500    1.0015 H   0  0  0  0  0  0  0  0  0  0  0  0
   -4.7728    4.8604   -0.2419 H   0  0  0  0  0  0  0  0  0  0  0  0
   -2.8416    3.3089   -0.1297 H   0  0  0  0  0  0  0  0  0  0  0  0
   -0.7844   -2.2857    3.0292 H   0  0  0  0  0  0  0  0  0  0  0  0
   -1.9733   -1.8906    1.7944 H   0  0  0  0  0  0  0  0  0  0  0  0
   -2.3891   -1.6995    3.5002 H   0  0  0  0  0  0  0  0  0  0  0  0
    0.2779   -0.4490    4.4862 H   0  0  0  0  0  0  0  0  0  0  0  0
   -1.3295    0.1386    4.9383 H   0  0  0  0  0  0  0  0  0  0  0  0
   -0.1124    1.2348    4.2213 H   0  0  0  0  0  0  0  0  0  0  0  0
    3.8164    1.6400   -0.4780 H   0  0  0  0  0  0  0  0  0  0  0  0
    5.1736    1.7618   -2.5611 H   0  0  0  0  0  0  0  0  0  0  0  0
    4.6968    0.2171   -4.4431 H   0  0  0  0  0  0  0  0  0  0  0  0
    2.8636   -1.4434   -4.2545 H   0  0  0  0  0  0  0  0  0  0  0  0
    1.4945   -1.5608   -2.1952 H   0  0  0  0  0  0  0  0  0  0  0  0
  1  9  1  1  0  0  0
  1  2  1  0  0  0  0
  1  5  1  0  0  0  0
  2  3  2  0  0  0  0
  3  4  1  0  0  0  0
  5  4  2  0  0  0  0
  5  6  1  0  0  0  0
  6 16  1  0  0  0  0
  6 17  1  0  0  0  0
  7  6  1  0  0  0  0
  7 24  1  0  0  0  0
  8 10  1  6  0  0  0
  8  7  1  0  0  0  0
  9  8  1  0  0  0  0
 10 11  2  0  0  0  0
 11 25  1  0  0  0  0
 12 11  1  0  0  0  0
 12 26  1  0  0  0  0
 13 12  2  0  0  0  0
 14 15  2  0  0  0  0
 14 13  1  0  0  0  0
 15 10  1  0  0  0  0
 16 30  1  0  0  0  0
 16 32  1  0  0  0  0
 17 35  1  0  0  0  0
 17 33  1  0  0  0  0
 17 34  1  0  0  0  0
 18  2  1  0  0  0  0
 19 18  1  0  0  0  0
 19 36  1  0  0  0  0
 20 19  2  0  0  0  0
 21 22  2  0  0  0  0
 21 20  1  0  0  0  0
 22 23  1  0  0  0  0
 23 40  1  0  0  0  0
 23 18  2  0  0  0  0
 27 13  1  0  0  0  0
 28 14  1  0  0  0  0
 29 15  1  0  0  0  0
 31 16  1  0  0  0  0
 37 20  1  0  0  0  0
 38 21  1  0  0  0  0
 39 22  1  0  0  0  0
M  RAD  1   8   2
M  END
$$$$
