rmsd234.gzmat
 OpenBabel08211713393D

 40 43  0  0  1  0  0  0  0  0999 V2000
    0.0000    0.0000    0.0000 S   0  0  1  0  0  0  0  0  0  0  0  0
    1.7686    0.0000    0.0000 C   0  0  0  0  0  0  0  0  0  0  0  0
    2.2808    0.0000    1.2286 N   0  0  0  0  0  0  0  0  0  0  0  0
    1.3596   -0.0158    2.2021 N   0  0  0  0  0  0  0  0  0  0  0  0
    0.1033   -0.0219    1.7982 C   0  0  0  0  0  0  0  0  0  0  0  0
   -1.0429   -0.1247    2.7637 C   0  0  0  0  0  0  0  0  0  0  0  0
   -2.1448    0.8309    2.4437 N   0  0  0  0  0  0  0  0  0  0  0  0
   -2.7181    0.9993    1.2436 C   0  0  2  0  0  0  0  0  0  0  0  0
   -2.1742    0.2805   -0.1644 S   0  0  0  0  0  0  0  0  0  0  0  0
   -3.8655    1.9255    1.1833 C   0  0  0  0  0  0  0  0  0  0  0  0
   -3.6364    3.2960    1.0465 C   0  0  0  0  0  0  0  0  0  0  0  0
   -4.7196    4.1665    0.9559 C   0  0  0  0  0  0  0  0  0  0  0  0
   -6.0213    3.6690    1.0038 C   0  0  0  0  0  0  0  0  0  0  0  0
   -6.2444    2.2999    1.1448 C   0  0  0  0  0  0  0  0  0  0  0  0
   -5.1662    1.4223    1.2335 C   0  0  0  0  0  0  0  0  0  0  0  0
   -1.5919   -1.5611    2.7627 C   0  0  0  0  0  0  0  0  0  0  0  0
   -0.5674    0.2408    4.1840 C   0  0  0  0  0  0  0  0  0  0  0  0
    2.5802   -0.0013   -1.2018 C   0  0  0  0  0  0  0  0  0  0  0  0
    2.1334    0.6084   -2.3793 C   0  0  0  0  0  0  0  0  0  0  0  0
    2.9343    0.5896   -3.5189 C   0  0  0  0  0  0  0  0  0  0  0  0
    4.1820   -0.0301   -3.4908 C   0  0  0  0  0  0  0  0  0  0  0  0
    4.6335   -0.6339   -2.3181 C   0  0  0  0  0  0  0  0  0  0  0  0
    3.8386   -0.6194   -1.1763 C   0  0  0  0  0  0  0  0  0  0  0  0
   -2.4876    1.3677    3.2410 H   0  0  0  0  0  0  0  0  0  0  0  0
   -2.6174    3.6820    0.9986 H   0  0  0  0  0  0  0  0  0  0  0  0
   -4.5495    5.2364    0.8431 H   0  0  0  0  0  0  0  0  0  0  0  0
   -6.8667    4.3519    0.9272 H   0  0  0  0  0  0  0  0  0  0  0  0
   -7.2626    1.9148    1.1802 H   0  0  0  0  0  0  0  0  0  0  0  0
   -5.3396    0.3506    1.3308 H   0  0  0  0  0  0  0  0  0  0  0  0
   -0.7920   -2.2724    3.0160 H   0  0  0  0  0  0  0  0  0  0  0  0
   -1.9862   -1.8730    1.7876 H   0  0  0  0  0  0  0  0  0  0  0  0
   -2.3949   -1.6899    3.4956 H   0  0  0  0  0  0  0  0  0  0  0  0
    0.2914   -0.3920    4.4713 H   0  0  0  0  0  0  0  0  0  0  0  0
   -1.3445    0.0955    4.9386 H   0  0  0  0  0  0  0  0  0  0  0  0
   -0.1959    1.2726    4.2422 H   0  0  0  0  0  0  0  0  0  0  0  0
    1.1652    1.1076   -2.4152 H   0  0  0  0  0  0  0  0  0  0  0  0
    2.5816    1.0629   -4.4326 H   0  0  0  0  0  0  0  0  0  0  0  0
    4.8056   -0.0405   -4.3817 H   0  0  0  0  0  0  0  0  0  0  0  0
    5.6095   -1.1137   -2.2941 H   0  0  0  0  0  0  0  0  0  0  0  0
    4.1930   -1.0804   -0.2517 H   0  0  0  0  0  0  0  0  0  0  0  0
  1  9  1  1  0  0  0
  1  2  1  0  0  0  0
  1  5  1  0  0  0  0
  2  3  2  0  0  0  0
  3  4  1  0  0  0  0
  5  4  2  0  0  0  0
  5  6  1  0  0  0  0
  6 17  1  0  0  0  0
  7  6  1  0  0  0  0
  7 24  1  0  0  0  0
  8 10  1  6  0  0  0
  8  7  1  0  0  0  0
  9  8  1  0  0  0  0
 10 15  1  0  0  0  0
 11 10  2  0  0  0  0
 12 13  2  0  0  0  0
 12 11  1  0  0  0  0
 13 14  1  0  0  0  0
 14 28  1  0  0  0  0
 14 15  2  0  0  0  0
 15 29  1  0  0  0  0
 16  6  1  0  0  0  0
 16 30  1  0  0  0  0
 16 32  1  0  0  0  0
 17 35  1  0  0  0  0
 17 33  1  0  0  0  0
 17 34  1  0  0  0  0
 18 23  1  0  0  0  0
 18  2  1  0  0  0  0
 19 18  2  0  0  0  0
 20 21  2  0  0  0  0
 20 19  1  0  0  0  0
 21 22  1  0  0  0  0
 22 39  1  0  0  0  0
 22 23  2  0  0  0  0
 23 40  1  0  0  0  0
 25 11  1  0  0  0  0
 26 12  1  0  0  0  0
 27 13  1  0  0  0  0
 31 16  1  0  0  0  0
 36 19  1  0  0  0  0
 37 20  1  0  0  0  0
 38 21  1  0  0  0  0
M  RAD  1   8   2
M  END
$$$$
