40
rmsd143.gzmat
S          0.00000        0.00000        0.00000
C          1.76850        0.00000        0.00000
N          2.28320        0.00000        1.22630
N          1.36260       -0.01580        2.20150
C          0.10620       -0.02190        1.79880
C         -1.03860       -0.11010        2.76720
N         -2.14800        0.82830        2.42560
C         -2.73620        0.95240        1.22630
S         -2.17860        0.20570       -0.16370
C         -3.91750        1.83190        1.15880
C         -3.87090        3.00580        0.40430
C         -4.99950        3.81940        0.32960
C         -6.16890        3.45600        0.99520
C         -6.21180        2.28150        1.74680
C         -5.08500        1.46920        1.83550
C         -1.57480       -1.55060        2.80520
C         -0.56310        0.29740        4.17620
C          2.57170        0.05460       -1.20630
C          3.73910        0.82970       -1.21270
C          4.51480        0.91250       -2.36480
C          4.13630        0.21760       -3.51280
C          2.98260       -0.56420       -3.50530
C          2.19910       -0.64880       -2.35650
H         -2.48650        1.39050        3.20720
H         -2.95970        3.28540       -0.12970
H         -4.96600        4.73920       -0.25310
H         -7.05320        4.08890        0.92710
H         -7.12840        1.99800        2.26160
H         -5.12040        0.54840        2.41680
H         -0.76230       -2.25080        3.05060
H         -1.99180       -1.88330        1.84640
H         -2.35640       -1.67250        3.56200
H          0.27290       -0.34920        4.49740
H         -1.35050        0.20740        4.92860
H         -0.15930        1.31890        4.19210
H          4.03780        1.35870       -0.30550
H          5.41840        1.51800       -2.36730
H          4.74320        0.28290       -4.41290
H          2.69090       -1.11260       -4.39850
H          1.30380       -1.26970       -2.36120
