rmsd111.gzmat
 OpenBabel08211713383D

 31 33  0  0  0  0  0  0  0  0999 V2000
    0.0000    0.0000    0.0000 N   0  0  0  0  0  0  0  0  0  0  0  0
    1.3058    0.0000    0.0000 C   0  0  0  0  0  0  0  0  0  0  0  0
    2.0594    0.0000    1.6444 S   0  0  0  0  0  0  0  0  0  0  0  0
    0.4442   -0.0080    2.3404 C   0  0  0  0  0  0  0  0  0  0  0  0
    0.1244   -0.0295    3.6427 N   0  0  0  0  0  0  0  0  0  0  0  0
   -1.2024   -0.0559    3.9162 C   0  0  0  0  0  0  0  0  0  0  0  0
   -2.2025   -0.0539    3.0096 N   0  0  0  0  0  0  0  0  0  0  0  0
   -1.8892   -0.0027    1.6773 C   0  0  0  0  0  0  0  0  0  0  0  0
   -2.8744    0.1170    0.7480 N   0  0  0  0  0  0  0  0  0  0  0  0
   -4.2893   -0.0709    1.0963 C   0  0  0  0  0  0  0  0  0  0  0  0
   -4.7150   -1.4927    0.8392 C   0  0  0  0  0  0  0  0  0  0  0  0
   -4.3494   -2.4938    1.7402 C   0  0  0  0  0  0  0  0  0  0  0  0
   -4.7271   -3.8125    1.5025 C   0  0  0  0  0  0  0  0  0  0  0  0
   -5.4715   -4.1310    0.3671 C   0  0  0  0  0  0  0  0  0  0  0  0
   -5.8389   -3.1296   -0.5296 C   0  0  0  0  0  0  0  0  0  0  0  0
   -5.4606   -1.8087   -0.2956 C   0  0  0  0  0  0  0  0  0  0  0  0
   -0.5117   -0.0007    1.2956 C   0  0  0  0  0  0  0  0  0  0  0  0
    2.2944   -0.0053   -1.4378 S   0  0  0  0  0  0  0  0  0  0  0  0
    1.0798   -0.0518   -2.7858 C   0  0  0  0  0  0  0  0  0  0  0  0
   -1.4958   -0.0873    4.9796 H   0  0  0  0  0  0  0  0  0  0  0  0
   -2.6195   -0.0014   -0.2291 H   0  0  0  0  0  0  0  0  0  0  0  0
   -4.8834    0.6568    0.4943 H   0  0  0  0  0  0  0  0  0  0  0  0
   -4.4605    0.2025    2.1705 H   0  0  0  0  0  0  0  0  0  0  0  0
   -3.7643   -2.2399    2.6265 H   0  0  0  0  0  0  0  0  0  0  0  0
   -4.4405   -4.5945    2.2028 H   0  0  0  0  0  0  0  0  0  0  0  0
   -5.7642   -5.1621    0.1804 H   0  0  0  0  0  0  0  0  0  0  0  0
   -6.4209   -3.3790   -1.4140 H   0  0  0  0  0  0  0  0  0  0  0  0
   -5.7488   -1.0309   -0.9992 H   0  0  0  0  0  0  0  0  0  0  0  0
    1.6178   -0.0518   -3.7406 H   0  0  0  0  0  0  0  0  0  0  0  0
    0.4066    0.8154   -2.7636 H   0  0  0  0  0  0  0  0  0  0  0  0
    0.4496   -0.9503   -2.7392 H   0  0  0  0  0  0  0  0  0  0  0  0
  1 17  2  0  0  0  0
  2  1  2  0  0  0  0
  2  3  1  0  0  0  0
  3  4  1  0  0  0  0
  4  5  2  0  0  0  0
  5  6  2  0  0  0  0
  6 20  1  0  0  0  0
  7  6  2  0  0  0  0
  8  7  2  0  0  0  0
  9 10  1  0  0  0  0
  9  8  1  0  0  0  0
 10 23  1  0  0  0  0
 11 10  1  0  0  0  0
 11 12  2  0  0  0  0
 12 24  1  0  0  0  0
 13 12  1  0  0  0  0
 13 25  1  0  0  0  0
 14 13  2  0  0  0  0
 15 16  2  0  0  0  0
 15 14  1  0  0  0  0
 16 11  1  0  0  0  0
 17  8  1  0  0  0  0
 17  4  1  0  0  0  0
 18  2  1  0  0  0  0
 19 30  1  0  0  0  0
 19 31  1  0  0  0  0
 19 18  1  0  0  0  0
 21  9  1  0  0  0  0
 22 10  1  0  0  0  0
 26 14  1  0  0  0  0
 27 15  1  0  0  0  0
 28 16  1  0  0  0  0
 29 19  1  0  0  0  0
M  END
$$$$
