31
rmsd184.gzmat
N          0.00000        0.00000        0.00000
C          1.30590        0.00000        0.00000
S          2.06000        0.00000        1.64400
C          0.44490       -0.01530        2.33990
N          0.12550       -0.04880        3.64210
C         -1.20120       -0.08500        3.91560
N         -2.20150       -0.07960        3.00950
C         -1.88920       -0.01400        1.67750
N         -2.87580        0.11360        0.75020
C         -4.28850       -0.10460        1.09140
C         -4.71120       -1.49740        0.70430
C         -4.32430       -2.58030        1.49510
C         -4.69350       -3.87230        1.13000
C         -5.45590       -4.08170       -0.01870
C         -5.84800       -2.99870       -0.80300
C         -5.47290       -1.70510       -0.44500
C         -0.51160       -0.00450        1.29540
S          2.29050       -0.01230       -1.44060
C          1.06730       -0.05280       -2.78100
H         -1.49430       -0.12620        4.97870
H         -2.61930        0.01440       -0.22940
H         -4.88830        0.67470        0.56290
H         -4.45530        0.06760        2.18710
H         -3.73130       -2.41210        2.39600
H         -4.38760       -4.71900        1.74240
H         -5.74480       -5.09150       -0.30290
H         -6.44650       -3.16260       -1.69660
H         -5.77610       -0.86400       -1.06450
H          1.59570       -0.16950       -3.73340
H          0.47160        0.86820       -2.81930
H          0.36170       -0.88800       -2.66960
