31
rmsd211.gzmat
N          0.00000        0.00000        0.00000
C          1.30590        0.00000        0.00000
S          2.05970        0.00000        1.64410
C          0.44440        0.01350        2.34010
N          0.12460        0.03990        3.64240
C         -1.20240        0.06600        3.91570
N         -2.20250        0.05950        3.00930
C         -1.88960        0.00500        1.67680
N         -2.87490       -0.11620        0.74840
C         -4.29140        0.06280        1.09350
C         -4.74860        1.46030        0.76660
C         -5.59240        1.68940       -0.31970
C         -6.01260        2.98620       -0.61010
C         -5.58280        4.05290        0.17700
C         -4.73320        3.82320        1.25900
C         -4.32120        2.52740        1.55870
C         -0.51180        0.00360        1.29530
S          2.29060        0.01060       -1.44080
C          1.07500        0.21860       -2.77340
H         -1.49640        0.09960        4.97910
H         -2.62090       -0.00580       -0.23010
H         -4.45580       -0.15470        2.18200
H         -4.87270       -0.70790        0.53270
H         -5.92720        0.86260       -0.94190
H         -6.67650        3.16460       -1.45340
H         -5.91140        5.06430       -0.05250
H         -4.39110        4.65590        1.87070
H         -3.66370        2.34320        2.41060
H          1.61080        0.29930       -3.72610
H          0.46890        1.12500       -2.63680
H          0.37960       -0.62940       -2.83270
