rmsd198.gzmat
 OpenBabel08211713383D

 31 33  0  0  0  0  0  0  0  0999 V2000
    0.0000    0.0000    0.0000 N   0  0  0  0  0  0  0  0  0  0  0  0
    1.3059    0.0000    0.0000 C   0  0  0  0  0  0  0  0  0  0  0  0
    2.0598    0.0000    1.6444 S   0  0  0  0  0  0  0  0  0  0  0  0
    0.4447    0.0028    2.3397 C   0  0  0  0  0  0  0  0  0  0  0  0
    0.1266   -0.0021    3.6425 N   0  0  0  0  0  0  0  0  0  0  0  0
   -1.1999   -0.0109    3.9179 C   0  0  0  0  0  0  0  0  0  0  0  0
   -2.2008   -0.0186    3.0121 N   0  0  0  0  0  0  0  0  0  0  0  0
   -1.8895    0.0054    1.6789 C   0  0  0  0  0  0  0  0  0  0  0  0
   -2.8790    0.1013    0.7495 N   0  0  0  0  0  0  0  0  0  0  0  0
   -4.2880   -0.1216    1.1042 C   0  0  0  0  0  0  0  0  0  0  0  0
   -4.6524   -1.5724    0.9258 C   0  0  0  0  0  0  0  0  0  0  0  0
   -4.2804   -2.5010    1.8991 C   0  0  0  0  0  0  0  0  0  0  0  0
   -4.5916   -3.8473    1.7289 C   0  0  0  0  0  0  0  0  0  0  0  0
   -5.2777   -4.2658    0.5896 C   0  0  0  0  0  0  0  0  0  0  0  0
   -5.6536   -3.3368   -0.3788 C   0  0  0  0  0  0  0  0  0  0  0  0
   -5.3402   -1.9890   -0.2133 C   0  0  0  0  0  0  0  0  0  0  0  0
   -0.5120    0.0047    1.2957 C   0  0  0  0  0  0  0  0  0  0  0  0
    2.2999    0.0047   -1.4339 S   0  0  0  0  0  0  0  0  0  0  0  0
    1.0979    0.0471   -2.7924 C   0  0  0  0  0  0  0  0  0  0  0  0
   -1.4926   -0.0174    4.9819 H   0  0  0  0  0  0  0  0  0  0  0  0
   -2.6242   -0.0381   -0.2253 H   0  0  0  0  0  0  0  0  0  0  0  0
   -4.9078    0.5454    0.4593 H   0  0  0  0  0  0  0  0  0  0  0  0
   -4.4741    0.2071    2.1598 H   0  0  0  0  0  0  0  0  0  0  0  0
   -3.7410   -2.1690    2.7890 H   0  0  0  0  0  0  0  0  0  0  0  0
   -4.2984   -4.5725    2.4857 H   0  0  0  0  0  0  0  0  0  0  0  0
   -5.5194   -5.3182    0.4564 H   0  0  0  0  0  0  0  0  0  0  0  0
   -6.1910   -3.6637   -1.2663 H   0  0  0  0  0  0  0  0  0  0  0  0
   -5.6340   -1.2684   -0.9730 H   0  0  0  0  0  0  0  0  0  0  0  0
    1.6164    0.3491   -3.7095 H   0  0  0  0  0  0  0  0  0  0  0  0
    0.2856    0.7634   -2.6051 H   0  0  0  0  0  0  0  0  0  0  0  0
    0.6324   -0.9327   -2.9549 H   0  0  0  0  0  0  0  0  0  0  0  0
  1 17  2  0  0  0  0
  2  1  2  0  0  0  0
  2  3  1  0  0  0  0
  3  4  1  0  0  0  0
  4  5  2  0  0  0  0
  5  6  2  0  0  0  0
  6 20  1  0  0  0  0
  7  6  2  0  0  0  0
  8  7  2  0  0  0  0
  9 10  1  0  0  0  0
  9  8  1  0  0  0  0
 10 23  1  0  0  0  0
 11 10  1  0  0  0  0
 11 12  2  0  0  0  0
 12 24  1  0  0  0  0
 13 12  1  0  0  0  0
 13 25  1  0  0  0  0
 14 13  2  0  0  0  0
 15 16  2  0  0  0  0
 15 14  1  0  0  0  0
 16 11  1  0  0  0  0
 17  8  1  0  0  0  0
 17  4  1  0  0  0  0
 18  2  1  0  0  0  0
 19 30  1  0  0  0  0
 19 18  1  0  0  0  0
 21  9  1  0  0  0  0
 22 10  1  0  0  0  0
 26 14  1  0  0  0  0
 27 15  1  0  0  0  0
 28 16  1  0  0  0  0
 29 19  1  0  0  0  0
 31 19  1  0  0  0  0
M  END
$$$$
