rmsd92.gzmat
 OpenBabel08211713383D

 31 33  0  0  0  0  0  0  0  0999 V2000
    0.0000    0.0000    0.0000 N   0  0  0  0  0  0  0  0  0  0  0  0
    1.3058    0.0000    0.0000 C   0  0  0  0  0  0  0  0  0  0  0  0
    2.0591    0.0000    1.6446 S   0  0  0  0  0  0  0  0  0  0  0  0
    0.4439   -0.0061    2.3405 C   0  0  0  0  0  0  0  0  0  0  0  0
    0.1226   -0.0245    3.6427 N   0  0  0  0  0  0  0  0  0  0  0  0
   -1.2047   -0.0437    3.9149 C   0  0  0  0  0  0  0  0  0  0  0  0
   -2.2048   -0.0357    3.0078 N   0  0  0  0  0  0  0  0  0  0  0  0
   -1.8894    0.0076    1.6760 C   0  0  0  0  0  0  0  0  0  0  0  0
   -2.8713    0.1313    0.7429 N   0  0  0  0  0  0  0  0  0  0  0  0
   -4.2880   -0.0482    1.0879 C   0  0  0  0  0  0  0  0  0  0  0  0
   -4.7012   -1.4838    0.8936 C   0  0  0  0  0  0  0  0  0  0  0  0
   -4.5149   -2.4020    1.9273 C   0  0  0  0  0  0  0  0  0  0  0  0
   -4.8790   -3.7340    1.7449 C   0  0  0  0  0  0  0  0  0  0  0  0
   -5.4302   -4.1479    0.5328 C   0  0  0  0  0  0  0  0  0  0  0  0
   -5.6153   -3.2290   -0.4988 C   0  0  0  0  0  0  0  0  0  0  0  0
   -5.2509   -1.8962   -0.3202 C   0  0  0  0  0  0  0  0  0  0  0  0
   -0.5114    0.0011    1.2957 C   0  0  0  0  0  0  0  0  0  0  0  0
    2.2942    0.0003   -1.4382 S   0  0  0  0  0  0  0  0  0  0  0  0
    1.0861   -0.1715   -2.7820 C   0  0  0  0  0  0  0  0  0  0  0  0
   -1.4993   -0.0722    4.9782 H   0  0  0  0  0  0  0  0  0  0  0  0
   -2.6136    0.0015   -0.2321 H   0  0  0  0  0  0  0  0  0  0  0  0
   -4.8825    0.6426    0.4434 H   0  0  0  0  0  0  0  0  0  0  0  0
   -4.4674    0.2799    2.1448 H   0  0  0  0  0  0  0  0  0  0  0  0
   -4.0761   -2.0753    2.8726 H   0  0  0  0  0  0  0  0  0  0  0  0
   -4.7294   -4.4525    2.5483 H   0  0  0  0  0  0  0  0  0  0  0  0
   -5.7140   -5.1886    0.3906 H   0  0  0  0  0  0  0  0  0  0  0  0
   -6.0445   -3.5532   -1.4443 H   0  0  0  0  0  0  0  0  0  0  0  0
   -5.3966   -1.1824   -1.1279 H   0  0  0  0  0  0  0  0  0  0  0  0
    1.6032   -0.0301   -3.7378 H   0  0  0  0  0  0  0  0  0  0  0  0
    0.2799    0.5716   -2.7102 H   0  0  0  0  0  0  0  0  0  0  0  0
    0.6132   -1.1620   -2.7821 H   0  0  0  0  0  0  0  0  0  0  0  0
  1 17  2  0  0  0  0
  2  1  2  0  0  0  0
  2  3  1  0  0  0  0
  3  4  1  0  0  0  0
  4  5  2  0  0  0  0
  5  6  2  0  0  0  0
  6 20  1  0  0  0  0
  7  6  2  0  0  0  0
  8  7  2  0  0  0  0
  9 10  1  0  0  0  0
  9  8  1  0  0  0  0
 10 23  1  0  0  0  0
 11 10  1  0  0  0  0
 11 12  2  0  0  0  0
 12 24  1  0  0  0  0
 13 12  1  0  0  0  0
 13 25  1  0  0  0  0
 14 13  2  0  0  0  0
 15 16  2  0  0  0  0
 15 14  1  0  0  0  0
 16 11  1  0  0  0  0
 17  8  1  0  0  0  0
 17  4  1  0  0  0  0
 18  2  1  0  0  0  0
 19 30  1  0  0  0  0
 19 18  1  0  0  0  0
 21  9  1  0  0  0  0
 22 10  1  0  0  0  0
 26 14  1  0  0  0  0
 27 15  1  0  0  0  0
 28 16  1  0  0  0  0
 29 19  1  0  0  0  0
 31 19  1  0  0  0  0
M  END
$$$$
