31
rmsd111.gzmat
N          0.00000        0.00000        0.00000
C          1.30580        0.00000        0.00000
S          2.05940        0.00000        1.64440
C          0.44420       -0.00800        2.34040
N          0.12440       -0.02950        3.64270
C         -1.20240       -0.05590        3.91620
N         -2.20250       -0.05390        3.00960
C         -1.88920       -0.00270        1.67730
N         -2.87440        0.11700        0.74800
C         -4.28930       -0.07090        1.09630
C         -4.71500       -1.49270        0.83920
C         -4.34940       -2.49380        1.74020
C         -4.72710       -3.81250        1.50250
C         -5.47150       -4.13100        0.36710
C         -5.83890       -3.12960       -0.52960
C         -5.46060       -1.80870       -0.29560
C         -0.51170       -0.00070        1.29560
S          2.29440       -0.00530       -1.43780
C          1.07980       -0.05180       -2.78580
H         -1.49580       -0.08730        4.97960
H         -2.61950       -0.00140       -0.22910
H         -4.88340        0.65680        0.49430
H         -4.46050        0.20250        2.17050
H         -3.76430       -2.23990        2.62650
H         -4.44050       -4.59450        2.20280
H         -5.76420       -5.16210        0.18040
H         -6.42090       -3.37900       -1.41400
H         -5.74880       -1.03090       -0.99920
H          1.61780       -0.05180       -3.74060
H          0.40660        0.81540       -2.76360
H          0.44960       -0.95030       -2.73920
