rmsd128.gzmat
 OpenBabel08211713383D

 31 33  0  0  0  0  0  0  0  0999 V2000
    0.0000    0.0000    0.0000 N   0  0  0  0  0  0  0  0  0  0  0  0
    1.3060    0.0000    0.0000 C   0  0  0  0  0  0  0  0  0  0  0  0
    2.0602    0.0000    1.6444 S   0  0  0  0  0  0  0  0  0  0  0  0
    0.4452    0.0000    2.3403 C   0  0  0  0  0  0  0  0  0  0  0  0
    0.1259   -0.0105    3.6429 N   0  0  0  0  0  0  0  0  0  0  0  0
   -1.2008   -0.0219    3.9175 C   0  0  0  0  0  0  0  0  0  0  0  0
   -2.2018   -0.0253    3.0117 N   0  0  0  0  0  0  0  0  0  0  0  0
   -1.8888    0.0014    1.6788 C   0  0  0  0  0  0  0  0  0  0  0  0
   -2.8757    0.0951    0.7469 N   0  0  0  0  0  0  0  0  0  0  0  0
   -4.2871   -0.1056    1.1024 C   0  0  0  0  0  0  0  0  0  0  0  0
   -4.6611   -1.5618    1.0036 C   0  0  0  0  0  0  0  0  0  0  0  0
   -4.4519   -2.4018    2.0984 C   0  0  0  0  0  0  0  0  0  0  0  0
   -4.7878   -3.7506    2.0124 C   0  0  0  0  0  0  0  0  0  0  0  0
   -5.3372   -4.2589    0.8359 C   0  0  0  0  0  0  0  0  0  0  0  0
   -5.5425   -3.4196   -0.2579 C   0  0  0  0  0  0  0  0  0  0  0  0
   -5.2021   -2.0704   -0.1768 C   0  0  0  0  0  0  0  0  0  0  0  0
   -0.5115    0.0032    1.2960 C   0  0  0  0  0  0  0  0  0  0  0  0
    2.2960   -0.0010   -1.4372 S   0  0  0  0  0  0  0  0  0  0  0  0
    1.0813    0.0350   -2.7855 C   0  0  0  0  0  0  0  0  0  0  0  0
   -1.4933   -0.0341    4.9816 H   0  0  0  0  0  0  0  0  0  0  0  0
   -2.6195   -0.0473   -0.2267 H   0  0  0  0  0  0  0  0  0  0  0  0
   -4.9017    0.5253    0.4174 H   0  0  0  0  0  0  0  0  0  0  0  0
   -4.4755    0.2833    2.1371 H   0  0  0  0  0  0  0  0  0  0  0  0
   -4.0185   -1.9992    3.0170 H   0  0  0  0  0  0  0  0  0  0  0  0
   -4.6198   -4.4075    2.8641 H   0  0  0  0  0  0  0  0  0  0  0  0
   -5.6033   -5.3122    0.7720 H   0  0  0  0  0  0  0  0  0  0  0  0
   -5.9688   -3.8173   -1.1761 H   0  0  0  0  0  0  0  0  0  0  0  0
   -5.3594   -1.4202   -1.0343 H   0  0  0  0  0  0  0  0  0  0  0  0
    1.6175    0.0913   -3.7392 H   0  0  0  0  0  0  0  0  0  0  0  0
    0.4095    0.9007   -2.7112 H   0  0  0  0  0  0  0  0  0  0  0  0
    0.4498   -0.8632   -2.7912 H   0  0  0  0  0  0  0  0  0  0  0  0
  1 17  2  0  0  0  0
  2  1  2  0  0  0  0
  2  3  1  0  0  0  0
  3  4  1  0  0  0  0
  4  5  2  0  0  0  0
  5  6  2  0  0  0  0
  6 20  1  0  0  0  0
  7  6  2  0  0  0  0
  8  7  2  0  0  0  0
  9 10  1  0  0  0  0
  9  8  1  0  0  0  0
 10 23  1  0  0  0  0
 11 10  1  0  0  0  0
 11 12  2  0  0  0  0
 12 24  1  0  0  0  0
 13 12  1  0  0  0  0
 13 25  1  0  0  0  0
 14 13  2  0  0  0  0
 15 16  2  0  0  0  0
 15 14  1  0  0  0  0
 16 11  1  0  0  0  0
 17  8  1  0  0  0  0
 17  4  1  0  0  0  0
 18  2  1  0  0  0  0
 19 30  1  0  0  0  0
 19 18  1  0  0  0  0
 21  9  1  0  0  0  0
 22 10  1  0  0  0  0
 26 14  1  0  0  0  0
 27 15  1  0  0  0  0
 28 16  1  0  0  0  0
 29 19  1  0  0  0  0
 31 19  1  0  0  0  0
M  END
$$$$
