rmsd118.gzmat
 OpenBabel08211713383D

 31 33  0  0  0  0  0  0  0  0999 V2000
    0.0000    0.0000    0.0000 N   0  0  0  0  0  0  0  0  0  0  0  0
    1.3059    0.0000    0.0000 C   0  0  0  0  0  0  0  0  0  0  0  0
    2.0604    0.0000    1.6441 S   0  0  0  0  0  0  0  0  0  0  0  0
    0.4455    0.0046    2.3402 C   0  0  0  0  0  0  0  0  0  0  0  0
    0.1263    0.0221    3.6426 N   0  0  0  0  0  0  0  0  0  0  0  0
   -1.2005    0.0411    3.9167 C   0  0  0  0  0  0  0  0  0  0  0  0
   -2.2015    0.0388    3.0106 N   0  0  0  0  0  0  0  0  0  0  0  0
   -1.8883   -0.0021    1.6785 C   0  0  0  0  0  0  0  0  0  0  0  0
   -2.8747   -0.1156    0.7468 N   0  0  0  0  0  0  0  0  0  0  0  0
   -4.2847    0.1053    1.0978 C   0  0  0  0  0  0  0  0  0  0  0  0
   -4.6352    1.5649    0.9721 C   0  0  0  0  0  0  0  0  0  0  0  0
   -5.1040    2.0734   -0.2391 C   0  0  0  0  0  0  0  0  0  0  0  0
   -5.4010    3.4299   -0.3520 C   0  0  0  0  0  0  0  0  0  0  0  0
   -5.2270    4.2770    0.7414 C   0  0  0  0  0  0  0  0  0  0  0  0
   -4.7566    3.7674    1.9510 C   0  0  0  0  0  0  0  0  0  0  0  0
   -4.4613    2.4114    2.0679 C   0  0  0  0  0  0  0  0  0  0  0  0
   -0.5111   -0.0016    1.2961 C   0  0  0  0  0  0  0  0  0  0  0  0
    2.2946    0.0025   -1.4380 S   0  0  0  0  0  0  0  0  0  0  0  0
    1.0796    0.0779   -2.7844 C   0  0  0  0  0  0  0  0  0  0  0  0
   -1.4940    0.0655    4.9802 H   0  0  0  0  0  0  0  0  0  0  0  0
   -2.6163    0.0211   -0.2275 H   0  0  0  0  0  0  0  0  0  0  0  0
   -4.4779   -0.2651    2.1380 H   0  0  0  0  0  0  0  0  0  0  0  0
   -4.9062   -0.5291    0.4224 H   0  0  0  0  0  0  0  0  0  0  0  0
   -5.2359    1.4171   -1.0961 H   0  0  0  0  0  0  0  0  0  0  0  0
   -5.7659    3.8298   -1.2956 H   0  0  0  0  0  0  0  0  0  0  0  0
   -5.4560    5.3367    0.6498 H   0  0  0  0  0  0  0  0  0  0  0  0
   -4.6178    4.4286    2.8043 H   0  0  0  0  0  0  0  0  0  0  0  0
   -4.0845    2.0098    3.0109 H   0  0  0  0  0  0  0  0  0  0  0  0
    1.6167    0.0927   -3.7393 H   0  0  0  0  0  0  0  0  0  0  0  0
    0.4522    0.9777   -2.7211 H   0  0  0  0  0  0  0  0  0  0  0  0
    0.4038   -0.7878   -2.7771 H   0  0  0  0  0  0  0  0  0  0  0  0
  1  2  2  0  0  0  0
  1 17  2  0  0  0  0
  2  3  1  0  0  0  0
  3  4  1  0  0  0  0
  4  5  2  0  0  0  0
  5  6  2  0  0  0  0
  6 20  1  0  0  0  0
  7  6  2  0  0  0  0
  8  7  2  0  0  0  0
  9 10  1  0  0  0  0
  9  8  1  0  0  0  0
 10 22  1  0  0  0  0
 11 10  1  0  0  0  0
 11 16  2  0  0  0  0
 12 11  1  0  0  0  0
 13 12  2  0  0  0  0
 13 14  1  0  0  0  0
 14 15  2  0  0  0  0
 15 16  1  0  0  0  0
 15 27  1  0  0  0  0
 16 28  1  0  0  0  0
 17  8  1  0  0  0  0
 17  4  1  0  0  0  0
 18  2  1  0  0  0  0
 19 31  1  0  0  0  0
 19 30  1  0  0  0  0
 19 18  1  0  0  0  0
 21  9  1  0  0  0  0
 23 10  1  0  0  0  0
 24 12  1  0  0  0  0
 25 13  1  0  0  0  0
 26 14  1  0  0  0  0
 29 19  1  0  0  0  0
M  END
$$$$
