rmsd246.gzmat
 OpenBabel08211713383D

 31 33  0  0  0  0  0  0  0  0999 V2000
    0.0000    0.0000    0.0000 N   0  0  0  0  0  0  0  0  0  0  0  0
    1.3059    0.0000    0.0000 C   0  0  0  0  0  0  0  0  0  0  0  0
    2.0597    0.0000    1.6442 S   0  0  0  0  0  0  0  0  0  0  0  0
    0.4447   -0.0022    2.3401 C   0  0  0  0  0  0  0  0  0  0  0  0
    0.1247   -0.0153    3.6425 N   0  0  0  0  0  0  0  0  0  0  0  0
   -1.2021   -0.0292    3.9165 C   0  0  0  0  0  0  0  0  0  0  0  0
   -2.2026   -0.0299    3.0101 N   0  0  0  0  0  0  0  0  0  0  0  0
   -1.8886    0.0044    1.6779 C   0  0  0  0  0  0  0  0  0  0  0  0
   -2.8741    0.1112    0.7457 N   0  0  0  0  0  0  0  0  0  0  0  0
   -4.2860   -0.0911    1.0987 C   0  0  0  0  0  0  0  0  0  0  0  0
   -4.6562   -1.5475    0.9930 C   0  0  0  0  0  0  0  0  0  0  0  0
   -4.4596   -2.3894    2.0882 C   0  0  0  0  0  0  0  0  0  0  0  0
   -4.7855   -3.7400    1.9922 C   0  0  0  0  0  0  0  0  0  0  0  0
   -5.3073   -4.2489    0.8034 C   0  0  0  0  0  0  0  0  0  0  0  0
   -5.5004   -3.4069   -0.2906 C   0  0  0  0  0  0  0  0  0  0  0  0
   -5.1745   -2.0551   -0.1980 C   0  0  0  0  0  0  0  0  0  0  0  0
   -0.5115    0.0032    1.2958 C   0  0  0  0  0  0  0  0  0  0  0  0
    2.2963   -0.0088   -1.4367 S   0  0  0  0  0  0  0  0  0  0  0  0
    1.0845    0.0563   -2.7872 C   0  0  0  0  0  0  0  0  0  0  0  0
   -1.4959   -0.0457    4.9801 H   0  0  0  0  0  0  0  0  0  0  0  0
   -2.6168   -0.0273   -0.2280 H   0  0  0  0  0  0  0  0  0  0  0  0
   -4.8993    0.5425    0.4153 H   0  0  0  0  0  0  0  0  0  0  0  0
   -4.4763    0.2928    2.1346 H   0  0  0  0  0  0  0  0  0  0  0  0
   -4.0419   -1.9884    3.0147 H   0  0  0  0  0  0  0  0  0  0  0  0
   -4.6292   -4.3967    2.8455 H   0  0  0  0  0  0  0  0  0  0  0  0
   -5.5617   -5.3042    0.7285 H   0  0  0  0  0  0  0  0  0  0  0  0
   -5.9037   -3.8070   -1.2184 H   0  0  0  0  0  0  0  0  0  0  0  0
   -5.3231   -1.4008   -1.0540 H   0  0  0  0  0  0  0  0  0  0  0  0
    1.5995   -0.1600   -3.7300 H   0  0  0  0  0  0  0  0  0  0  0  0
    0.6106    1.0432   -2.8625 H   0  0  0  0  0  0  0  0  0  0  0  0
    0.2800   -0.6822   -2.6558 H   0  0  0  0  0  0  0  0  0  0  0  0
  1 17  2  0  0  0  0
  2  1  2  0  0  0  0
  2  3  1  0  0  0  0
  3  4  1  0  0  0  0
  4  5  2  0  0  0  0
  5  6  2  0  0  0  0
  6 20  1  0  0  0  0
  7  6  2  0  0  0  0
  8  7  2  0  0  0  0
  9 10  1  0  0  0  0
  9  8  1  0  0  0  0
 10 23  1  0  0  0  0
 11 10  1  0  0  0  0
 11 12  2  0  0  0  0
 12 24  1  0  0  0  0
 13 12  1  0  0  0  0
 13 25  1  0  0  0  0
 14 13  2  0  0  0  0
 15 16  2  0  0  0  0
 15 14  1  0  0  0  0
 16 11  1  0  0  0  0
 17  8  1  0  0  0  0
 17  4  1  0  0  0  0
 18  2  1  0  0  0  0
 19 31  1  0  0  0  0
 19 18  1  0  0  0  0
 21  9  1  0  0  0  0
 22 10  1  0  0  0  0
 26 14  1  0  0  0  0
 27 15  1  0  0  0  0
 28 16  1  0  0  0  0
 29 19  1  0  0  0  0
 30 19  1  0  0  0  0
M  END
$$$$
