rmsd184.gzmat
 OpenBabel08211713383D

 31 33  0  0  0  0  0  0  0  0999 V2000
    0.0000    0.0000    0.0000 N   0  0  0  0  0  0  0  0  0  0  0  0
    1.3059    0.0000    0.0000 C   0  0  0  0  0  0  0  0  0  0  0  0
    2.0600    0.0000    1.6440 S   0  0  0  0  0  0  0  0  0  0  0  0
    0.4449   -0.0153    2.3399 C   0  0  0  0  0  0  0  0  0  0  0  0
    0.1255   -0.0488    3.6421 N   0  0  0  0  0  0  0  0  0  0  0  0
   -1.2012   -0.0850    3.9156 C   0  0  0  0  0  0  0  0  0  0  0  0
   -2.2015   -0.0796    3.0095 N   0  0  0  0  0  0  0  0  0  0  0  0
   -1.8892   -0.0140    1.6775 C   0  0  0  0  0  0  0  0  0  0  0  0
   -2.8758    0.1136    0.7502 N   0  0  0  0  0  0  0  0  0  0  0  0
   -4.2885   -0.1046    1.0914 C   0  0  0  0  0  0  0  0  0  0  0  0
   -4.7112   -1.4974    0.7043 C   0  0  0  0  0  0  0  0  0  0  0  0
   -4.3243   -2.5803    1.4951 C   0  0  0  0  0  0  0  0  0  0  0  0
   -4.6935   -3.8723    1.1300 C   0  0  0  0  0  0  0  0  0  0  0  0
   -5.4559   -4.0817   -0.0187 C   0  0  0  0  0  0  0  0  0  0  0  0
   -5.8480   -2.9987   -0.8030 C   0  0  0  0  0  0  0  0  0  0  0  0
   -5.4729   -1.7051   -0.4450 C   0  0  0  0  0  0  0  0  0  0  0  0
   -0.5116   -0.0045    1.2954 C   0  0  0  0  0  0  0  0  0  0  0  0
    2.2905   -0.0123   -1.4406 S   0  0  0  0  0  0  0  0  0  0  0  0
    1.0673   -0.0528   -2.7810 C   0  0  0  0  0  0  0  0  0  0  0  0
   -1.4943   -0.1262    4.9787 H   0  0  0  0  0  0  0  0  0  0  0  0
   -2.6193    0.0144   -0.2294 H   0  0  0  0  0  0  0  0  0  0  0  0
   -4.8883    0.6747    0.5629 H   0  0  0  0  0  0  0  0  0  0  0  0
   -4.4553    0.0676    2.1871 H   0  0  0  0  0  0  0  0  0  0  0  0
   -3.7313   -2.4121    2.3960 H   0  0  0  0  0  0  0  0  0  0  0  0
   -4.3876   -4.7190    1.7424 H   0  0  0  0  0  0  0  0  0  0  0  0
   -5.7448   -5.0915   -0.3029 H   0  0  0  0  0  0  0  0  0  0  0  0
   -6.4465   -3.1626   -1.6966 H   0  0  0  0  0  0  0  0  0  0  0  0
   -5.7761   -0.8640   -1.0645 H   0  0  0  0  0  0  0  0  0  0  0  0
    1.5957   -0.1695   -3.7334 H   0  0  0  0  0  0  0  0  0  0  0  0
    0.4716    0.8682   -2.8193 H   0  0  0  0  0  0  0  0  0  0  0  0
    0.3617   -0.8880   -2.6696 H   0  0  0  0  0  0  0  0  0  0  0  0
  1 17  2  0  0  0  0
  2  1  2  0  0  0  0
  2  3  1  0  0  0  0
  3  4  1  0  0  0  0
  4  5  2  0  0  0  0
  5  6  2  0  0  0  0
  6 20  1  0  0  0  0
  7  6  2  0  0  0  0
  8  7  2  0  0  0  0
  9 10  1  0  0  0  0
  9  8  1  0  0  0  0
 10 23  1  0  0  0  0
 11 10  1  0  0  0  0
 11 12  2  0  0  0  0
 12 24  1  0  0  0  0
 13 12  1  0  0  0  0
 13 25  1  0  0  0  0
 14 13  2  0  0  0  0
 15 16  2  0  0  0  0
 15 14  1  0  0  0  0
 16 11  1  0  0  0  0
 17  8  1  0  0  0  0
 17  4  1  0  0  0  0
 18  2  1  0  0  0  0
 19 31  1  0  0  0  0
 19 18  1  0  0  0  0
 21  9  1  0  0  0  0
 22 10  1  0  0  0  0
 26 14  1  0  0  0  0
 27 15  1  0  0  0  0
 28 16  1  0  0  0  0
 29 19  1  0  0  0  0
 30 19  1  0  0  0  0
M  END
$$$$
