43
rmsd164.gzmat
Cl         0.00000        0.00000        0.00000
C          1.69800        0.00000        0.00000
C          2.40780        0.00000        1.21660
C          3.80760       -0.11420        1.19180
C          4.44510       -0.17880       -0.04080
O          5.78920       -0.30640       -0.14790
C          3.75120       -0.10550       -1.26320
C          2.35300       -0.04270       -1.21670
C          4.43550       -0.09170       -2.53320
N          5.49890       -0.92180       -2.83790
H          6.00330       -1.53070       -2.22320
N          5.93220       -0.73220       -4.11100
C          5.13430        0.21080       -4.66100
C          4.18200        0.66040       -3.69650
C          3.19120        1.71050       -3.90050
O          2.42970        1.78790       -4.84250
N          3.20900        2.69970       -2.92130
C          2.18070        3.73960       -2.89690
C          1.30440        3.55720       -1.68220
C          1.83710        3.79230       -0.41210
C          1.07010        3.54090        0.72100
C         -0.23570        3.06780        0.58610
C         -0.78660        2.88380       -0.68240
C         -0.01260        3.11960       -1.81700
S         -1.13450        2.57300        1.99570
O         -2.48610        2.24260        1.62950
O         -0.28820        1.62830        2.72150
N         -1.22170        3.95340        3.03770
O          1.86110        0.05890        2.42350
H          4.35250       -0.14790        2.12990
H          6.24310       -0.30550        0.73360
H          1.78720       -0.03230       -2.15740
H          5.24260        0.53960       -5.68060
H          3.76950        2.58750       -2.09170
H          1.58830        3.70270       -3.84760
H          2.67330        4.74160       -2.88370
H          2.85570        4.16010       -0.30680
H          1.51330        3.71070        1.70620
H         -1.81970        2.53240       -0.80420
H         -0.43230        2.94090       -2.80750
H         -0.73650        3.88240        3.91890
H         -2.13360        4.36090        3.17320
H          0.95090        0.52980        2.48200
