43
rmsd229.gzmat
Cl         0.00000        0.00000        0.00000
C          1.69790        0.00000        0.00000
C          2.39060        0.00000        1.22830
C          3.78880        0.01100        1.24130
C          4.45690        0.07810        0.02020
O          5.80280        0.10820       -0.06150
C          3.77440        0.13060       -1.20930
C          2.37730        0.04660       -1.20140
C          4.49960        0.38110       -2.43460
N          5.07860       -0.60530       -3.20790
H          5.10390       -1.59300       -3.05190
N          5.72230       -0.08060       -4.28430
C          5.57040        1.26130       -4.21730
C          4.79460        1.60300       -3.06780
C          4.47210        2.94870       -2.60930
O          5.26020        3.87180       -2.56610
N          3.14490        3.14600       -2.22570
C          2.80010        4.33900       -1.44870
C          2.96700        4.02900        0.01990
C          4.23890        4.08870        0.59280
C          4.42640        3.69010        1.91240
C          3.34380        3.21930        2.65790
C          2.06610        3.19770        2.09810
C          1.87630        3.60700        0.78010
S          3.62460        2.55720        4.24410
O          3.22050        1.14940        4.19170
O          4.93650        2.91920        4.71250
N          2.47850        3.30050        5.30470
O          1.66270        0.00390        2.34330
H          4.32420       -0.03320        2.18730
H          6.23330        0.12480        0.83540
H          1.83390        0.03560       -2.15220
H          5.99400        1.92960       -4.94780
H          2.51990        2.36030       -2.13390
H          1.75750        4.64210       -1.69650
H          3.45750        5.19120       -1.76050
H          5.08950        4.42160       -0.01020
H          5.43260        3.74350        2.34630
H          1.19930        2.84700        2.66730
H          0.87960        3.57300        0.34260
H          2.84460        3.92820        6.00390
H          1.77950        2.69620        5.71000
H          2.21660        0.28210        3.16340
