
     RDKit          3D

 43 45  0  0  0  0  0  0  0  0999 V2000
   -0.1107    0.1307   -0.0006 Cl  0  0  0  0  0  0  0  0  0  0  0  0
    1.6350    0.0597    0.0400 C   0  0  0  0  0  0  0  0  0  0  0  0
    2.2988    0.0199    1.2818 C   0  0  0  0  0  0  0  0  0  0  0  0
    3.6898   -0.0808    1.2930 C   0  0  0  0  0  0  0  0  0  0  0  0
    4.4444   -0.1616    0.1126 C   0  0  0  0  0  0  0  0  0  0  0  0
    5.7751   -0.2223    0.2535 O   0  0  0  0  0  0  0  0  0  0  0  0
    3.7680   -0.1316   -1.1367 C   0  0  0  0  0  0  0  0  0  0  0  0
    2.3646   -0.0156   -1.1376 C   0  0  0  0  0  0  0  0  0  0  0  0
    4.4467   -0.2178   -2.4398 C   0  0  0  0  0  0  0  0  0  0  0  0
    4.1612    0.6328   -3.4665 N   0  0  0  0  0  0  0  0  0  0  0  0
    3.5794    1.4611   -3.4060 H   0  0  0  0  0  0  0  0  0  0  0  0
    4.7547    0.3174   -4.6253 N   0  0  0  0  0  0  0  0  0  0  0  0
    5.4459   -0.7858   -4.3619 C   0  0  0  0  0  0  0  0  0  0  0  0
    5.3019   -1.1704   -3.0029 C   0  0  0  0  0  0  0  0  0  0  0  0
    5.8428   -2.3254   -2.2491 C   0  0  0  0  0  0  0  0  0  0  0  0
    6.5971   -2.1748   -1.2847 O   0  0  0  0  0  0  0  0  0  0  0  0
    5.3997   -3.5564   -2.6071 N   0  0  0  0  0  0  0  0  0  0  0  0
    5.4979   -4.6621   -1.6498 C   0  0  0  0  0  0  0  0  0  0  0  0
    4.6066   -4.4020   -0.4482 C   0  0  0  0  0  0  0  0  0  0  0  0
    5.1305   -3.8215    0.7156 C   0  0  0  0  0  0  0  0  0  0  0  0
    4.2888   -3.4392    1.7594 C   0  0  0  0  0  0  0  0  0  0  0  0
    2.9148   -3.6507    1.6371 C   0  0  0  0  0  0  0  0  0  0  0  0
    2.3698   -4.2526    0.5006 C   0  0  0  0  0  0  0  0  0  0  0  0
    3.2231   -4.6192   -0.5391 C   0  0  0  0  0  0  0  0  0  0  0  0
    1.8746   -3.2232    3.0262 S   0  0  0  0  0  0  0  0  0  0  0  0
    1.5461   -4.4251    3.7882 O   0  0  0  0  0  0  0  0  0  0  0  0
    2.5389   -2.0905    3.7142 O   0  0  0  0  0  0  0  0  0  0  0  0
    0.4565   -2.7249    2.2976 N   0  0  0  0  0  0  0  0  0  0  0  0
    1.5626    0.0335    2.4138 O   0  0  0  0  0  0  0  0  0  0  0  0
    4.2235   -0.1203    2.2431 H   0  0  0  0  0  0  0  0  0  0  0  0
    6.2055   -0.7856   -0.4365 H   0  0  0  0  0  0  0  0  0  0  0  0
    1.8246   -0.0199   -2.0857 H   0  0  0  0  0  0  0  0  0  0  0  0
    6.0405   -1.2646   -5.1393 H   0  0  0  0  0  0  0  0  0  0  0  0
    4.6598   -3.5879   -3.2993 H   0  0  0  0  0  0  0  0  0  0  0  0
    6.5460   -4.7606   -1.3387 H   0  0  0  0  0  0  0  0  0  0  0  0
    5.2044   -5.5843   -2.1708 H   0  0  0  0  0  0  0  0  0  0  0  0
    6.2001   -3.6246    0.7836 H   0  0  0  0  0  0  0  0  0  0  0  0
    4.6869   -2.9559    2.6518 H   0  0  0  0  0  0  0  0  0  0  0  0
    1.2923   -4.4017    0.4269 H   0  0  0  0  0  0  0  0  0  0  0  0
    2.8016   -5.0709   -1.4417 H   0  0  0  0  0  0  0  0  0  0  0  0
    0.4261   -1.7118    2.1364 H   0  0  0  0  0  0  0  0  0  0  0  0
   -0.3327   -3.0679    2.8445 H   0  0  0  0  0  0  0  0  0  0  0  0
    2.0504   -0.4521    3.1159 H   0  0  0  0  0  0  0  0  0  0  0  0
  1  2  1  0
  2  3  2  0
  2  8  1  0
  3  4  1  0
  3 29  1  0
  4  5  2  0
  4 30  1  0
  5  6  1  0
  5  7  1  0
  6 31  1  0
  7  8  2  0
  7  9  1  0
  8 32  1  0
  9 10  1  0
  9 14  2  0
 10 11  1  0
 10 12  1  0
 12 13  2  0
 13 14  1  0
 13 33  1  0
 14 15  1  0
 15 16  2  0
 15 17  1  0
 17 18  1  0
 17 34  1  0
 18 19  1  0
 18 35  1  0
 18 36  1  0
 19 20  2  0
 19 24  1  0
 20 21  1  0
 20 37  1  0
 21 22  2  0
 21 38  1  0
 22 23  1  0
 22 25  1  0
 23 24  2  0
 23 39  1  0
 24 40  1  0
 25 26  2  0
 25 27  2  0
 25 28  1  0
 28 41  1  0
 28 42  1  0
 29 43  1  0
M  END

