43
rmsd68.gzmat
Cl         0.00000        0.00000        0.00000
C          1.68880        0.00000        0.00000
C          2.39650        0.00000        1.21300
C          3.79200        0.01280        1.22670
C          4.45040        0.01550       -0.00480
O          5.79970        0.05180       -0.09250
C          3.76700       -0.01460       -1.23240
C          2.36480        0.00170       -1.20620
C          4.46450       -0.07610       -2.49560
N          5.61880        0.63760       -2.76540
H          6.17580        1.17440       -2.12920
N          6.05040        0.42980       -4.03550
C          5.16370       -0.40780       -4.61860
C          4.14890       -0.76990       -3.67940
C          3.04570       -1.68150       -3.96050
O          2.43670       -1.71380       -5.01230
N          2.73700       -2.57300       -2.94230
C          1.58100       -3.45970       -3.07010
C          0.33180       -2.81950       -2.51430
C         -0.26620       -1.76470       -3.20610
C         -1.44130       -1.19410       -2.72540
C         -2.01790       -1.67720       -1.55070
C         -1.41550       -2.72230       -0.85240
C         -0.23710       -3.29200       -1.33230
S         -3.49960       -0.96420       -0.94450
O         -4.30490       -0.51620       -2.05610
O         -4.03130       -1.81400        0.09580
N         -2.96470        0.48540       -0.14990
O          1.65420       -0.01520        2.33670
H          4.34390        0.02300        2.15790
H          6.24650       -0.01170        0.78990
H          1.80650        0.00850       -2.15290
H          5.25020       -0.72610       -5.64460
H          3.17670       -2.50910       -2.04020
H          1.81070       -4.42350       -2.56050
H          1.42650       -3.71150       -4.15380
H          0.18490       -1.39800       -4.13240
H         -1.90540       -0.37740       -3.28830
H         -1.85790       -3.10990        0.07290
H          0.22960       -4.10540       -0.78270
H         -3.01450        0.50500        0.85440
H         -3.27200        1.35970       -0.54090
H          2.20940       -0.00320        3.15980
