rmsd235.gzmat
 OpenBabel08211713433D

 43 45  0  0  0  0  0  0  0  0999 V2000
    0.0000    0.0000    0.0000 Cl  0  0  0  0  0  0  0  0  0  0  0  0
    1.6980    0.0000    0.0000 C   0  0  0  0  0  0  0  0  0  0  0  0
    2.3894    0.0000    1.2286 C   0  0  0  0  0  0  0  0  0  0  0  0
    3.7870   -0.0332    1.2444 C   0  0  0  0  0  0  0  0  0  0  0  0
    4.4557   -0.1042    0.0240 C   0  0  0  0  0  0  0  0  0  0  0  0
    5.8010   -0.1540   -0.0565 O   0  0  0  0  0  0  0  0  0  0  0  0
    3.7747   -0.1365   -1.2070 C   0  0  0  0  0  0  0  0  0  0  0  0
    2.3783   -0.0478   -1.2010 C   0  0  0  0  0  0  0  0  0  0  0  0
    4.5012   -0.3705   -2.4344 C   0  0  0  0  0  0  0  0  0  0  0  0
    5.0845    0.6250   -3.1930 N   0  0  0  0  0  0  0  0  0  0  0  0
    5.1182    1.6097   -3.0196 H   0  0  0  0  0  0  0  0  0  0  0  0
    5.7274    0.1129   -4.2758 N   0  0  0  0  0  0  0  0  0  0  0  0
    5.5691   -1.2294   -4.2287 C   0  0  0  0  0  0  0  0  0  0  0  0
    4.7918   -1.5839   -3.0850 C   0  0  0  0  0  0  0  0  0  0  0  0
    4.4635   -2.9312   -2.6343 C   0  0  0  0  0  0  0  0  0  0  0  0
    5.2592   -3.8439   -2.5428 O   0  0  0  0  0  0  0  0  0  0  0  0
    3.1213   -3.1379   -2.3133 N   0  0  0  0  0  0  0  0  0  0  0  0
    2.7493   -4.3264   -1.5429 C   0  0  0  0  0  0  0  0  0  0  0  0
    2.8806   -4.0210   -0.0696 C   0  0  0  0  0  0  0  0  0  0  0  0
    1.7737   -3.5922    0.6626 C   0  0  0  0  0  0  0  0  0  0  0  0
    1.9275   -3.2103    1.9933 C   0  0  0  0  0  0  0  0  0  0  0  0
    3.1854   -3.2659    2.5943 C   0  0  0  0  0  0  0  0  0  0  0  0
    4.2851   -3.7337    1.8725 C   0  0  0  0  0  0  0  0  0  0  0  0
    4.1337   -4.1048    0.5403 C   0  0  0  0  0  0  0  0  0  0  0  0
    3.4204   -2.6648    4.2127 S   0  0  0  0  0  0  0  0  0  0  0  0
    4.6549   -3.1629    4.7583 O   0  0  0  0  0  0  0  0  0  0  0  0
    3.1558   -1.2240    4.1768 O   0  0  0  0  0  0  0  0  0  0  0  0
    2.1333   -3.3161    5.1680 N   0  0  0  0  0  0  0  0  0  0  0  0
    1.6605    0.0258    2.3432 O   0  0  0  0  0  0  0  0  0  0  0  0
    4.3214   -0.0028    2.1918 H   0  0  0  0  0  0  0  0  0  0  0  0
    6.2297   -0.1839    0.8405 H   0  0  0  0  0  0  0  0  0  0  0  0
    1.8363   -0.0325   -2.1522 H   0  0  0  0  0  0  0  0  0  0  0  0
    5.9896   -1.8890   -4.9687 H   0  0  0  0  0  0  0  0  0  0  0  0
    2.4848   -2.3578   -2.2647 H   0  0  0  0  0  0  0  0  0  0  0  0
    3.4080   -5.1836   -1.8376 H   0  0  0  0  0  0  0  0  0  0  0  0
    1.7113   -4.6235   -1.8159 H   0  0  0  0  0  0  0  0  0  0  0  0
    0.7922   -3.5351    0.1946 H   0  0  0  0  0  0  0  0  0  0  0  0
    1.0479   -2.8596    2.5425 H   0  0  0  0  0  0  0  0  0  0  0  0
    5.2761   -3.8102    2.3360 H   0  0  0  0  0  0  0  0  0  0  0  0
    4.9978   -4.4398   -0.0424 H   0  0  0  0  0  0  0  0  0  0  0  0
    1.4762   -2.6540    5.5528 H   0  0  0  0  0  0  0  0  0  0  0  0
    2.3827   -4.0034    5.8617 H   0  0  0  0  0  0  0  0  0  0  0  0
    2.2024   -0.2807    3.1613 H   0  0  0  0  0  0  0  0  0  0  0  0
  2  1  1  0  0  0  0
  2  3  2  0  0  0  0
  3  4  1  0  0  0  0
  3 29  1  0  0  0  0
  4 30  1  0  0  0  0
  5  4  2  0  0  0  0
  6  5  1  0  0  0  0
  6 31  1  0  0  0  0
  7  8  2  0  0  0  0
  7  5  1  0  0  0  0
  8  2  1  0  0  0  0
  9  7  1  0  0  0  0
 10 11  1  0  0  0  0
 10  9  1  0  0  0  0
 12 13  2  0  0  0  0
 12 10  1  0  0  0  0
 13 14  1  0  0  0  0
 14 15  1  0  0  0  0
 14  9  2  0  0  0  0
 15 16  2  0  0  0  0
 15 17  1  0  0  0  0
 17 34  1  0  0  0  0
 17 18  1  0  0  0  0
 18 19  1  0  0  0  0
 19 24  2  0  0  0  0
 19 20  1  0  0  0  0
 20 21  2  0  0  0  0
 21 38  1  0  0  0  0
 21 22  1  0  0  0  0
 22 25  1  0  0  0  0
 23 39  1  0  0  0  0
 23 22  2  0  0  0  0
 24 23  1  0  0  0  0
 25 26  2  0  0  0  0
 25 28  1  0  0  0  0
 27 25  2  0  0  0  0
 28 41  1  0  0  0  0
 28 42  1  0  0  0  0
 29 43  1  0  0  0  0
 32  8  1  0  0  0  0
 33 13  1  0  0  0  0
 35 18  1  0  0  0  0
 36 18  1  0  0  0  0
 37 20  1  0  0  0  0
 40 24  1  0  0  0  0
M  END
$$$$
