rmsd78.gzmat
 OpenBabel08211713433D

 43 45  0  0  0  0  0  0  0  0999 V2000
    0.0000    0.0000    0.0000 Cl  0  0  0  0  0  0  0  0  0  0  0  0
    1.7000    0.0000    0.0000 C   0  0  0  0  0  0  0  0  0  0  0  0
    2.3902    0.0000    1.2288 C   0  0  0  0  0  0  0  0  0  0  0  0
    3.7790   -0.0538    1.2535 C   0  0  0  0  0  0  0  0  0  0  0  0
    4.4704   -0.1177    0.0362 C   0  0  0  0  0  0  0  0  0  0  0  0
    5.8051   -0.1550    0.1337 O   0  0  0  0  0  0  0  0  0  0  0  0
    3.7884   -0.0969   -1.1983 C   0  0  0  0  0  0  0  0  0  0  0  0
    2.3862   -0.0399   -1.1951 C   0  0  0  0  0  0  0  0  0  0  0  0
    4.4871   -0.1556   -2.4590 C   0  0  0  0  0  0  0  0  0  0  0  0
    4.3900    0.8266   -3.4279 N   0  0  0  0  0  0  0  0  0  0  0  0
    3.9004    1.7000   -3.3916 H   0  0  0  0  0  0  0  0  0  0  0  0
    5.1029    0.5049   -4.5394 N   0  0  0  0  0  0  0  0  0  0  0  0
    5.6775   -0.6959   -4.3061 C   0  0  0  0  0  0  0  0  0  0  0  0
    5.3147   -1.1537   -3.0051 C   0  0  0  0  0  0  0  0  0  0  0  0
    5.7482   -2.3350   -2.2729 C   0  0  0  0  0  0  0  0  0  0  0  0
    6.5465   -2.2679   -1.3446 O   0  0  0  0  0  0  0  0  0  0  0  0
    5.1853   -3.5436   -2.6213 N   0  0  0  0  0  0  0  0  0  0  0  0
    5.3157   -4.6651   -1.6800 C   0  0  0  0  0  0  0  0  0  0  0  0
    4.4624   -4.3967   -0.4613 C   0  0  0  0  0  0  0  0  0  0  0  0
    5.0293   -3.7788    0.6536 C   0  0  0  0  0  0  0  0  0  0  0  0
    4.2331   -3.4488    1.7479 C   0  0  0  0  0  0  0  0  0  0  0  0
    2.8708   -3.7481    1.7336 C   0  0  0  0  0  0  0  0  0  0  0  0
    2.3077   -4.3819    0.6265 C   0  0  0  0  0  0  0  0  0  0  0  0
    3.1022   -4.7057   -0.4715 C   0  0  0  0  0  0  0  0  0  0  0  0
    1.8857   -3.2936    3.1087 S   0  0  0  0  0  0  0  0  0  0  0  0
    1.5863   -4.4312    3.9355 O   0  0  0  0  0  0  0  0  0  0  0  0
    2.4841   -2.0873    3.6815 O   0  0  0  0  0  0  0  0  0  0  0  0
    0.3946   -2.7674    2.4045 N   0  0  0  0  0  0  0  0  0  0  0  0
    1.6471    0.0371    2.3455 O   0  0  0  0  0  0  0  0  0  0  0  0
    4.3330   -0.0620    2.1917 H   0  0  0  0  0  0  0  0  0  0  0  0
    6.2356   -0.7840   -0.5334 H   0  0  0  0  0  0  0  0  0  0  0  0
    1.8460   -0.0467   -2.1460 H   0  0  0  0  0  0  0  0  0  0  0  0
    6.3117   -1.1803   -5.0281 H   0  0  0  0  0  0  0  0  0  0  0  0
    4.4379   -3.5870   -3.2960 H   0  0  0  0  0  0  0  0  0  0  0  0
    6.3937   -4.7790   -1.3965 H   0  0  0  0  0  0  0  0  0  0  0  0
    5.0239   -5.6089   -2.1918 H   0  0  0  0  0  0  0  0  0  0  0  0
    6.0934   -3.5259    0.6568 H   0  0  0  0  0  0  0  0  0  0  0  0
    4.6944   -2.9372    2.6019 H   0  0  0  0  0  0  0  0  0  0  0  0
    1.2396   -4.6202    0.5935 H   0  0  0  0  0  0  0  0  0  0  0  0
    2.6561   -5.1903   -1.3365 H   0  0  0  0  0  0  0  0  0  0  0  0
    0.3211   -1.7753    2.2124 H   0  0  0  0  0  0  0  0  0  0  0  0
   -0.4594   -3.1198    2.8026 H   0  0  0  0  0  0  0  0  0  0  0  0
    2.1157   -0.4391    3.1224 H   0  0  0  0  0  0  0  0  0  0  0  0
  1  2  1  0  0  0  0
  2  3  2  0  0  0  0
  3  4  1  0  0  0  0
  3 29  1  0  0  0  0
  4 30  1  0  0  0  0
  5  6  1  0  0  0  0
  5  4  2  0  0  0  0
  7  8  2  0  0  0  0
  7  5  1  0  0  0  0
  8  2  1  0  0  0  0
  9  7  1  0  0  0  0
 10 11  1  0  0  0  0
 10  9  1  0  0  0  0
 12 13  2  0  0  0  0
 12 10  1  0  0  0  0
 13 14  1  0  0  0  0
 14  9  2  0  0  0  0
 14 15  1  0  0  0  0
 15 16  2  0  0  0  0
 17 15  1  0  0  0  0
 17 18  1  0  0  0  0
 18 35  1  0  0  0  0
 18 19  1  0  0  0  0
 19 20  1  0  0  0  0
 20 37  1  0  0  0  0
 20 21  2  0  0  0  0
 21 38  1  0  0  0  0
 22 21  1  0  0  0  0
 22 25  1  0  0  0  0
 23 22  2  0  0  0  0
 24 19  2  0  0  0  0
 24 23  1  0  0  0  0
 25 27  2  0  0  0  0
 25 26  2  0  0  0  0
 28 42  1  0  0  0  0
 28 25  1  0  0  0  0
 29 43  1  0  0  0  0
 31  6  1  0  0  0  0
 32  8  1  0  0  0  0
 33 13  1  0  0  0  0
 34 17  1  0  0  0  0
 36 18  1  0  0  0  0
 39 23  1  0  0  0  0
 40 24  1  0  0  0  0
 41 28  1  0  0  0  0
M  END
$$$$
