rmsd68.gzmat
 OpenBabel08211713433D

 43 45  0  0  0  0  0  0  0  0999 V2000
    0.0000    0.0000    0.0000 Cl  0  0  0  0  0  0  0  0  0  0  0  0
    1.6888    0.0000    0.0000 C   0  0  0  0  0  0  0  0  0  0  0  0
    2.3965    0.0000    1.2130 C   0  0  0  0  0  0  0  0  0  0  0  0
    3.7920    0.0128    1.2267 C   0  0  0  0  0  0  0  0  0  0  0  0
    4.4504    0.0155   -0.0048 C   0  0  0  0  0  0  0  0  0  0  0  0
    5.7997    0.0518   -0.0925 O   0  0  0  0  0  0  0  0  0  0  0  0
    3.7670   -0.0146   -1.2324 C   0  0  0  0  0  0  0  0  0  0  0  0
    2.3648    0.0017   -1.2062 C   0  0  0  0  0  0  0  0  0  0  0  0
    4.4645   -0.0761   -2.4956 C   0  0  0  0  0  0  0  0  0  0  0  0
    5.6188    0.6376   -2.7654 N   0  0  0  0  0  0  0  0  0  0  0  0
    6.1758    1.1744   -2.1292 H   0  0  0  0  0  0  0  0  0  0  0  0
    6.0504    0.4298   -4.0355 N   0  0  0  0  0  0  0  0  0  0  0  0
    5.1637   -0.4078   -4.6186 C   0  0  0  0  0  0  0  0  0  0  0  0
    4.1489   -0.7699   -3.6794 C   0  0  0  0  0  0  0  0  0  0  0  0
    3.0457   -1.6815   -3.9605 C   0  0  0  0  0  0  0  0  0  0  0  0
    2.4367   -1.7138   -5.0123 O   0  0  0  0  0  0  0  0  0  0  0  0
    2.7370   -2.5730   -2.9423 N   0  0  0  0  0  0  0  0  0  0  0  0
    1.5810   -3.4597   -3.0701 C   0  0  0  0  0  0  0  0  0  0  0  0
    0.3318   -2.8195   -2.5143 C   0  0  0  0  0  0  0  0  0  0  0  0
   -0.2662   -1.7647   -3.2061 C   0  0  0  0  0  0  0  0  0  0  0  0
   -1.4413   -1.1941   -2.7254 C   0  0  0  0  0  0  0  0  0  0  0  0
   -2.0179   -1.6772   -1.5507 C   0  0  0  0  0  0  0  0  0  0  0  0
   -1.4155   -2.7223   -0.8524 C   0  0  0  0  0  0  0  0  0  0  0  0
   -0.2371   -3.2920   -1.3323 C   0  0  0  0  0  0  0  0  0  0  0  0
   -3.4996   -0.9642   -0.9445 S   0  0  0  0  0  0  0  0  0  0  0  0
   -4.3049   -0.5162   -2.0561 O   0  0  0  0  0  0  0  0  0  0  0  0
   -4.0313   -1.8140    0.0958 O   0  0  0  0  0  0  0  0  0  0  0  0
   -2.9647    0.4854   -0.1499 N   0  0  0  0  0  0  0  0  0  0  0  0
    1.6542   -0.0152    2.3367 O   0  0  0  0  0  0  0  0  0  0  0  0
    4.3439    0.0230    2.1579 H   0  0  0  0  0  0  0  0  0  0  0  0
    6.2465   -0.0117    0.7899 H   0  0  0  0  0  0  0  0  0  0  0  0
    1.8065    0.0085   -2.1529 H   0  0  0  0  0  0  0  0  0  0  0  0
    5.2502   -0.7261   -5.6446 H   0  0  0  0  0  0  0  0  0  0  0  0
    3.1767   -2.5091   -2.0402 H   0  0  0  0  0  0  0  0  0  0  0  0
    1.8107   -4.4235   -2.5605 H   0  0  0  0  0  0  0  0  0  0  0  0
    1.4265   -3.7115   -4.1538 H   0  0  0  0  0  0  0  0  0  0  0  0
    0.1849   -1.3980   -4.1324 H   0  0  0  0  0  0  0  0  0  0  0  0
   -1.9054   -0.3774   -3.2883 H   0  0  0  0  0  0  0  0  0  0  0  0
   -1.8579   -3.1099    0.0729 H   0  0  0  0  0  0  0  0  0  0  0  0
    0.2296   -4.1054   -0.7827 H   0  0  0  0  0  0  0  0  0  0  0  0
   -3.0145    0.5050    0.8544 H   0  0  0  0  0  0  0  0  0  0  0  0
   -3.2720    1.3597   -0.5409 H   0  0  0  0  0  0  0  0  0  0  0  0
    2.2094   -0.0032    3.1598 H   0  0  0  0  0  0  0  0  0  0  0  0
  1  2  1  0  0  0  0
  2  3  2  0  0  0  0
  3  4  1  0  0  0  0
  3 29  1  0  0  0  0
  4 30  1  0  0  0  0
  5  4  2  0  0  0  0
  6  5  1  0  0  0  0
  6 31  1  0  0  0  0
  7  8  2  0  0  0  0
  7  5  1  0  0  0  0
  8  2  1  0  0  0  0
  9  7  1  0  0  0  0
 10  9  1  0  0  0  0
 10 11  1  0  0  0  0
 12 10  1  0  0  0  0
 13 12  2  0  0  0  0
 13 14  1  0  0  0  0
 14  9  2  0  0  0  0
 15 14  1  0  0  0  0
 15 17  1  0  0  0  0
 16 15  2  0  0  0  0
 17 34  1  0  0  0  0
 18 17  1  0  0  0  0
 18 35  1  0  0  0  0
 18 19  1  0  0  0  0
 19 24  2  0  0  0  0
 20 21  2  0  0  0  0
 20 19  1  0  0  0  0
 21 22  1  0  0  0  0
 22 25  1  0  0  0  0
 22 23  2  0  0  0  0
 23 39  1  0  0  0  0
 24 23  1  0  0  0  0
 24 40  1  0  0  0  0
 25 28  1  0  0  0  0
 25 27  2  0  0  0  0
 26 25  2  0  0  0  0
 28 41  1  0  0  0  0
 29 43  1  0  0  0  0
 32  8  1  0  0  0  0
 33 13  1  0  0  0  0
 36 18  1  0  0  0  0
 37 20  1  0  0  0  0
 38 21  1  0  0  0  0
 42 28  1  0  0  0  0
M  END
$$$$
