43
rmsd114.gzmat
Cl         0.00000        0.00000        0.00000
C          1.69930        0.00000        0.00000
C          2.40890        0.00000        1.21630
C          3.80400       -0.14570        1.19430
C          4.44300       -0.21020       -0.03910
O          5.77990       -0.39200       -0.14720
C          3.75160       -0.09990       -1.26130
C          2.35540       -0.03720       -1.21600
C          4.45580        0.00070       -2.51670
N          5.46200       -0.87280       -2.89280
H          5.89050       -1.59380       -2.34490
N          5.97560       -0.55000       -4.10670
C          5.29610        0.53440       -4.54440
C          4.32320        0.91980       -3.57300
C          3.48830        2.11770       -3.60620
O          3.88300        3.23860       -3.35730
N          2.15840        1.91270       -3.95490
C          1.20080        3.01290       -3.82650
C          0.62240        3.05440       -2.43130
C          1.43730        3.42880       -1.36110
C          0.93770        3.40790       -0.06300
C         -0.38600        3.02990        0.16670
C         -1.21570        2.70330       -0.90590
C         -0.70970        2.70880       -2.20430
S         -0.97590        2.84810        1.79680
O         -2.38710        2.56390        1.77990
O         -0.04010        1.98240        2.50930
N         -0.78600        4.39050        2.56140
O          1.84350        0.07900        2.41690
H          4.34750       -0.19080        2.13290
H          6.23860       -0.36080        0.73220
H          1.78900       -0.01980       -2.15000
H          5.50620        1.00100       -5.49060
H          1.78930        0.99190       -4.11160
H          0.40880        2.89580       -4.60030
H          1.71910        3.98270       -4.05340
H          2.47550        3.72430       -1.54550
H          1.60190        3.68200        0.76160
H         -2.26410        2.42370       -0.74350
H         -1.35580        2.43280       -3.03470
H         -0.10920        4.44200        3.30710
H         -1.63090        4.87390        2.82140
H          1.01650        0.68640        2.45260
