rmsd237.gzmat
 OpenBabel08211713423D

 51 51  0  0  1  0  0  0  0  0999 V2000
    0.0000    0.0000    0.0000 C   0  0  1  0  0  0  0  0  0  0  0  0
    1.1211    0.0000    0.0000 H   0  0  0  0  0  0  0  0  0  0  0  0
   -0.3857    0.0000   -1.4197 N   0  0  0  0  0  0  0  0  0  0  0  0
   -1.7004    0.2822   -1.8838 C   0  0  0  0  0  0  0  0  0  0  0  0
   -1.9663    0.8266   -3.0298 N   0  0  0  0  0  0  0  0  0  0  0  0
   -2.7777   -0.0667   -1.0508 N   0  0  0  0  0  0  0  0  0  0  0  0
   -0.5363    1.2224    0.7966 C   0  0  2  0  0  0  0  0  0  0  0  0
   -1.0548    1.9185    0.0854 H   0  0  0  0  0  0  0  0  0  0  0  0
    0.5637    2.0427    1.5141 C   0  0  2  0  0  0  0  0  0  0  0  0
    0.0886    2.6361    2.3479 H   0  0  0  0  0  0  0  0  0  0  0  0
    1.2089    3.0440    0.5042 C   0  0  0  0  0  0  0  0  0  0  0  0
    0.1908    4.1564    0.1764 C   0  0  0  0  0  0  0  0  0  0  0  0
    0.4947    4.7984   -1.1761 C   0  0  0  0  0  0  0  0  0  0  0  0
    2.5041    3.6731    1.0576 C   0  0  0  0  0  0  0  0  0  0  0  0
    3.7586    3.0782    0.4171 C   0  0  0  0  0  0  0  0  0  0  0  0
    1.6078    1.1788    2.0889 N   0  0  0  0  0  0  0  0  0  0  0  0
    1.6057    0.7911    3.4077 C   0  0  0  0  0  0  0  0  0  0  0  0
    0.6726    1.0557    4.1508 O   0  0  0  0  0  0  0  0  0  0  0  0
    2.8080    0.0238    3.8758 C   0  0  0  0  0  0  0  0  0  0  0  0
   -1.6208    0.6647    1.7455 C   0  0  2  0  0  0  0  0  0  0  0  0
   -2.6374    0.8354    1.3074 H   0  0  0  0  0  0  0  0  0  0  0  0
   -1.7272    1.2860    2.9830 O   0  0  0  0  0  0  0  0  0  0  0  0
   -1.3047   -0.8439    1.9322 C   0  0  1  0  0  0  0  0  0  0  0  0
   -0.7031   -0.9769    2.8669 H   0  0  0  0  0  0  0  0  0  0  0  0
   -2.6098   -1.5820    2.0757 C   0  0  0  0  0  0  0  0  0  0  0  0
   -3.0648   -2.3826    1.3030 O   0  0  0  0  0  0  0  0  0  0  0  0
   -3.3109   -1.2766    3.1966 O   0  0  0  0  0  0  0  0  0  0  0  0
   -0.4881   -1.2838    0.7197 C   0  0  0  0  0  0  0  0  0  0  0  0
    0.3446    0.3641   -2.0259 H   0  0  0  0  0  0  0  0  0  0  0  0
   -1.2557    1.2052   -3.6197 H   0  0  0  0  0  0  0  0  0  0  0  0
   -2.6915   -0.9203   -0.5172 H   0  0  0  0  0  0  0  0  0  0  0  0
   -3.6855    0.0221   -1.4959 H   0  0  0  0  0  0  0  0  0  0  0  0
    1.4453    2.4898   -0.4335 H   0  0  0  0  0  0  0  0  0  0  0  0
    0.1919    4.9217    0.9764 H   0  0  0  0  0  0  0  0  0  0  0  0
   -0.8451    3.7600    0.1652 H   0  0  0  0  0  0  0  0  0  0  0  0
    0.3543    4.0901   -1.9998 H   0  0  0  0  0  0  0  0  0  0  0  0
    1.5254    5.1667   -1.2290 H   0  0  0  0  0  0  0  0  0  0  0  0
   -0.1676    5.6521   -1.3661 H   0  0  0  0  0  0  0  0  0  0  0  0
    2.5483    3.5747    2.1583 H   0  0  0  0  0  0  0  0  0  0  0  0
    2.4995    4.7679    0.8771 H   0  0  0  0  0  0  0  0  0  0  0  0
    3.8477    2.0017    0.5794 H   0  0  0  0  0  0  0  0  0  0  0  0
    4.6644    3.5436    0.8254 H   0  0  0  0  0  0  0  0  0  0  0  0
    3.7709    3.2509   -0.6663 H   0  0  0  0  0  0  0  0  0  0  0  0
    2.3985    0.9763    1.4944 H   0  0  0  0  0  0  0  0  0  0  0  0
    2.6426   -0.3484    4.9030 H   0  0  0  0  0  0  0  0  0  0  0  0
    3.7056    0.6573    3.9103 H   0  0  0  0  0  0  0  0  0  0  0  0
    3.0276   -0.8480    3.2465 H   0  0  0  0  0  0  0  0  0  0  0  0
   -0.8692    1.2685    3.4925 H   0  0  0  0  0  0  0  0  0  0  0  0
   -2.9809   -0.4503    3.6478 H   0  0  0  0  0  0  0  0  0  0  0  0
    0.3717   -1.9071    1.0199 H   0  0  0  0  0  0  0  0  0  0  0  0
   -1.0653   -1.9357    0.0323 H   0  0  0  0  0  0  0  0  0  0  0  0
  1  2  1  1  0  0  0
  1 28  1  0  0  0  0
  1  7  1  0  0  0  0
  3  1  1  0  0  0  0
  4  3  1  0  0  0  0
  4  6  2  0  0  0  0
  5  4  1  0  0  0  0
  6 31  1  0  0  0  0
  7  9  1  0  0  0  0
  7 20  1  0  0  0  0
  7  8  1  6  0  0  0
  9 16  1  0  0  0  0
  9 10  1  1  0  0  0
 11 14  1  0  0  0  0
 11  9  1  0  0  0  0
 12 11  1  0  0  0  0
 12 34  1  0  0  0  0
 13 12  1  0  0  0  0
 14 39  1  0  0  0  0
 15 41  1  0  0  0  0
 15 42  1  0  0  0  0
 15 14  1  0  0  0  0
 16 17  1  0  0  0  0
 17 19  1  0  0  0  0
 17 18  2  0  0  0  0
 19 46  1  0  0  0  0
 19 45  1  0  0  0  0
 20 23  1  0  0  0  0
 20 22  1  0  0  0  0
 20 21  1  6  0  0  0
 22 48  1  0  0  0  0
 23 25  1  0  0  0  0
 23 24  1  1  0  0  0
 25 27  1  0  0  0  0
 26 25  2  0  0  0  0
 27 49  1  0  0  0  0
 28 50  1  0  0  0  0
 28 23  1  0  0  0  0
 29  3  1  0  0  0  0
 30  5  1  0  0  0  0
 32  6  1  0  0  0  0
 33 11  1  0  0  0  0
 35 12  1  0  0  0  0
 36 13  1  0  0  0  0
 37 13  1  0  0  0  0
 38 13  1  0  0  0  0
 40 14  1  0  0  0  0
 43 15  1  0  0  0  0
 44 16  1  0  0  0  0
 47 19  1  0  0  0  0
 51 28  1  0  0  0  0
M  RAD  1   5   2
M  END
$$$$
