51
rmsd236.gzmat
C          0.00000        0.00000        0.00000
H          1.12110        0.00000        0.00000
N         -0.38360        0.00000       -1.41980
C         -1.69580        0.27810       -1.89010
N         -1.95750        0.80060       -3.04740
N         -2.77600       -0.05080       -1.05100
C         -0.53690        1.22200        0.79750
H         -1.06090        1.91490        0.08780
C          0.56390        2.04630        1.50980
H          0.09430        2.62540        2.35740
C          1.18020        3.06870        0.50280
C          0.15610        4.19610        0.25320
C          0.42620        4.90840       -1.07080
C          2.50250        3.67200        1.01810
C          3.72680        3.04880        0.34630
N          1.62120        1.18480        2.06270
C          1.63610        0.78680        3.37810
O          0.71070        1.04520        4.13370
C          2.84480        0.02180        3.83180
C         -1.61350        0.66250        1.75480
H         -2.63430        0.83920        1.32900
O         -1.70390        1.27750        2.99700
C         -1.30170       -0.84800        1.93260
H         -0.69990       -0.98750        2.86640
C         -2.60820       -1.58420        2.07330
O         -3.06330       -2.38360        1.29940
O         -3.31080       -1.27880        3.19330
C         -0.48720       -1.28490        0.71800
H          0.35000        0.35520       -2.02680
H         -1.24400        1.16380       -3.64360
H         -2.69500       -0.90050       -0.50970
H         -3.68240        0.03450       -1.50040
H          1.37230        2.54190       -0.46010
H          0.17610        4.91940        1.09110
H         -0.87910        3.79750        0.24500
H          0.25070        4.24770       -1.92750
H          1.45920        5.26790       -1.13890
H         -0.23140        5.77850       -1.19140
H          2.57290        3.57720        2.11790
H          2.51600        4.76620        0.83220
H          3.78560        1.96700        0.48730
H          4.65390        3.47790        0.74730
H          3.72580        3.23990       -0.73430
H          2.40680        0.99500        1.45720
H          3.61910        0.70970        4.20720
H          3.29500       -0.60370        3.05330
H          2.58000       -0.63830        4.67650
H         -0.83980        1.25460        3.49660
H         -2.97630       -0.45670        3.64900
H          0.37340       -1.90830        1.01590
H         -1.06510       -1.93620        0.03090
