51

C          0.00880        0.08270       -0.13440
H          1.08950        0.18790       -0.31210
N         -0.65770        0.05430       -1.43880
C         -0.31940       -1.00710       -2.30640
N          0.86410       -1.27480       -2.71660
N         -1.41350       -1.74640       -2.71630
C         -0.55420        1.25490        0.69500
H         -0.81440        2.07660        0.01970
C          0.39470        1.84720        1.75380
H         -0.22320        2.48890        2.40010
C          1.54450        2.70830        1.16710
C          1.09060        3.66500        0.04820
C          0.04730        4.70420        0.46270
C          2.28490        3.43960        2.30540
C          3.52120        4.22350        1.86840
N          0.98890        0.84280        2.63820
C          0.46330        0.43490        3.81540
O         -0.63360        0.81850        4.22640
C          1.27990       -0.56650        4.60210
C         -1.87820        0.66540        1.24630
H         -2.61350        0.77350        0.43150
O         -2.48710        1.27370        2.34850
C         -1.60320       -0.86390        1.45290
H         -1.49980       -1.03860        2.53440
C         -2.84680       -1.59370        0.98510
O         -2.89710       -2.37140        0.06250
O         -3.95630       -1.23870        1.65460
C         -0.30890       -1.18730        0.69700
H         -1.66600        0.15470       -1.36380
H          1.51140       -0.53460       -2.43630
H         -2.06280       -2.01620       -1.97610
H         -1.15770       -2.51540       -3.32810
H          2.26550        2.00820        0.69980
H          0.71560        3.07760       -0.80410
H          1.98300        4.18250       -0.33710
H          0.41810        5.35880        1.26680
H         -0.88480        4.23930        0.82200
H         -0.21720        5.34950       -0.38910
H          2.58300        2.70000        3.06500
H          1.57720        4.11330        2.81820
H          4.22250        3.58460        1.30560
H          4.06130        4.62090        2.74160
H          3.26610        5.07960        1.22540
H          1.88710        0.46210        2.36490
H          1.26620       -0.27500        5.66130
H          2.31920       -0.65570        4.25560
H          0.79390       -1.55240        4.52780
H         -1.87480        1.20100        3.12170
H         -3.75690       -0.48880        2.24980
H          0.49930       -1.39880        1.40880
H         -0.41560       -2.06990        0.05340
