
     RDKit          3D

 51 51  0  0  0  0  0  0  0  0999 V2000
    0.0209   -0.0409    0.0535 C   0  0  1  0  0  0  0  0  0  0  0  0
    1.1110   -0.0117    0.1267 H   0  0  0  0  0  0  0  0  0  0  0  0
   -0.3259    0.0152   -1.3606 N   0  0  0  0  0  0  0  0  0  0  0  0
    0.2768    0.8342   -2.2929 C   0  0  0  0  0  0  0  0  0  0  0  0
   -0.2607    1.3366   -3.3426 N   0  0  0  0  0  0  0  0  0  0  0  0
    1.6353    1.1288   -2.0380 N   0  0  0  0  0  0  0  0  0  0  0  0
   -0.6194    1.1124    0.9000 C   0  0  2  0  0  0  0  0  0  0  0  0
   -1.4740    1.4634    0.3061 H   0  0  0  0  0  0  0  0  0  0  0  0
    0.2647    2.3465    1.2489 C   0  0  2  0  0  0  0  0  0  0  0  0
    0.3247    2.3796    2.3425 H   0  0  0  0  0  0  0  0  0  0  0  0
   -0.3377    3.6895    0.7860 C   0  0  0  0  0  0  0  0  0  0  0  0
    0.4251    4.8841    1.3850 C   0  0  0  0  0  0  0  0  0  0  0  0
    0.5492    4.8794    2.9088 C   0  0  0  0  0  0  0  0  0  0  0  0
   -0.4573    3.7923   -0.7429 C   0  0  0  0  0  0  0  0  0  0  0  0
   -1.2778    4.9788   -1.2475 C   0  0  0  0  0  0  0  0  0  0  0  0
    1.6431    2.2171    0.8005 N   0  0  0  0  0  0  0  0  0  0  0  0
    2.5165    1.4408    1.4821 C   0  0  0  0  0  0  0  0  0  0  0  0
    2.2289    0.8822    2.5439 O   0  0  0  0  0  0  0  0  0  0  0  0
    3.8960    1.2960    0.8757 C   0  0  0  0  0  0  0  0  0  0  0  0
   -1.2226    0.4323    2.1517 C   0  0  2  0  0  0  0  0  0  0  0  0
   -2.0959    1.0066    2.5159 H   0  0  0  0  0  0  0  0  0  0  0  0
   -0.3471    0.2566    3.2252 O   0  0  0  0  0  0  0  0  0  0  0  0
   -1.6720   -0.9538    1.5901 C   0  0  1  0  0  0  0  0  0  0  0  0
   -1.8252   -1.6422    2.4362 H   0  0  0  0  0  0  0  0  0  0  0  0
   -2.9623   -0.8107    0.8053 C   0  0  0  0  0  0  0  0  0  0  0  0
   -3.0282   -0.6699   -0.3929 O   0  0  0  0  0  0  0  0  0  0  0  0
   -4.0900   -0.7816    1.5419 O   0  0  0  0  0  0  0  0  0  0  0  0
   -0.4844   -1.3507    0.7115 C   0  0  0  0  0  0  0  0  0  0  0  0
   -1.3169   -0.1597   -1.5191 H   0  0  0  0  0  0  0  0  0  0  0  0
   -1.2655    1.1482   -3.3678 H   0  0  0  0  0  0  0  0  0  0  0  0
    2.1793    0.3026   -1.7920 H   0  0  0  0  0  0  0  0  0  0  0  0
    2.0250    1.5731   -2.8670 H   0  0  0  0  0  0  0  0  0  0  0  0
   -1.3630    3.7048    1.2026 H   0  0  0  0  0  0  0  0  0  0  0  0
   -0.0830    5.8099    1.0723 H   0  0  0  0  0  0  0  0  0  0  0  0
    1.4318    4.9214    0.9331 H   0  0  0  0  0  0  0  0  0  0  0  0
    1.1947    4.0657    3.2738 H   0  0  0  0  0  0  0  0  0  0  0  0
   -0.4362    4.7625    3.3906 H   0  0  0  0  0  0  0  0  0  0  0  0
    0.9834    5.8250    3.2694 H   0  0  0  0  0  0  0  0  0  0  0  0
   -0.9118    2.8729   -1.1376 H   0  0  0  0  0  0  0  0  0  0  0  0
    0.5500    3.8337   -1.1925 H   0  0  0  0  0  0  0  0  0  0  0  0
   -2.2883    4.9795   -0.8054 H   0  0  0  0  0  0  0  0  0  0  0  0
   -1.3913    4.9290   -2.3414 H   0  0  0  0  0  0  0  0  0  0  0  0
   -0.8100    5.9462   -1.0080 H   0  0  0  0  0  0  0  0  0  0  0  0
    1.8187    2.3371   -0.1983 H   0  0  0  0  0  0  0  0  0  0  0  0
    4.1617    0.2292    0.8446 H   0  0  0  0  0  0  0  0  0  0  0  0
    4.6240    1.7907    1.5370 H   0  0  0  0  0  0  0  0  0  0  0  0
    3.9728    1.7328   -0.1294 H   0  0  0  0  0  0  0  0  0  0  0  0
    0.5876    0.4467    2.9780 H   0  0  0  0  0  0  0  0  0  0  0  0
   -3.8798   -0.9141    2.4779 H   0  0  0  0  0  0  0  0  0  0  0  0
    0.3004   -1.7521    1.3665 H   0  0  0  0  0  0  0  0  0  0  0  0
   -0.7301   -2.1105   -0.0413 H   0  0  0  0  0  0  0  0  0  0  0  0
  1  2  1  6
  1  3  1  0
  1  7  1  0
  1 28  1  0
  3  4  1  0
  3 29  1  0
  4  5  2  0
  4  6  1  0
  5 30  1  0
  6 31  1  0
  6 32  1  0
  7  8  1  6
  7  9  1  0
  7 20  1  0
  9 10  1  1
  9 11  1  0
  9 16  1  0
 11 12  1  0
 11 14  1  0
 11 33  1  0
 12 13  1  0
 12 34  1  0
 12 35  1  0
 13 36  1  0
 13 37  1  0
 13 38  1  0
 14 15  1  0
 14 39  1  0
 14 40  1  0
 15 41  1  0
 15 42  1  0
 15 43  1  0
 16 17  1  0
 16 44  1  0
 17 18  2  0
 17 19  1  0
 19 45  1  0
 19 46  1  0
 19 47  1  0
 20 21  1  1
 20 22  1  0
 20 23  1  0
 22 48  1  0
 23 24  1  1
 23 25  1  0
 23 28  1  0
 25 26  2  0
 25 27  1  0
 27 49  1  0
 28 50  1  0
 28 51  1  0
M  END

