rmsd192.gzmat
 OpenBabel08211713423D

 51 51  0  0  1  0  0  0  0  0999 V2000
    0.0000    0.0000    0.0000 C   0  0  1  0  0  0  0  0  0  0  0  0
    1.1192    0.0000    0.0000 H   0  0  0  0  0  0  0  0  0  0  0  0
   -0.5201    0.0000   -1.3808 N   0  0  0  0  0  0  0  0  0  0  0  0
    0.1961    0.7439   -2.3491 C   0  0  0  0  0  0  0  0  0  0  0  0
    1.0504    1.6959   -2.1508 N   0  0  0  0  0  0  0  0  0  0  0  0
   -0.1274    0.3775   -3.6796 N   0  0  0  0  0  0  0  0  0  0  0  0
   -0.5693    1.2628    0.7373 C   0  0  2  0  0  0  0  0  0  0  0  0
   -0.7471    2.0844    0.0094 H   0  0  0  0  0  0  0  0  0  0  0  0
    0.4403    1.7383    1.8112 C   0  0  2  0  0  0  0  0  0  0  0  0
    0.6982    0.8540    2.4648 H   0  0  0  0  0  0  0  0  0  0  0  0
   -0.0906    2.8681    2.7336 C   0  0  0  0  0  0  0  0  0  0  0  0
    0.9828    3.2844    3.7603 C   0  0  0  0  0  0  0  0  0  0  0  0
    1.2871    2.1703    4.7601 C   0  0  0  0  0  0  0  0  0  0  0  0
   -0.5678    4.1013    1.9460 C   0  0  0  0  0  0  0  0  0  0  0  0
   -1.6379    4.8760    2.7149 C   0  0  0  0  0  0  0  0  0  0  0  0
    1.6625    2.1915    1.1213 N   0  0  0  0  0  0  0  0  0  0  0  0
    2.8394    1.4641    1.2347 C   0  0  0  0  0  0  0  0  0  0  0  0
    2.8311    0.3664    1.7534 O   0  0  0  0  0  0  0  0  0  0  0  0
    4.0552    2.0940    0.6228 C   0  0  0  0  0  0  0  0  0  0  0  0
   -1.9107    0.7116    1.2547 C   0  0  2  0  0  0  0  0  0  0  0  0
   -2.6653    0.7293    0.4305 H   0  0  0  0  0  0  0  0  0  0  0  0
   -2.4964    1.3538    2.3629 O   0  0  0  0  0  0  0  0  0  0  0  0
   -1.6095   -0.7231    1.7368 C   0  0  1  0  0  0  0  0  0  0  0  0
   -1.2258   -0.6885    2.7898 H   0  0  0  0  0  0  0  0  0  0  0  0
   -2.8712   -1.5505    1.7217 C   0  0  0  0  0  0  0  0  0  0  0  0
   -3.0166   -2.6279    1.2152 O   0  0  0  0  0  0  0  0  0  0  0  0
   -3.9219   -0.9819    2.3655 O   0  0  0  0  0  0  0  0  0  0  0  0
   -0.5213   -1.2316    0.7862 C   0  0  0  0  0  0  0  0  0  0  0  0
   -0.9292   -0.8800   -1.6816 H   0  0  0  0  0  0  0  0  0  0  0  0
    1.3849    1.8919   -1.2274 H   0  0  0  0  0  0  0  0  0  0  0  0
   -1.1042    0.2409   -3.8756 H   0  0  0  0  0  0  0  0  0  0  0  0
    0.3275    0.9460   -4.3831 H   0  0  0  0  0  0  0  0  0  0  0  0
   -0.9482    2.4436    3.3151 H   0  0  0  0  0  0  0  0  0  0  0  0
    0.6336    4.1837    4.3053 H   0  0  0  0  0  0  0  0  0  0  0  0
    1.9132    3.5921    3.2492 H   0  0  0  0  0  0  0  0  0  0  0  0
    1.7051    1.2831    4.2649 H   0  0  0  0  0  0  0  0  0  0  0  0
    0.3896    1.8563    5.3040 H   0  0  0  0  0  0  0  0  0  0  0  0
    2.0271    2.4983    5.4988 H   0  0  0  0  0  0  0  0  0  0  0  0
   -0.9704    3.8063    0.9584 H   0  0  0  0  0  0  0  0  0  0  0  0
    0.2871    4.7684    1.7222 H   0  0  0  0  0  0  0  0  0  0  0  0
   -2.5631    4.3030    2.8314 H   0  0  0  0  0  0  0  0  0  0  0  0
   -1.8946    5.8092    2.1992 H   0  0  0  0  0  0  0  0  0  0  0  0
   -1.2975    5.1429    3.7226 H   0  0  0  0  0  0  0  0  0  0  0  0
    1.6629    3.1372    0.7756 H   0  0  0  0  0  0  0  0  0  0  0  0
    4.9176    1.4113    0.7074 H   0  0  0  0  0  0  0  0  0  0  0  0
    4.3349    3.0304    1.1203 H   0  0  0  0  0  0  0  0  0  0  0  0
    3.9148    2.3085   -0.4474 H   0  0  0  0  0  0  0  0  0  0  0  0
   -2.6507    2.3075    2.1856 H   0  0  0  0  0  0  0  0  0  0  0  0
   -3.7420   -0.0672    2.7048 H   0  0  0  0  0  0  0  0  0  0  0  0
    0.3101   -1.7024    1.3460 H   0  0  0  0  0  0  0  0  0  0  0  0
   -0.9061   -2.0278    0.1204 H   0  0  0  0  0  0  0  0  0  0  0  0
  1  7  1  0  0  0  0
  1 28  1  0  0  0  0
  1  2  1  6  0  0  0
  3  1  1  0  0  0  0
  4  5  1  0  0  0  0
  4  3  1  0  0  0  0
  5 30  1  0  0  0  0
  6  4  2  0  0  0  0
  7 20  1  0  0  0  0
  7  9  1  0  0  0  0
  7  8  1  6  0  0  0
  9 10  1  1  0  0  0
  9 11  1  0  0  0  0
 11 33  1  0  0  0  0
 11 12  1  0  0  0  0
 12 34  1  0  0  0  0
 12 13  1  0  0  0  0
 13 37  1  0  0  0  0
 13 38  1  0  0  0  0
 14 15  1  0  0  0  0
 14 11  1  0  0  0  0
 15 41  1  0  0  0  0
 15 43  1  0  0  0  0
 16 17  1  0  0  0  0
 16  9  1  0  0  0  0
 17 18  2  0  0  0  0
 19 45  1  0  0  0  0
 19 46  1  0  0  0  0
 19 17  1  0  0  0  0
 20 23  1  0  0  0  0
 20 22  1  0  0  0  0
 20 21  1  6  0  0  0
 23 24  1  1  0  0  0
 25 23  1  0  0  0  0
 25 27  1  0  0  0  0
 26 25  2  0  0  0  0
 27 49  1  0  0  0  0
 28 50  1  0  0  0  0
 28 23  1  0  0  0  0
 29  3  1  0  0  0  0
 31  6  1  0  0  0  0
 32  6  1  0  0  0  0
 35 12  1  0  0  0  0
 36 13  1  0  0  0  0
 39 14  1  0  0  0  0
 40 14  1  0  0  0  0
 42 15  1  0  0  0  0
 44 16  1  0  0  0  0
 47 19  1  0  0  0  0
 48 22  1  0  0  0  0
 51 28  1  0  0  0  0
M  RAD  1   5   2
M  END
$$$$
