51
rmsd90.gzmat
C          0.00000        0.00000        0.00000
H          1.11400        0.00000        0.00000
N         -0.45350        0.00000       -1.40740
C          0.08750       -1.08010       -2.19890
N          1.32160       -1.19650       -2.55830
N         -0.87250       -1.97750       -2.67630
C         -0.57740        1.26130        0.69020
H         -0.77740        2.04350       -0.08870
C          0.36550        1.89670        1.73760
H         -0.25770        2.49330        2.46650
C          1.38740        2.86550        1.06800
C          0.67410        3.99590        0.29850
C         -0.33520        4.77360        1.13920
C          2.34130        3.46920        2.12200
C          3.73510        2.84340        2.07340
N          1.11600        0.87470        2.48830
C          0.72070        0.44330        3.73050
O         -0.34110        0.80440        4.21890
C          1.64400       -0.49320        4.45220
C         -1.94530        0.81060        1.26740
H         -2.77440        1.15230        0.60100
O         -2.29960        1.37600        2.48080
C         -1.89610       -0.74500        1.38730
H         -1.96230       -1.02980        2.46730
C         -3.07300       -1.31590        0.64080
O         -3.04560       -1.91460       -0.40210
O         -4.27940       -1.10170        1.22610
C         -0.55980       -1.20250        0.80450
H         -1.47160        0.08140       -1.47890
H          1.98730       -0.48220       -2.33370
H         -1.67400       -2.16710       -2.09730
H         -0.55130       -2.73800       -3.24810
H          1.98490        2.28400        0.32430
H          0.17360        3.58330       -0.60180
H          1.44060        4.69000       -0.10260
H          0.10900        5.14710        2.06850
H         -1.20140        4.15750        1.41440
H         -0.72140        5.64070        0.59020
H          1.91470        3.36620        3.13780
H          2.43410        4.56300        1.96750
H          3.72440        1.78080        2.32800
H          4.40840        3.33610        2.78650
H          4.18800        2.94740        1.08020
H          1.99090        0.57710        2.08400
H          1.84020       -0.11150        5.46960
H          2.61170       -0.64950        3.96460
H          1.16440       -1.47740        4.58240
H         -1.61680        1.20930        3.19340
H         -4.23410       -0.49300        2.00960
H          0.14430       -1.48280        1.60700
H         -0.65850       -2.10650        0.17690
