51
rmsd223.gzmat
C          0.00000        0.00000        0.00000
H          1.11460        0.00000        0.00000
N         -0.45480        0.00000       -1.40290
C         -0.35730        1.13700       -2.23740
N         -1.08340        1.35730       -3.28590
N          0.63680        2.08790       -1.90490
C         -0.56960        1.17410        0.84180
H         -0.70430        2.07270        0.18570
C          0.30980        1.62470        2.03200
H         -0.38400        2.13200        2.77550
C          1.35520        2.70180        1.60730
C          1.73260        3.56060        2.83120
C          0.64080        4.57230        3.17640
C          2.62770        2.11500        0.96850
C          3.34500        3.15440        0.10530
N          0.97230        0.50900        2.72170
C          0.46080       -0.03860        3.87390
O         -0.61760        0.31960        4.32500
C          1.29200       -1.09680        4.53900
C         -1.97490        0.67830        1.27370
H         -2.75150        1.09040        0.58360
O         -2.42120        1.11850        2.50870
C         -1.92970       -0.88240        1.24070
H         -2.04160       -1.27960        2.27870
C         -3.07830       -1.35170        0.38590
O         -3.00860       -1.80320       -0.72590
O         -4.30550       -1.20590        0.94950
C         -0.56960       -1.28070        0.66360
H         -1.30210       -0.56350       -1.54090
H         -1.87430        0.78310       -3.50730
H          1.50330        1.71800       -1.55550
H          0.77350        2.79740       -2.61550
H          0.85780        3.36370        0.85180
H          2.67920        4.09990        2.63190
H          1.94060        2.91200        3.70260
H         -0.31280        4.08440        3.41440
H          0.45630        5.26610        2.34770
H          0.92070        5.17020        4.05170
H          2.37700        1.23390        0.34690
H          3.31940        1.75080        1.75200
H          2.68480        3.57060       -0.66500
H          4.21810        2.72250       -0.39610
H          3.70270        3.99890        0.70720
H          1.85020        0.19370        2.34310
H          0.94060       -1.25320        5.57510
H          2.35630       -0.83860        4.59470
H          1.19730       -2.06440        4.02560
H         -1.80430        0.86580        3.25170
H         -4.29570       -0.66610        1.78230
H          0.11080       -1.63650        1.45450
H         -0.64410       -2.11970       -0.05720
