51
rmsd55.gzmat
C          0.00000        0.00000        0.00000
H          1.11320        0.00000        0.00000
N         -0.52040        0.00000       -1.38000
C          0.41330        0.01640       -2.44590
N          1.53420        0.66540       -2.49490
N          0.02290       -0.73660       -3.57020
C         -0.57100        1.24760        0.72670
H         -0.79550        2.03610       -0.03900
C          0.39360        1.87030        1.76130
H         -0.21230        2.46100        2.50780
C          1.41040        2.83760        1.07870
C          0.69670        3.95440        0.29130
C         -0.31370        4.74250        1.12020
C          2.36610        3.45840        2.12160
C          3.76170        2.83600        2.07330
N          1.15920        0.83670        2.48340
C          0.77610        0.35290        3.71040
O         -0.27470        0.69690        4.23230
C          1.70070       -0.62640        4.37340
C         -1.93110        0.78100        1.30820
H         -2.76650        1.14790        0.66320
O         -2.26490        1.30480        2.54520
C         -1.89180       -0.78070        1.36700
H         -1.97830       -1.11200        2.43000
C         -3.05350       -1.30150        0.56050
O         -3.02890       -1.66870       -0.58450
O         -4.24440       -1.32990        1.21730
C         -0.54910       -1.22050        0.78060
H         -1.35370       -0.58600       -1.48380
H          1.88450        1.14500       -1.69100
H         -0.95950       -0.85360       -3.73220
H          0.55970       -0.57020       -4.40760
H          2.01250        2.25050        0.34370
H          0.19710        3.52830       -0.60330
H          1.46170        4.64400       -0.12130
H          0.13130        5.13330        2.04170
H         -1.17750        4.12880        1.40770
H         -0.70270        5.59790        0.55470
H          1.94450        3.36700        3.14030
H          2.45520        4.55060        1.95210
H          3.75840        1.78250        2.36320
H          4.44340        3.35350        2.76020
H          4.20180        2.91020        1.07150
H          2.03880        0.56720        2.06930
H          1.19190       -1.59520        4.51140
H          1.95730       -0.26890        5.38590
H          2.63740       -0.81050        3.83790
H         -1.56670        1.12740        3.23670
H         -4.24120       -0.81830        2.06420
H          0.15420       -1.50530        1.58250
H         -0.63940       -2.11390        0.13420
