51
rmsd224.gzmat
C          0.00000        0.00000        0.00000
H          1.11440        0.00000        0.00000
N         -0.45760        0.00000       -1.40180
C         -0.32860        1.12530       -2.24720
N         -1.04600        1.35350       -3.30020
N          0.68930        2.05380       -1.92210
C         -0.56920        1.17540        0.84060
H         -0.69520        2.07530        0.18470
C          0.30210        1.61980        2.03940
H         -0.39610        2.12810        2.77790
C          1.35390        2.69470        1.62620
C          1.73470        3.54400        2.85560
C          0.63500        4.53680        3.22890
C          2.62500        2.10450        0.98800
C          3.34060        3.13860        0.11730
N          0.95540        0.50030        2.73230
C          0.43160       -0.05150        3.87650
O         -0.65200        0.30560        4.31740
C          1.24800       -1.11280        4.55410
C         -1.97790        0.68220        1.26460
H         -2.74960        1.08580        0.56470
O         -2.43260        1.13330        2.49250
C         -1.92850       -0.87940        1.24660
H         -2.03040       -1.26620        2.28940
C         -3.08210       -1.35360        0.40170
O         -3.02530       -1.74430       -0.73390
O         -4.29860       -1.28580        1.00250
C         -0.57140       -1.28050        0.66340
H         -1.32160       -0.54000       -1.53240
H         -1.85230        0.79910       -3.51640
H          1.54810        1.66520       -1.57450
H          0.84190        2.75410       -2.63870
H          0.86160        3.36330        0.87340
H          2.67060        4.09910        2.64840
H          1.96340        2.88740        3.71570
H         -0.30130        4.03270        3.49980
H          0.41190        5.22130        2.40230
H          0.93020        5.14640        4.09100
H          2.37200        1.22020        0.37230
H          3.31790        1.74540        1.77280
H          2.67030        3.57080       -0.63590
H          4.19580        2.69670       -0.40570
H          3.72300        3.97270        0.71870
H          1.83630        0.18490        2.36030
H          0.82500       -2.11080        4.35610
H          1.20320       -0.97270        5.64920
H          2.30450       -1.12620        4.26720
H         -1.82500        0.87290        3.24180
H         -4.29140       -0.77420        1.85250
H          0.11090       -1.64100        1.45090
H         -0.64930       -2.11720       -0.05950
