51
rmsd192.gzmat
C          0.00000        0.00000        0.00000
H          1.11920        0.00000        0.00000
N         -0.52010        0.00000       -1.38080
C          0.19610        0.74390       -2.34910
N          1.05040        1.69590       -2.15080
N         -0.12740        0.37750       -3.67960
C         -0.56930        1.26280        0.73730
H         -0.74710        2.08440        0.00940
C          0.44030        1.73830        1.81120
H          0.69820        0.85400        2.46480
C         -0.09060        2.86810        2.73360
C          0.98280        3.28440        3.76030
C          1.28710        2.17030        4.76010
C         -0.56780        4.10130        1.94600
C         -1.63790        4.87600        2.71490
N          1.66250        2.19150        1.12130
C          2.83940        1.46410        1.23470
O          2.83110        0.36640        1.75340
C          4.05520        2.09400        0.62280
C         -1.91070        0.71160        1.25470
H         -2.66530        0.72930        0.43050
O         -2.49640        1.35380        2.36290
C         -1.60950       -0.72310        1.73680
H         -1.22580       -0.68850        2.78980
C         -2.87120       -1.55050        1.72170
O         -3.01660       -2.62790        1.21520
O         -3.92190       -0.98190        2.36550
C         -0.52130       -1.23160        0.78620
H         -0.92920       -0.88000       -1.68160
H          1.38490        1.89190       -1.22740
H         -1.10420        0.24090       -3.87560
H          0.32750        0.94600       -4.38310
H         -0.94820        2.44360        3.31510
H          0.63360        4.18370        4.30530
H          1.91320        3.59210        3.24920
H          1.70510        1.28310        4.26490
H          0.38960        1.85630        5.30400
H          2.02710        2.49830        5.49880
H         -0.97040        3.80630        0.95840
H          0.28710        4.76840        1.72220
H         -2.56310        4.30300        2.83140
H         -1.89460        5.80920        2.19920
H         -1.29750        5.14290        3.72260
H          1.66290        3.13720        0.77560
H          4.91760        1.41130        0.70740
H          4.33490        3.03040        1.12030
H          3.91480        2.30850       -0.44740
H         -2.65070        2.30750        2.18560
H         -3.74200       -0.06720        2.70480
H          0.31010       -1.70240        1.34600
H         -0.90610       -2.02780        0.12040
