51

C          0.02090       -0.04090        0.05350
H          1.11100       -0.01170        0.12670
N         -0.32590        0.01520       -1.36060
C          0.27680        0.83420       -2.29290
N         -0.26070        1.33660       -3.34260
N          1.63530        1.12880       -2.03800
C         -0.61940        1.11240        0.90000
H         -1.47400        1.46340        0.30610
C          0.26470        2.34650        1.24890
H          0.32470        2.37960        2.34250
C         -0.33770        3.68950        0.78600
C          0.42510        4.88410        1.38500
C          0.54920        4.87940        2.90880
C         -0.45730        3.79230       -0.74290
C         -1.27780        4.97880       -1.24750
N          1.64310        2.21710        0.80050
C          2.51650        1.44080        1.48210
O          2.22890        0.88220        2.54390
C          3.89600        1.29600        0.87570
C         -1.22260        0.43230        2.15170
H         -2.09590        1.00660        2.51590
O         -0.34710        0.25660        3.22520
C         -1.67200       -0.95380        1.59010
H         -1.82520       -1.64220        2.43620
C         -2.96230       -0.81070        0.80530
O         -3.02820       -0.66990       -0.39290
O         -4.09000       -0.78160        1.54190
C         -0.48440       -1.35070        0.71150
H         -1.31690       -0.15970       -1.51910
H         -1.26550        1.14820       -3.36780
H          2.17930        0.30260       -1.79200
H          2.02500        1.57310       -2.86700
H         -1.36300        3.70480        1.20260
H         -0.08300        5.80990        1.07230
H          1.43180        4.92140        0.93310
H          1.19470        4.06570        3.27380
H         -0.43620        4.76250        3.39060
H          0.98340        5.82500        3.26940
H         -0.91180        2.87290       -1.13760
H          0.55000        3.83370       -1.19250
H         -2.28830        4.97950       -0.80540
H         -1.39130        4.92900       -2.34140
H         -0.81000        5.94620       -1.00800
H          1.81870        2.33710       -0.19830
H          4.16170        0.22920        0.84460
H          4.62400        1.79070        1.53700
H          3.97280        1.73280       -0.12940
H          0.58760        0.44670        2.97800
H         -3.87980       -0.91410        2.47790
H          0.30040       -1.75210        1.36650
H         -0.73010       -2.11050       -0.04130
