
     RDKit          3D

 51 51  0  0  0  0  0  0  0  0999 V2000
    0.0789    0.0015   -0.1415 C   0  0  1  0  0  0  0  0  0  0  0  0
    1.1747    0.0502   -0.2018 H   0  0  0  0  0  0  0  0  0  0  0  0
   -0.4769   -0.0841   -1.4962 N   0  0  0  0  0  0  0  0  0  0  0  0
   -0.4086    0.9621   -2.4102 C   0  0  0  0  0  0  0  0  0  0  0  0
   -1.3246    1.3412   -3.2199 N   0  0  0  0  0  0  0  0  0  0  0  0
    0.8211    1.6273   -2.3952 N   0  0  0  0  0  0  0  0  0  0  0  0
   -0.5140    1.2041    0.6508 C   0  0  2  0  0  0  0  0  0  0  0  0
   -0.6359    2.0615   -0.0261 H   0  0  0  0  0  0  0  0  0  0  0  0
    0.2612    1.7469    1.8703 C   0  0  2  0  0  0  0  0  0  0  0  0
   -0.5034    2.2459    2.4775 H   0  0  0  0  0  0  0  0  0  0  0  0
    1.3216    2.8314    1.5662 C   0  0  0  0  0  0  0  0  0  0  0  0
    1.8417    3.4752    2.8657 C   0  0  0  0  0  0  0  0  0  0  0  0
    0.7620    4.0049    3.8107 C   0  0  0  0  0  0  0  0  0  0  0  0
    2.4617    2.3423    0.6563 C   0  0  0  0  0  0  0  0  0  0  0  0
    3.5042    3.4045    0.3038 C   0  0  0  0  0  0  0  0  0  0  0  0
    0.8231    0.7152    2.7405 N   0  0  0  0  0  0  0  0  0  0  0  0
    0.1881    0.2350    3.8340 C   0  0  0  0  0  0  0  0  0  0  0  0
   -0.9615    0.5665    4.1347 O   0  0  0  0  0  0  0  0  0  0  0  0
    0.9448   -0.7804    4.6609 C   0  0  0  0  0  0  0  0  0  0  0  0
   -1.9180    0.6545    1.0253 C   0  0  2  0  0  0  0  0  0  0  0  0
   -2.5469    0.7941    0.1323 H   0  0  0  0  0  0  0  0  0  0  0  0
   -2.6249    1.2650    2.0742 O   0  0  0  0  0  0  0  0  0  0  0  0
   -1.7205   -0.8756    1.2668 C   0  0  1  0  0  0  0  0  0  0  0  0
   -1.6984   -1.0341    2.3550 H   0  0  0  0  0  0  0  0  0  0  0  0
   -2.9470   -1.5927    0.7340 C   0  0  0  0  0  0  0  0  0  0  0  0
   -2.9378   -2.4395   -0.1233 O   0  0  0  0  0  0  0  0  0  0  0  0
   -4.0960   -1.1510    1.2763 O   0  0  0  0  0  0  0  0  0  0  0  0
   -0.3831   -1.2570    0.6210 C   0  0  0  0  0  0  0  0  0  0  0  0
   -1.3331   -0.6258   -1.5635 H   0  0  0  0  0  0  0  0  0  0  0  0
   -2.2057    0.8559   -3.0361 H   0  0  0  0  0  0  0  0  0  0  0  0
    1.6258    1.0054   -2.3896 H   0  0  0  0  0  0  0  0  0  0  0  0
    0.8715    2.3084   -3.1476 H   0  0  0  0  0  0  0  0  0  0  0  0
    0.7781    3.6136    1.0058 H   0  0  0  0  0  0  0  0  0  0  0  0
    2.5075    4.3076    2.5915 H   0  0  0  0  0  0  0  0  0  0  0  0
    2.4789    2.7483    3.4017 H   0  0  0  0  0  0  0  0  0  0  0  0
    0.1544    3.2020    4.2548 H   0  0  0  0  0  0  0  0  0  0  0  0
    0.0742    4.6878    3.2846 H   0  0  0  0  0  0  0  0  0  0  0  0
    1.2150    4.5683    4.6412 H   0  0  0  0  0  0  0  0  0  0  0  0
    2.0147    1.9833   -0.2801 H   0  0  0  0  0  0  0  0  0  0  0  0
    2.9757    1.4793    1.1230 H   0  0  0  0  0  0  0  0  0  0  0  0
    3.0215    4.3019   -0.1176 H   0  0  0  0  0  0  0  0  0  0  0  0
    4.2087    3.0230   -0.4519 H   0  0  0  0  0  0  0  0  0  0  0  0
    4.0985    3.7225    1.1736 H   0  0  0  0  0  0  0  0  0  0  0  0
    1.7672    0.3989    2.5568 H   0  0  0  0  0  0  0  0  0  0  0  0
    0.7946   -0.5500    5.7244 H   0  0  0  0  0  0  0  0  0  0  0  0
    2.0205   -0.8136    4.4368 H   0  0  0  0  0  0  0  0  0  0  0  0
    0.5115   -1.7766    4.4774 H   0  0  0  0  0  0  0  0  0  0  0  0
   -2.1208    1.1089    2.9078 H   0  0  0  0  0  0  0  0  0  0  0  0
   -3.9168   -0.3683    1.8363 H   0  0  0  0  0  0  0  0  0  0  0  0
    0.3504   -1.5241    1.3909 H   0  0  0  0  0  0  0  0  0  0  0  0
   -0.4871   -2.1160   -0.0561 H   0  0  0  0  0  0  0  0  0  0  0  0
  1  2  1  6
  1  3  1  0
  1  7  1  0
  1 28  1  0
  3  4  1  0
  3 29  1  0
  4  5  2  0
  4  6  1  0
  5 30  1  0
  6 31  1  0
  6 32  1  0
  7  8  1  6
  7  9  1  0
  7 20  1  0
  9 10  1  1
  9 11  1  0
  9 16  1  0
 11 12  1  0
 11 14  1  0
 11 33  1  0
 12 13  1  0
 12 34  1  0
 12 35  1  0
 13 36  1  0
 13 37  1  0
 13 38  1  0
 14 15  1  0
 14 39  1  0
 14 40  1  0
 15 41  1  0
 15 42  1  0
 15 43  1  0
 16 17  1  0
 16 44  1  0
 17 18  2  0
 17 19  1  0
 19 45  1  0
 19 46  1  0
 19 47  1  0
 20 21  1  6
 20 22  1  0
 20 23  1  0
 22 48  1  0
 23 24  1  1
 23 25  1  0
 23 28  1  0
 25 26  2  0
 25 27  1  0
 27 49  1  0
 28 50  1  0
 28 51  1  0
M  END

