
     RDKit          3D

 51 51  0  0  0  0  0  0  0  0999 V2000
    0.2962   -0.2886    0.1182 C   0  0  1  0  0  0  0  0  0  0  0  0
    1.4004   -0.2439    0.0457 H   0  0  0  0  0  0  0  0  0  0  0  0
   -0.2752   -0.6760   -1.1608 N   0  0  0  0  0  0  0  0  0  0  0  0
    0.1100   -0.0726   -2.3514 C   0  0  0  0  0  0  0  0  0  0  0  0
    1.0073    0.8337   -2.5050 N   0  0  0  0  0  0  0  0  0  0  0  0
   -0.5892   -0.5621   -3.4458 N   0  0  0  0  0  0  0  0  0  0  0  0
   -0.2948    1.0796    0.5563 C   0  0  2  0  0  0  0  0  0  0  0  0
   -0.5267    1.6619   -0.3421 H   0  0  0  0  0  0  0  0  0  0  0  0
    0.6202    1.9643    1.4228 C   0  0  2  0  0  0  0  0  0  0  0  0
   -0.0180    2.7404    1.8730 H   0  0  0  0  0  0  0  0  0  0  0  0
    1.7088    2.6943    0.5930 C   0  0  0  0  0  0  0  0  0  0  0  0
    1.0656    3.7844   -0.2887 C   0  0  0  0  0  0  0  0  0  0  0  0
    1.9205    4.1801   -1.4916 C   0  0  0  0  0  0  0  0  0  0  0  0
    2.8300    3.3041    1.4687 C   0  0  0  0  0  0  0  0  0  0  0  0
    4.0844    2.4420    1.6193 C   0  0  0  0  0  0  0  0  0  0  0  0
    1.2044    1.2433    2.5529 N   0  0  0  0  0  0  0  0  0  0  0  0
    0.6657    1.2345    3.7943 C   0  0  0  0  0  0  0  0  0  0  0  0
   -0.4253    1.7482    4.0486 O   0  0  0  0  0  0  0  0  0  0  0  0
    1.4548    0.5090    4.8617 C   0  0  0  0  0  0  0  0  0  0  0  0
   -1.6244    0.6556    1.2210 C   0  0  2  0  0  0  0  0  0  0  0  0
   -2.3222    0.4532    0.3938 H   0  0  0  0  0  0  0  0  0  0  0  0
   -2.2785    1.5781    2.0577 O   0  0  0  0  0  0  0  0  0  0  0  0
   -1.3250   -0.6874    1.9379 C   0  0  1  0  0  0  0  0  0  0  0  0
   -1.0666   -0.4493    2.9806 H   0  0  0  0  0  0  0  0  0  0  0  0
   -2.5858   -1.5347    2.0091 C   0  0  0  0  0  0  0  0  0  0  0  0
   -2.6552   -2.6944    1.6931 O   0  0  0  0  0  0  0  0  0  0  0  0
   -3.6528   -0.8572    2.4648 O   0  0  0  0  0  0  0  0  0  0  0  0
   -0.1332   -1.3087    1.2029 C   0  0  0  0  0  0  0  0  0  0  0  0
   -0.5954   -1.6349   -1.2393 H   0  0  0  0  0  0  0  0  0  0  0  0
    1.5437    0.9731   -1.6509 H   0  0  0  0  0  0  0  0  0  0  0  0
   -1.5830   -0.7120   -3.2998 H   0  0  0  0  0  0  0  0  0  0  0  0
   -0.3785   -0.0504   -4.2965 H   0  0  0  0  0  0  0  0  0  0  0  0
    2.1785    1.9528   -0.0783 H   0  0  0  0  0  0  0  0  0  0  0  0
    0.8616    4.6617    0.3512 H   0  0  0  0  0  0  0  0  0  0  0  0
    0.0853    3.4509   -0.6596 H   0  0  0  0  0  0  0  0  0  0  0  0
    1.9882    3.3436   -2.2045 H   0  0  0  0  0  0  0  0  0  0  0  0
    2.9426    4.4687   -1.1957 H   0  0  0  0  0  0  0  0  0  0  0  0
    1.4790    5.0366   -2.0242 H   0  0  0  0  0  0  0  0  0  0  0  0
    2.4203    3.5612    2.4601 H   0  0  0  0  0  0  0  0  0  0  0  0
    3.1396    4.2613    1.0212 H   0  0  0  0  0  0  0  0  0  0  0  0
    3.8895    1.4702    2.1033 H   0  0  0  0  0  0  0  0  0  0  0  0
    4.8481    2.9507    2.2283 H   0  0  0  0  0  0  0  0  0  0  0  0
    4.5316    2.2252    0.6356 H   0  0  0  0  0  0  0  0  0  0  0  0
    2.0957    0.7848    2.4169 H   0  0  0  0  0  0  0  0  0  0  0  0
    0.9669   -0.4575    5.0664 H   0  0  0  0  0  0  0  0  0  0  0  0
    1.4150    1.0976    5.7882 H   0  0  0  0  0  0  0  0  0  0  0  0
    2.5024    0.3267    4.5825 H   0  0  0  0  0  0  0  0  0  0  0  0
   -1.6868    1.7680    2.8255 H   0  0  0  0  0  0  0  0  0  0  0  0
   -3.4245    0.0933    2.5652 H   0  0  0  0  0  0  0  0  0  0  0  0
    0.6975   -1.4945    1.8958 H   0  0  0  0  0  0  0  0  0  0  0  0
   -0.4060   -2.2811    0.7675 H   0  0  0  0  0  0  0  0  0  0  0  0
  1  2  1  6
  1  3  1  0
  1  7  1  0
  1 28  1  0
  3  4  1  0
  3 29  1  0
  4  5  2  0
  4  6  1  0
  5 30  1  0
  6 31  1  0
  6 32  1  0
  7  8  1  6
  7  9  1  0
  7 20  1  0
  9 10  1  1
  9 11  1  0
  9 16  1  0
 11 12  1  0
 11 14  1  0
 11 33  1  0
 12 13  1  0
 12 34  1  0
 12 35  1  0
 13 36  1  0
 13 37  1  0
 13 38  1  0
 14 15  1  0
 14 39  1  0
 14 40  1  0
 15 41  1  0
 15 42  1  0
 15 43  1  0
 16 17  1  0
 16 44  1  0
 17 18  2  0
 17 19  1  0
 19 45  1  0
 19 46  1  0
 19 47  1  0
 20 21  1  6
 20 22  1  0
 20 23  1  0
 22 48  1  0
 23 24  1  1
 23 25  1  0
 23 28  1  0
 25 26  2  0
 25 27  1  0
 27 49  1  0
 28 50  1  0
 28 51  1  0
M  END

