51

C         -0.04800        0.13060       -0.14000
H          1.02540        0.27360       -0.33220
N         -0.61850        0.01860       -1.48510
C         -1.98610        0.05920       -1.78440
N         -2.51210        0.68460       -2.77400
N         -2.79880       -0.64420       -0.91040
C         -0.57650        1.32700        0.71140
H         -1.09490        2.03340        0.05030
C          0.54710        2.11370        1.41930
H          0.08330        2.70520        2.22310
C          1.25210        3.10570        0.45690
C          0.32990        4.31350        0.19760
C          0.68620        5.10170       -1.06110
C          2.63600        3.57580        0.96400
C          3.82980        2.79650        0.41020
N          1.50530        1.23460        2.08870
C          1.42680        0.87840        3.39270
O          0.48820        1.20720        4.11900
C          2.54620        0.00330        3.91310
C         -1.61790        0.69770        1.66780
H         -2.55930        0.65610        1.10730
O         -1.91500        1.36610        2.87170
C         -1.13720       -0.76060        1.91060
H         -0.57950       -0.76350        2.86010
C         -2.34940       -1.64950        2.12960
O         -2.57820       -2.66850        1.52510
O         -3.18700       -1.18130        3.06690
C         -0.22760       -1.13820        0.73950
H         -0.08570        0.53860       -2.17260
H         -1.82220        1.27020       -3.24980
H         -2.48010       -1.54410       -0.56180
H         -3.76650       -0.65310       -1.21510
H          1.40260        2.58850       -0.51020
H          0.36730        4.97160        1.08390
H         -0.71700        3.98150        0.12060
H          0.57970        4.47480       -1.96210
H          1.72360        5.47260       -1.03810
H          0.02740        5.97490       -1.18410
H          2.64490        3.55660        2.06640
H          2.77380        4.63270        0.68750
H          3.80310        1.72250        0.66110
H          4.78120        3.18970        0.80100
H          3.86710        2.86420       -0.68940
H          2.29910        0.90120        1.55840
H          2.17080       -1.02790        4.01200
H          2.82260        0.34830        4.91870
H          3.43460       -0.00230        3.26550
H         -1.09780        1.40000        3.42380
H         -2.90140       -0.28320        3.34450
H          0.75100       -1.47380        1.11070
H         -0.63430       -1.97570        0.15900
