51
rmsd46.gzmat
C          0.00000        0.00000        0.00000
H          1.11480        0.00000        0.00000
N         -0.44260        0.00000       -1.41060
C          0.02140       -1.13740       -2.17050
N          1.23660       -1.32400       -2.55910
N         -0.99400       -2.00900       -2.58420
C         -0.57720        1.26200        0.68920
H         -0.77230        2.04840       -0.08620
C          0.36280        1.89020        1.74320
H         -0.25300        2.52500        2.44390
C          1.44060        2.80080        1.08050
C          0.81940        3.88040        0.17150
C         -0.30180        4.68630        0.82380
C          2.31810        3.46590        2.16130
C          3.70600        3.80620        1.61960
N          1.05950        0.85540        2.53090
C          0.61890        0.45510        3.76990
O         -0.42750        0.87910        4.23840
C          1.49360       -0.51900        4.50370
C         -1.94680        0.80650        1.25540
H         -2.76720        1.10500        0.55770
O         -2.33990        1.41190        2.43750
C         -1.86850       -0.74110        1.43460
H         -1.88090       -0.98210        2.52780
C         -3.07320       -1.35990        0.77550
O         -3.08060       -2.07900       -0.18870
O         -4.26220       -1.03210        1.34200
C         -0.55410       -1.20340        0.80840
H         -1.44720        0.16740       -1.50370
H          1.94060       -0.63190       -2.38750
H         -1.75670       -2.17970       -1.94760
H         -0.71670       -2.79830       -3.14250
H          2.08940        2.15610        0.43740
H          0.45150        3.41390       -0.76560
H          1.62490        4.57090       -0.15470
H          0.01760        5.14320        1.76730
H         -1.18330        4.07080        1.04220
H         -0.63270        5.49920        0.16590
H          2.42180        2.81540        3.04910
H          1.82320        4.38230        2.53810
H          4.25500        2.90830        1.31680
H          4.31010        4.32020        2.37620
H          3.64910        4.46870        0.74820
H          1.91680        0.49610        2.14040
H          1.02740       -0.79570        5.46620
H          2.47800       -0.09090        4.73900
H          1.65170       -1.44910        3.94180
H         -1.67390        1.28010        3.17230
H         -4.18130       -0.35490        2.06590
H          0.16890       -1.50320        1.58650
H         -0.68010       -2.10130        0.17650
