rmsd90.gzmat
 OpenBabel08211713423D

 51 51  0  0  1  0  0  0  0  0999 V2000
    0.0000    0.0000    0.0000 C   0  0  1  0  0  0  0  0  0  0  0  0
    1.1140    0.0000    0.0000 H   0  0  0  0  0  0  0  0  0  0  0  0
   -0.4535    0.0000   -1.4074 N   0  0  0  0  0  0  0  0  0  0  0  0
    0.0875   -1.0801   -2.1989 C   0  0  0  0  0  0  0  0  0  0  0  0
    1.3216   -1.1965   -2.5583 N   0  0  0  0  0  0  0  0  0  0  0  0
   -0.8725   -1.9775   -2.6763 N   0  0  0  0  0  0  0  0  0  0  0  0
   -0.5774    1.2613    0.6902 C   0  0  2  0  0  0  0  0  0  0  0  0
   -0.7774    2.0435   -0.0887 H   0  0  0  0  0  0  0  0  0  0  0  0
    0.3655    1.8967    1.7376 C   0  0  2  0  0  0  0  0  0  0  0  0
   -0.2577    2.4933    2.4665 H   0  0  0  0  0  0  0  0  0  0  0  0
    1.3874    2.8655    1.0680 C   0  0  0  0  0  0  0  0  0  0  0  0
    0.6741    3.9959    0.2985 C   0  0  0  0  0  0  0  0  0  0  0  0
   -0.3352    4.7736    1.1392 C   0  0  0  0  0  0  0  0  0  0  0  0
    2.3413    3.4692    2.1220 C   0  0  0  0  0  0  0  0  0  0  0  0
    3.7351    2.8434    2.0734 C   0  0  0  0  0  0  0  0  0  0  0  0
    1.1160    0.8747    2.4883 N   0  0  0  0  0  0  0  0  0  0  0  0
    0.7207    0.4433    3.7305 C   0  0  0  0  0  0  0  0  0  0  0  0
   -0.3411    0.8044    4.2189 O   0  0  0  0  0  0  0  0  0  0  0  0
    1.6440   -0.4932    4.4522 C   0  0  0  0  0  0  0  0  0  0  0  0
   -1.9453    0.8106    1.2674 C   0  0  2  0  0  0  0  0  0  0  0  0
   -2.7744    1.1523    0.6010 H   0  0  0  0  0  0  0  0  0  0  0  0
   -2.2996    1.3760    2.4808 O   0  0  0  0  0  0  0  0  0  0  0  0
   -1.8961   -0.7450    1.3873 C   0  0  1  0  0  0  0  0  0  0  0  0
   -1.9623   -1.0298    2.4673 H   0  0  0  0  0  0  0  0  0  0  0  0
   -3.0730   -1.3159    0.6408 C   0  0  0  0  0  0  0  0  0  0  0  0
   -3.0456   -1.9146   -0.4021 O   0  0  0  0  0  0  0  0  0  0  0  0
   -4.2794   -1.1017    1.2261 O   0  0  0  0  0  0  0  0  0  0  0  0
   -0.5598   -1.2025    0.8045 C   0  0  0  0  0  0  0  0  0  0  0  0
   -1.4716    0.0814   -1.4789 H   0  0  0  0  0  0  0  0  0  0  0  0
    1.9873   -0.4822   -2.3337 H   0  0  0  0  0  0  0  0  0  0  0  0
   -1.6740   -2.1671   -2.0973 H   0  0  0  0  0  0  0  0  0  0  0  0
   -0.5513   -2.7380   -3.2481 H   0  0  0  0  0  0  0  0  0  0  0  0
    1.9849    2.2840    0.3243 H   0  0  0  0  0  0  0  0  0  0  0  0
    0.1736    3.5833   -0.6018 H   0  0  0  0  0  0  0  0  0  0  0  0
    1.4406    4.6900   -0.1026 H   0  0  0  0  0  0  0  0  0  0  0  0
    0.1090    5.1471    2.0685 H   0  0  0  0  0  0  0  0  0  0  0  0
   -1.2014    4.1575    1.4144 H   0  0  0  0  0  0  0  0  0  0  0  0
   -0.7214    5.6407    0.5902 H   0  0  0  0  0  0  0  0  0  0  0  0
    1.9147    3.3662    3.1378 H   0  0  0  0  0  0  0  0  0  0  0  0
    2.4341    4.5630    1.9675 H   0  0  0  0  0  0  0  0  0  0  0  0
    3.7244    1.7808    2.3280 H   0  0  0  0  0  0  0  0  0  0  0  0
    4.4084    3.3361    2.7865 H   0  0  0  0  0  0  0  0  0  0  0  0
    4.1880    2.9474    1.0802 H   0  0  0  0  0  0  0  0  0  0  0  0
    1.9909    0.5771    2.0840 H   0  0  0  0  0  0  0  0  0  0  0  0
    1.8402   -0.1115    5.4696 H   0  0  0  0  0  0  0  0  0  0  0  0
    2.6117   -0.6495    3.9646 H   0  0  0  0  0  0  0  0  0  0  0  0
    1.1644   -1.4774    4.5824 H   0  0  0  0  0  0  0  0  0  0  0  0
   -1.6168    1.2093    3.1934 H   0  0  0  0  0  0  0  0  0  0  0  0
   -4.2341   -0.4930    2.0096 H   0  0  0  0  0  0  0  0  0  0  0  0
    0.1443   -1.4828    1.6070 H   0  0  0  0  0  0  0  0  0  0  0  0
   -0.6585   -2.1065    0.1769 H   0  0  0  0  0  0  0  0  0  0  0  0
  1  2  1  1  0  0  0
  1  7  1  0  0  0  0
  1 28  1  0  0  0  0
  3  1  1  0  0  0  0
  4  3  1  0  0  0  0
  5 30  1  0  0  0  0
  5  4  1  0  0  0  0
  6  4  2  0  0  0  0
  6 31  1  0  0  0  0
  7 20  1  0  0  0  0
  7  9  1  0  0  0  0
  7  8  1  6  0  0  0
  9 10  1  1  0  0  0
  9 16  1  0  0  0  0
 11  9  1  0  0  0  0
 11 14  1  0  0  0  0
 12 11  1  0  0  0  0
 12 13  1  0  0  0  0
 13 37  1  0  0  0  0
 13 36  1  0  0  0  0
 14 39  1  0  0  0  0
 15 14  1  0  0  0  0
 15 41  1  0  0  0  0
 15 42  1  0  0  0  0
 16 17  1  0  0  0  0
 17 18  2  0  0  0  0
 17 19  1  0  0  0  0
 19 47  1  0  0  0  0
 19 45  1  0  0  0  0
 20 23  1  0  0  0  0
 20 22  1  0  0  0  0
 20 21  1  6  0  0  0
 22 48  1  0  0  0  0
 23 24  1  1  0  0  0
 25 27  1  0  0  0  0
 25 23  1  0  0  0  0
 26 25  2  0  0  0  0
 27 49  1  0  0  0  0
 28 23  1  0  0  0  0
 28 50  1  0  0  0  0
 29  3  1  0  0  0  0
 32  6  1  0  0  0  0
 33 11  1  0  0  0  0
 34 12  1  0  0  0  0
 35 12  1  0  0  0  0
 38 13  1  0  0  0  0
 40 14  1  0  0  0  0
 43 15  1  0  0  0  0
 44 16  1  0  0  0  0
 46 19  1  0  0  0  0
 51 28  1  0  0  0  0
M  RAD  1   5   2
M  END
$$$$
