rmsd223.gzmat
 OpenBabel08211713423D

 51 51  0  0  1  0  0  0  0  0999 V2000
    0.0000    0.0000    0.0000 C   0  0  1  0  0  0  0  0  0  0  0  0
    1.1146    0.0000    0.0000 H   0  0  0  0  0  0  0  0  0  0  0  0
   -0.4548    0.0000   -1.4029 N   0  0  0  0  0  0  0  0  0  0  0  0
   -0.3573    1.1370   -2.2374 C   0  0  0  0  0  0  0  0  0  0  0  0
   -1.0834    1.3573   -3.2859 N   0  0  0  0  0  0  0  0  0  0  0  0
    0.6368    2.0879   -1.9049 N   0  0  0  0  0  0  0  0  0  0  0  0
   -0.5696    1.1741    0.8418 C   0  0  2  0  0  0  0  0  0  0  0  0
   -0.7043    2.0727    0.1857 H   0  0  0  0  0  0  0  0  0  0  0  0
    0.3098    1.6247    2.0320 C   0  0  2  0  0  0  0  0  0  0  0  0
   -0.3840    2.1320    2.7755 H   0  0  0  0  0  0  0  0  0  0  0  0
    1.3552    2.7018    1.6073 C   0  0  0  0  0  0  0  0  0  0  0  0
    1.7326    3.5606    2.8312 C   0  0  0  0  0  0  0  0  0  0  0  0
    0.6408    4.5723    3.1764 C   0  0  0  0  0  0  0  0  0  0  0  0
    2.6277    2.1150    0.9685 C   0  0  0  0  0  0  0  0  0  0  0  0
    3.3450    3.1544    0.1053 C   0  0  0  0  0  0  0  0  0  0  0  0
    0.9723    0.5090    2.7217 N   0  0  0  0  0  0  0  0  0  0  0  0
    0.4608   -0.0386    3.8739 C   0  0  0  0  0  0  0  0  0  0  0  0
   -0.6176    0.3196    4.3250 O   0  0  0  0  0  0  0  0  0  0  0  0
    1.2920   -1.0968    4.5390 C   0  0  0  0  0  0  0  0  0  0  0  0
   -1.9749    0.6783    1.2737 C   0  0  2  0  0  0  0  0  0  0  0  0
   -2.7515    1.0904    0.5836 H   0  0  0  0  0  0  0  0  0  0  0  0
   -2.4212    1.1185    2.5087 O   0  0  0  0  0  0  0  0  0  0  0  0
   -1.9297   -0.8824    1.2407 C   0  0  1  0  0  0  0  0  0  0  0  0
   -2.0416   -1.2796    2.2787 H   0  0  0  0  0  0  0  0  0  0  0  0
   -3.0783   -1.3517    0.3859 C   0  0  0  0  0  0  0  0  0  0  0  0
   -3.0086   -1.8032   -0.7259 O   0  0  0  0  0  0  0  0  0  0  0  0
   -4.3055   -1.2059    0.9495 O   0  0  0  0  0  0  0  0  0  0  0  0
   -0.5696   -1.2807    0.6636 C   0  0  0  0  0  0  0  0  0  0  0  0
   -1.3021   -0.5635   -1.5409 H   0  0  0  0  0  0  0  0  0  0  0  0
   -1.8743    0.7831   -3.5073 H   0  0  0  0  0  0  0  0  0  0  0  0
    1.5033    1.7180   -1.5555 H   0  0  0  0  0  0  0  0  0  0  0  0
    0.7735    2.7974   -2.6155 H   0  0  0  0  0  0  0  0  0  0  0  0
    0.8578    3.3637    0.8518 H   0  0  0  0  0  0  0  0  0  0  0  0
    2.6792    4.0999    2.6319 H   0  0  0  0  0  0  0  0  0  0  0  0
    1.9406    2.9120    3.7026 H   0  0  0  0  0  0  0  0  0  0  0  0
   -0.3128    4.0844    3.4144 H   0  0  0  0  0  0  0  0  0  0  0  0
    0.4563    5.2661    2.3477 H   0  0  0  0  0  0  0  0  0  0  0  0
    0.9207    5.1702    4.0517 H   0  0  0  0  0  0  0  0  0  0  0  0
    2.3770    1.2339    0.3469 H   0  0  0  0  0  0  0  0  0  0  0  0
    3.3194    1.7508    1.7520 H   0  0  0  0  0  0  0  0  0  0  0  0
    2.6848    3.5706   -0.6650 H   0  0  0  0  0  0  0  0  0  0  0  0
    4.2181    2.7225   -0.3961 H   0  0  0  0  0  0  0  0  0  0  0  0
    3.7027    3.9989    0.7072 H   0  0  0  0  0  0  0  0  0  0  0  0
    1.8502    0.1937    2.3431 H   0  0  0  0  0  0  0  0  0  0  0  0
    0.9406   -1.2532    5.5751 H   0  0  0  0  0  0  0  0  0  0  0  0
    2.3563   -0.8386    4.5947 H   0  0  0  0  0  0  0  0  0  0  0  0
    1.1973   -2.0644    4.0256 H   0  0  0  0  0  0  0  0  0  0  0  0
   -1.8043    0.8658    3.2517 H   0  0  0  0  0  0  0  0  0  0  0  0
   -4.2957   -0.6661    1.7823 H   0  0  0  0  0  0  0  0  0  0  0  0
    0.1108   -1.6365    1.4545 H   0  0  0  0  0  0  0  0  0  0  0  0
   -0.6441   -2.1197   -0.0572 H   0  0  0  0  0  0  0  0  0  0  0  0
  1  2  1  1  0  0  0
  1 28  1  0  0  0  0
  1  7  1  0  0  0  0
  3  1  1  0  0  0  0
  4  6  2  0  0  0  0
  4  3  1  0  0  0  0
  5  4  1  0  0  0  0
  6 31  1  0  0  0  0
  7 20  1  0  0  0  0
  7  9  1  0  0  0  0
  7  8  1  6  0  0  0
  9 16  1  0  0  0  0
  9 10  1  1  0  0  0
 11  9  1  0  0  0  0
 11 12  1  0  0  0  0
 12 13  1  0  0  0  0
 12 35  1  0  0  0  0
 13 36  1  0  0  0  0
 13 38  1  0  0  0  0
 14 11  1  0  0  0  0
 14 40  1  0  0  0  0
 15 43  1  0  0  0  0
 15 14  1  0  0  0  0
 16 17  1  0  0  0  0
 17 18  2  0  0  0  0
 17 19  1  0  0  0  0
 19 46  1  0  0  0  0
 19 45  1  0  0  0  0
 20 23  1  0  0  0  0
 20 22  1  0  0  0  0
 20 21  1  6  0  0  0
 22 48  1  0  0  0  0
 23 24  1  1  0  0  0
 25 27  1  0  0  0  0
 25 23  1  0  0  0  0
 26 25  2  0  0  0  0
 27 49  1  0  0  0  0
 28 23  1  0  0  0  0
 28 50  1  0  0  0  0
 29  3  1  0  0  0  0
 30  5  1  0  0  0  0
 32  6  1  0  0  0  0
 33 11  1  0  0  0  0
 34 12  1  0  0  0  0
 37 13  1  0  0  0  0
 39 14  1  0  0  0  0
 41 15  1  0  0  0  0
 42 15  1  0  0  0  0
 44 16  1  0  0  0  0
 47 19  1  0  0  0  0
 51 28  1  0  0  0  0
M  RAD  1   5   2
M  END
$$$$
