rmsd169.gzmat
 OpenBabel08211713373D

 36 37  0  0  1  0  0  0  0  0999 V2000
    0.0000    0.0000    0.0000 Br  0  0  0  0  0  0  0  0  0  0  0  0
    1.8983    0.0000    0.0000 C   0  0  0  0  0  0  0  0  0  0  0  0
    2.5692    0.0000    1.2177 C   0  0  0  0  0  0  0  0  0  0  0  0
    3.9632    0.0081    1.2144 C   0  0  0  0  0  0  0  0  0  0  0  0
    4.6501    0.0141    0.0012 C   0  0  0  0  0  0  0  0  0  0  0  0
    6.1377   -0.0060   -0.0309 C   0  0  0  0  0  0  0  0  0  0  0  0
    6.7879   -0.8428   -0.6201 O   0  0  0  0  0  0  0  0  0  0  0  0
    6.7564    1.0554    0.6124 N   0  0  0  0  0  0  0  0  0  0  0  0
    8.2064    1.0713    0.7389 C   0  0  0  0  0  0  0  0  0  0  0  0
    8.5893    0.9123    2.1991 C   0  0  0  0  0  0  0  0  0  0  0  0
    7.8783    1.0814    3.1535 O   0  0  0  0  0  0  0  0  0  0  0  0
    9.8895    0.5598    2.2820 O   0  0  0  0  0  0  0  0  0  0  0  0
   10.4426    0.3578    3.5875 C   0  0  1  0  0  0  0  0  0  0  0  0
    9.7266   -0.2239    4.2033 H   0  0  0  0  0  0  0  0  0  0  0  0
   11.7609   -0.4103    3.3306 C   0  0  1  0  0  0  0  0  0  0  0  0
   12.0634   -0.3729    2.2635 H   0  0  0  0  0  0  0  0  0  0  0  0
   12.8057    0.1988    4.2779 C   0  0  0  0  0  0  0  0  0  0  0  0
   12.1532    1.4163    4.9591 C   0  0  0  0  0  0  0  0  0  0  0  0
   10.8362    1.6954    4.2168 C   0  0  0  0  0  0  0  0  0  0  0  0
   11.6166   -1.7594    3.7201 O   0  0  0  0  0  0  0  0  0  0  0  0
    3.9631   -0.0046   -1.2125 C   0  0  0  0  0  0  0  0  0  0  0  0
    2.5691   -0.0053   -1.2176 C   0  0  0  0  0  0  0  0  0  0  0  0
    2.0294   -0.0081    2.1656 H   0  0  0  0  0  0  0  0  0  0  0  0
    4.5086   -0.0018    2.1603 H   0  0  0  0  0  0  0  0  0  0  0  0
    6.2419    1.6944    1.2027 H   0  0  0  0  0  0  0  0  0  0  0  0
    8.6178    2.0339    0.3474 H   0  0  0  0  0  0  0  0  0  0  0  0
    8.6714    0.2576    0.1177 H   0  0  0  0  0  0  0  0  0  0  0  0
   13.1204   -0.5579    5.0239 H   0  0  0  0  0  0  0  0  0  0  0  0
   13.7179    0.4817    3.7301 H   0  0  0  0  0  0  0  0  0  0  0  0
   11.9581    1.2030    6.0254 H   0  0  0  0  0  0  0  0  0  0  0  0
   12.8181    2.2941    4.9393 H   0  0  0  0  0  0  0  0  0  0  0  0
   10.0532    2.0803    4.8897 H   0  0  0  0  0  0  0  0  0  0  0  0
   10.9746    2.4644    3.4362 H   0  0  0  0  0  0  0  0  0  0  0  0
   11.0069   -2.2307    3.1177 H   0  0  0  0  0  0  0  0  0  0  0  0
    4.5174   -0.0270   -2.1533 H   0  0  0  0  0  0  0  0  0  0  0  0
    2.0304   -0.0150   -2.1655 H   0  0  0  0  0  0  0  0  0  0  0  0
  1  2  1  0  0  0  0
  2  3  2  0  0  0  0
  3 23  1  0  0  0  0
  4  3  1  0  0  0  0
  4 24  1  0  0  0  0
  5  4  2  0  0  0  0
  6  5  1  0  0  0  0
  6  8  1  0  0  0  0
  7  6  2  0  0  0  0
  8  9  1  0  0  0  0
  8 25  1  0  0  0  0
  9 10  1  0  0  0  0
 10 12  1  0  0  0  0
 10 11  2  0  0  0  0
 12 13  1  0  0  0  0
 13 15  1  0  0  0  0
 13 14  1  1  0  0  0
 13 19  1  0  0  0  0
 15 16  1  6  0  0  0
 15 20  1  0  0  0  0
 15 17  1  0  0  0  0
 17 18  1  0  0  0  0
 17 28  1  0  0  0  0
 18 30  1  0  0  0  0
 19 32  1  0  0  0  0
 19 18  1  0  0  0  0
 21  5  1  0  0  0  0
 22 21  2  0  0  0  0
 22  2  1  0  0  0  0
 26  9  1  0  0  0  0
 27  9  1  0  0  0  0
 29 17  1  0  0  0  0
 31 18  1  0  0  0  0
 33 19  1  0  0  0  0
 34 20  1  0  0  0  0
 35 21  1  0  0  0  0
 36 22  1  0  0  0  0
M  END
$$$$
