rmsd216.gzmat
 OpenBabel08211713373D

 36 37  0  0  1  0  0  0  0  0999 V2000
    0.0000    0.0000    0.0000 Br  0  0  0  0  0  0  0  0  0  0  0  0
    1.8982    0.0000    0.0000 C   0  0  0  0  0  0  0  0  0  0  0  0
    2.5703    0.0000    1.2170 C   0  0  0  0  0  0  0  0  0  0  0  0
    3.9645    0.0051    1.2124 C   0  0  0  0  0  0  0  0  0  0  0  0
    4.6518    0.0078   -0.0009 C   0  0  0  0  0  0  0  0  0  0  0  0
    6.1384   -0.0133   -0.0501 C   0  0  0  0  0  0  0  0  0  0  0  0
    6.7759   -0.7962   -0.7223 O   0  0  0  0  0  0  0  0  0  0  0  0
    6.7785    0.9093    0.7654 N   0  0  0  0  0  0  0  0  0  0  0  0
    8.2281    1.0465    0.6789 C   0  0  0  0  0  0  0  0  0  0  0  0
    8.5851    2.4902    0.3919 C   0  0  0  0  0  0  0  0  0  0  0  0
    7.8122    3.4182    0.3795 O   0  0  0  0  0  0  0  0  0  0  0  0
    9.9090    2.6088    0.1916 O   0  0  0  0  0  0  0  0  0  0  0  0
   10.4188    3.9111   -0.1427 C   0  0  1  0  0  0  0  0  0  0  0  0
    9.9229    4.2362   -1.0794 H   0  0  0  0  0  0  0  0  0  0  0  0
   10.1918    4.9127    1.0142 C   0  0  1  0  0  0  0  0  0  0  0  0
    9.9903    4.3968    1.9752 H   0  0  0  0  0  0  0  0  0  0  0  0
   11.4664    5.7648    1.0511 C   0  0  0  0  0  0  0  0  0  0  0  0
   12.5901    4.8313    0.5714 C   0  0  0  0  0  0  0  0  0  0  0  0
   11.9325    3.7243   -0.2779 C   0  0  0  0  0  0  0  0  0  0  0  0
    9.1139    5.7666    0.7221 O   0  0  0  0  0  0  0  0  0  0  0  0
    3.9622   -0.0080   -1.2140 C   0  0  0  0  0  0  0  0  0  0  0  0
    2.5686   -0.0051   -1.2179 C   0  0  0  0  0  0  0  0  0  0  0  0
    2.0309   -0.0067    2.1647 H   0  0  0  0  0  0  0  0  0  0  0  0
    4.5095   -0.0039    2.1574 H   0  0  0  0  0  0  0  0  0  0  0  0
    6.2771    1.6833    1.1844 H   0  0  0  0  0  0  0  0  0  0  0  0
    8.6532    0.3687   -0.1119 H   0  0  0  0  0  0  0  0  0  0  0  0
    8.7009    0.7231    1.6402 H   0  0  0  0  0  0  0  0  0  0  0  0
   11.3495    6.6406    0.3831 H   0  0  0  0  0  0  0  0  0  0  0  0
   11.6583    6.1747    2.0537 H   0  0  0  0  0  0  0  0  0  0  0  0
   13.3456    5.3846   -0.0092 H   0  0  0  0  0  0  0  0  0  0  0  0
   13.1258    4.3941    1.4315 H   0  0  0  0  0  0  0  0  0  0  0  0
   12.2483    3.7867   -1.3325 H   0  0  0  0  0  0  0  0  0  0  0  0
   12.2349    2.7180    0.0695 H   0  0  0  0  0  0  0  0  0  0  0  0
    8.3064    5.2184    0.5753 H   0  0  0  0  0  0  0  0  0  0  0  0
    4.5153   -0.0321   -2.1564 H   0  0  0  0  0  0  0  0  0  0  0  0
    2.0292   -0.0115   -2.1658 H   0  0  0  0  0  0  0  0  0  0  0  0
  2  1  1  0  0  0  0
  2  3  2  0  0  0  0
  3 23  1  0  0  0  0
  4  3  1  0  0  0  0
  4 24  1  0  0  0  0
  5  4  2  0  0  0  0
  6  5  1  0  0  0  0
  6  8  1  0  0  0  0
  7  6  2  0  0  0  0
  8 25  1  0  0  0  0
  9  8  1  0  0  0  0
  9 27  1  0  0  0  0
 10  9  1  0  0  0  0
 11 10  2  0  0  0  0
 12 10  1  0  0  0  0
 13 12  1  0  0  0  0
 13 15  1  0  0  0  0
 13 14  1  6  0  0  0
 15 17  1  0  0  0  0
 15 16  1  1  0  0  0
 17 29  1  0  0  0  0
 18 17  1  0  0  0  0
 18 31  1  0  0  0  0
 19 13  1  0  0  0  0
 19 33  1  0  0  0  0
 19 18  1  0  0  0  0
 20 15  1  0  0  0  0
 21  5  1  0  0  0  0
 22 21  2  0  0  0  0
 22  2  1  0  0  0  0
 26  9  1  0  0  0  0
 28 17  1  0  0  0  0
 30 18  1  0  0  0  0
 32 19  1  0  0  0  0
 34 20  1  0  0  0  0
 35 21  1  0  0  0  0
 36 22  1  0  0  0  0
M  END
$$$$
