36
rmsd210.gzmat
Br         0.00000        0.00000        0.00000
C          1.89830        0.00000        0.00000
C          2.56940        0.00000        1.21760
C          3.96340       -0.00430        1.21420
C          4.65000       -0.00760        0.00110
C          6.13670        0.00630       -0.03850
O          6.78940        0.84470       -0.62070
N          6.75660       -1.00750        0.68570
C          8.19660       -1.18360        0.56130
C          8.48970       -2.39170       -0.30750
O          7.68690       -3.22580       -0.65070
O          9.79250       -2.42130       -0.64140
C         10.24380       -3.54480       -1.41360
H          9.99410       -4.47050       -0.85670
C          9.61680       -3.53170       -2.82760
H          9.22630       -2.52870       -3.09820
C         10.72300       -4.02010       -3.77370
C         12.04480       -3.97900       -2.98170
C         11.74390       -3.33410       -1.61630
O          8.55870       -4.45660       -2.89880
C          3.96310        0.00500       -1.21310
C          2.56930        0.00320       -1.21750
H          2.03020        0.00390        2.16520
H          4.50960        0.00370        2.15840
H          6.23100       -1.81160        1.00490
H          8.65440       -1.32350        1.57130
H          8.67610       -0.26370        0.12600
H         10.49030       -5.04610       -4.12010
H         10.77280       -3.39900       -4.68130
H         12.44370       -4.99970       -2.84760
H         12.82120       -3.41720       -3.52440
H         12.34180       -3.77850       -0.80630
H         11.98690       -2.25420       -1.61870
H          7.90950       -4.25350       -2.18510
H          4.51710        0.02190       -2.15520
H          2.03090        0.00680       -2.16620
