36

Br        -0.08320       -0.70540       -0.12560
C          1.80820       -0.49570       -0.12250
C          2.43360        0.07940        0.98680
C          3.82120        0.22680        0.98480
C          4.58600       -0.19550       -0.11260
C          6.08090       -0.06280       -0.18740
O          6.68910       -0.16310       -1.24370
N          6.72640        0.17250        0.99060
C          8.15940        0.27040        1.03570
C          8.62630        0.23050        2.47300
O          7.86650        0.13880        3.41890
O          9.94490        0.30880        2.56390
C         10.53730        0.36440        3.89020
H         10.07680        1.21060        4.42190
C         10.29530       -0.93120        4.71240
H         10.09460       -1.73870        3.97470
C         11.64900       -1.21070        5.36670
C         12.65390       -0.80090        4.28660
C         12.06030        0.51080        3.73630
O          9.27470       -0.82750        5.66070
C          3.93420       -0.75340       -1.22150
C          2.55020       -0.91240       -1.23210
H          1.84080        0.41420        1.83890
H          4.29460        0.70380        1.84580
H          6.25810        0.08820        1.88650
H          8.53170        1.20060        0.56970
H          8.64170       -0.54910        0.47420
H         11.73980       -0.56150        6.25440
H         11.74340       -2.25330        5.70350
H         13.68000       -0.68170        4.66370
H         12.68500       -1.56650        3.49280
H         12.40460        1.36340        4.34120
H         12.33140        0.71910        2.69180
H          8.48210       -0.54950        5.17200
H          4.54140       -1.05730       -2.07580
H          2.04650       -1.35330       -2.09330
