
     RDKit          3D

 36 37  0  0  0  0  0  0  0  0999 V2000
   -0.2909   -0.8037    0.2048 Br  0  0  0  0  0  0  0  0  0  0  0  0
    1.5975   -0.5696    0.2315 C   0  0  0  0  0  0  0  0  0  0  0  0
    2.3221   -0.9375    1.3696 C   0  0  0  0  0  0  0  0  0  0  0  0
    3.7040   -0.7609    1.3808 C   0  0  0  0  0  0  0  0  0  0  0  0
    4.3709   -0.2338    0.2658 C   0  0  0  0  0  0  0  0  0  0  0  0
    5.8621   -0.0775    0.3652 C   0  0  0  0  0  0  0  0  0  0  0  0
    6.4503   -0.1265    1.4364 O   0  0  0  0  0  0  0  0  0  0  0  0
    6.5281    0.1196   -0.8078 N   0  0  0  0  0  0  0  0  0  0  0  0
    7.9584    0.2554   -0.8275 C   0  0  0  0  0  0  0  0  0  0  0  0
    8.4331    0.3951   -2.2558 C   0  0  0  0  0  0  0  0  0  0  0  0
    7.6927    0.3005   -3.2167 O   0  0  0  0  0  0  0  0  0  0  0  0
    9.7366    0.6182   -2.3217 O   0  0  0  0  0  0  0  0  0  0  0  0
   10.3554    0.6746   -3.6358 C   0  0  1  0  0  0  0  0  0  0  0  0
   10.1078   -0.2621   -4.1575 H   0  0  0  0  0  0  0  0  0  0  0  0
    9.8476    1.8690   -4.4893 C   0  0  1  0  0  0  0  0  0  0  0  0
    9.4573    2.6238   -3.7721 H   0  0  0  0  0  0  0  0  0  0  0  0
   11.1182    2.4320   -5.1276 C   0  0  0  0  0  0  0  0  0  0  0  0
   12.1663    2.2768   -4.0222 C   0  0  0  0  0  0  0  0  0  0  0  0
   11.8689    0.8760   -3.4522 C   0  0  0  0  0  0  0  0  0  0  0  0
    8.8951    1.5239   -5.4512 O   0  0  0  0  0  0  0  0  0  0  0  0
    3.6233    0.1397   -0.8607 C   0  0  0  0  0  0  0  0  0  0  0  0
    2.2380   -0.0257   -0.8849 C   0  0  0  0  0  0  0  0  0  0  0  0
    1.8065   -1.3544    2.2358 H   0  0  0  0  0  0  0  0  0  0  0  0
    4.2974   -1.0264    2.2572 H   0  0  0  0  0  0  0  0  0  0  0  0
    6.0783    0.0070   -1.7098 H   0  0  0  0  0  0  0  0  0  0  0  0
    8.4667   -0.6122   -0.3675 H   0  0  0  0  0  0  0  0  0  0  0  0
    8.2971    1.1308   -0.2473 H   0  0  0  0  0  0  0  0  0  0  0  0
   11.3700    1.8035   -5.9989 H   0  0  0  0  0  0  0  0  0  0  0  0
   10.9848    3.4630   -5.4860 H   0  0  0  0  0  0  0  0  0  0  0  0
   13.2009    2.3828   -4.3798 H   0  0  0  0  0  0  0  0  0  0  0  0
   12.0095    3.0445   -3.2456 H   0  0  0  0  0  0  0  0  0  0  0  0
   12.4083    0.1109   -4.0310 H   0  0  0  0  0  0  0  0  0  0  0  0
   12.1564    0.7532   -2.3985 H   0  0  0  0  0  0  0  0  0  0  0  0
    8.1770    1.0801   -4.9698 H   0  0  0  0  0  0  0  0  0  0  0  0
    4.1082    0.5926   -1.7285 H   0  0  0  0  0  0  0  0  0  0  0  0
    1.6584    0.2716   -1.7596 H   0  0  0  0  0  0  0  0  0  0  0  0
  1  2  1  0
  2  3  2  0
  2 22  1  0
  3  4  1  0
  3 23  1  0
  4  5  2  0
  4 24  1  0
  5  6  1  0
  5 21  1  0
  6  7  2  0
  6  8  1  0
  8  9  1  0
  8 25  1  0
  9 10  1  0
  9 26  1  0
  9 27  1  0
 10 11  2  0
 10 12  1  0
 12 13  1  0
 13 14  1  6
 13 15  1  0
 13 19  1  0
 15 16  1  1
 15 17  1  0
 15 20  1  0
 17 18  1  0
 17 28  1  0
 17 29  1  0
 18 19  1  0
 18 30  1  0
 18 31  1  0
 19 32  1  0
 19 33  1  0
 20 34  1  0
 21 22  2  0
 21 35  1  0
 22 36  1  0
M  END

