
     RDKit          3D

 36 37  0  0  0  0  0  0  0  0999 V2000
   -0.1761    0.4456    0.1034 Br  0  0  0  0  0  0  0  0  0  0  0  0
    1.7215    0.3297    0.0133 C   0  0  0  0  0  0  0  0  0  0  0  0
    2.4447   -0.0010    1.1622 C   0  0  0  0  0  0  0  0  0  0  0  0
    3.8361   -0.0805    1.0907 C   0  0  0  0  0  0  0  0  0  0  0  0
    4.5079    0.1680   -0.1153 C   0  0  0  0  0  0  0  0  0  0  0  0
    6.0013    0.0935   -0.2687 C   0  0  0  0  0  0  0  0  0  0  0  0
    6.5376    0.0263   -1.3663 O   0  0  0  0  0  0  0  0  0  0  0  0
    6.7283    0.1084    0.8833 N   0  0  0  0  0  0  0  0  0  0  0  0
    8.1643    0.0720    0.8506 C   0  0  0  0  0  0  0  0  0  0  0  0
    8.6996    0.2534    2.2543 C   0  0  0  0  0  0  0  0  0  0  0  0
    8.0044    0.4479    3.2236 O   0  0  0  0  0  0  0  0  0  0  0  0
   10.0329    0.1784    2.2790 O   0  0  0  0  0  0  0  0  0  0  0  0
   10.6841    0.3314    3.5551 C   0  0  1  0  0  0  0  0  0  0  0  0
   10.1543   -0.2981    4.2868 H   0  0  0  0  0  0  0  0  0  0  0  0
   12.1274   -0.1480    3.4373 C   0  0  1  0  0  0  0  0  0  0  0  0
   12.5746    0.3600    2.5567 H   0  0  0  0  0  0  0  0  0  0  0  0
   12.7465    0.4032    4.7185 C   0  0  0  0  0  0  0  0  0  0  0  0
   12.0901    1.7931    4.9050 C   0  0  0  0  0  0  0  0  0  0  0  0
   10.7957    1.7772    4.0415 C   0  0  0  0  0  0  0  0  0  0  0  0
   12.2727   -1.5418    3.3468 O   0  0  0  0  0  0  0  0  0  0  0  0
    3.7594    0.4809   -1.2588 C   0  0  0  0  0  0  0  0  0  0  0  0
    2.3702    0.5696   -1.2021 C   0  0  0  0  0  0  0  0  0  0  0  0
    1.9245   -0.2008    2.0997 H   0  0  0  0  0  0  0  0  0  0  0  0
    4.3871   -0.3673    1.9891 H   0  0  0  0  0  0  0  0  0  0  0  0
    6.3116    0.3169    1.7845 H   0  0  0  0  0  0  0  0  0  0  0  0
    8.5834    0.8614    0.2004 H   0  0  0  0  0  0  0  0  0  0  0  0
    8.5455   -0.8782    0.4371 H   0  0  0  0  0  0  0  0  0  0  0  0
   12.4718   -0.2811    5.5376 H   0  0  0  0  0  0  0  0  0  0  0  0
   13.8440    0.4361    4.6741 H   0  0  0  0  0  0  0  0  0  0  0  0
   11.8709    1.9896    5.9642 H   0  0  0  0  0  0  0  0  0  0  0  0
   12.7634    2.5961    4.5704 H   0  0  0  0  0  0  0  0  0  0  0  0
    9.8969    2.0950    4.5856 H   0  0  0  0  0  0  0  0  0  0  0  0
   10.8992    2.4338    3.1632 H   0  0  0  0  0  0  0  0  0  0  0  0
   11.8671   -1.8269    2.5171 H   0  0  0  0  0  0  0  0  0  0  0  0
    4.2959    0.6504   -2.1938 H   0  0  0  0  0  0  0  0  0  0  0  0
    1.7909    0.8201   -2.0918 H   0  0  0  0  0  0  0  0  0  0  0  0
  1  2  1  0
  2  3  2  0
  2 22  1  0
  3  4  1  0
  3 23  1  0
  4  5  2  0
  4 24  1  0
  5  6  1  0
  5 21  1  0
  6  7  2  0
  6  8  1  0
  8  9  1  0
  8 25  1  0
  9 10  1  0
  9 26  1  0
  9 27  1  0
 10 11  2  0
 10 12  1  0
 12 13  1  0
 13 14  1  1
 13 15  1  0
 13 19  1  0
 15 16  1  6
 15 17  1  0
 15 20  1  0
 17 18  1  0
 17 28  1  0
 17 29  1  0
 18 19  1  0
 18 30  1  0
 18 31  1  0
 19 32  1  0
 19 33  1  0
 20 34  1  0
 21 22  2  0
 21 35  1  0
 22 36  1  0
M  END

