rmsd193.gzmat
 OpenBabel08211713373D

 36 37  0  0  1  0  0  0  0  0999 V2000
    0.0000    0.0000    0.0000 Br  0  0  0  0  0  0  0  0  0  0  0  0
    1.8982    0.0000    0.0000 C   0  0  0  0  0  0  0  0  0  0  0  0
    2.5685    0.0000    1.2183 C   0  0  0  0  0  0  0  0  0  0  0  0
    3.9624    0.0051    1.2156 C   0  0  0  0  0  0  0  0  0  0  0  0
    4.6516    0.0097    0.0033 C   0  0  0  0  0  0  0  0  0  0  0  0
    6.1372    0.0674   -0.0342 C   0  0  0  0  0  0  0  0  0  0  0  0
    6.7583    0.8768   -0.6891 O   0  0  0  0  0  0  0  0  0  0  0  0
    6.7966   -0.8441    0.7801 N   0  0  0  0  0  0  0  0  0  0  0  0
    8.2500   -0.9130    0.7355 C   0  0  0  0  0  0  0  0  0  0  0  0
    8.6780   -2.2168    0.0890 C   0  0  0  0  0  0  0  0  0  0  0  0
    8.0162   -3.2255    0.0328 O   0  0  0  0  0  0  0  0  0  0  0  0
    9.9213   -2.0998   -0.4073 O   0  0  0  0  0  0  0  0  0  0  0  0
   10.5128   -3.2664   -1.0024 C   0  0  1  0  0  0  0  0  0  0  0  0
   10.5218   -4.0703   -0.2397 H   0  0  0  0  0  0  0  0  0  0  0  0
    9.7441   -3.6831   -2.2783 C   0  0  1  0  0  0  0  0  0  0  0  0
    9.1395   -2.8479   -2.6886 H   0  0  0  0  0  0  0  0  0  0  0  0
   10.8310   -4.1646   -3.2470 C   0  0  0  0  0  0  0  0  0  0  0  0
   12.0813   -3.3392   -2.8982 C   0  0  0  0  0  0  0  0  0  0  0  0
   11.9077   -2.8262   -1.4537 C   0  0  0  0  0  0  0  0  0  0  0  0
    8.8925   -4.7683   -2.0089 O   0  0  0  0  0  0  0  0  0  0  0  0
    3.9643    0.0146   -1.2109 C   0  0  0  0  0  0  0  0  0  0  0  0
    2.5705    0.0055   -1.2168 C   0  0  0  0  0  0  0  0  0  0  0  0
    2.0279   -0.0002    2.1652 H   0  0  0  0  0  0  0  0  0  0  0  0
    4.5069    0.0183    2.1607 H   0  0  0  0  0  0  0  0  0  0  0  0
    6.3169   -1.6372    1.1855 H   0  0  0  0  0  0  0  0  0  0  0  0
    8.6682   -0.8567    1.7709 H   0  0  0  0  0  0  0  0  0  0  0  0
    8.6766   -0.0346    0.1771 H   0  0  0  0  0  0  0  0  0  0  0  0
   11.0045   -5.2487   -3.1050 H   0  0  0  0  0  0  0  0  0  0  0  0
   10.5272   -4.0431   -4.2974 H   0  0  0  0  0  0  0  0  0  0  0  0
   12.9961   -3.9443   -2.9997 H   0  0  0  0  0  0  0  0  0  0  0  0
   12.1953   -2.4929   -3.5970 H   0  0  0  0  0  0  0  0  0  0  0  0
   12.6887   -3.2241   -0.7867 H   0  0  0  0  0  0  0  0  0  0  0  0
   12.0029   -1.7246   -1.4074 H   0  0  0  0  0  0  0  0  0  0  0  0
    8.2830   -4.5180   -1.2744 H   0  0  0  0  0  0  0  0  0  0  0  0
    4.5198    0.0357   -2.1522 H   0  0  0  0  0  0  0  0  0  0  0  0
    2.0319    0.0082   -2.1654 H   0  0  0  0  0  0  0  0  0  0  0  0
  2  1  1  0  0  0  0
  2  3  2  0  0  0  0
  3 23  1  0  0  0  0
  4  3  1  0  0  0  0
  4 24  1  0  0  0  0
  5  4  2  0  0  0  0
  6  5  1  0  0  0  0
  6  8  1  0  0  0  0
  7  6  2  0  0  0  0
  8 25  1  0  0  0  0
  9  8  1  0  0  0  0
  9 26  1  0  0  0  0
 10  9  1  0  0  0  0
 11 10  2  0  0  0  0
 12 10  1  0  0  0  0
 13 15  1  0  0  0  0
 13 12  1  0  0  0  0
 13 14  1  1  0  0  0
 15 16  1  6  0  0  0
 15 20  1  0  0  0  0
 17 28  1  0  0  0  0
 17 18  1  0  0  0  0
 17 15  1  0  0  0  0
 18 19  1  0  0  0  0
 19 33  1  0  0  0  0
 19 13  1  0  0  0  0
 19 32  1  0  0  0  0
 20 34  1  0  0  0  0
 21  5  1  0  0  0  0
 22 21  2  0  0  0  0
 22  2  1  0  0  0  0
 27  9  1  0  0  0  0
 29 17  1  0  0  0  0
 30 18  1  0  0  0  0
 31 18  1  0  0  0  0
 35 21  1  0  0  0  0
 36 22  1  0  0  0  0
M  END
$$$$
