
     RDKit          3D

 36 37  0  0  0  0  0  0  0  0999 V2000
    0.0759    0.0689    0.0178 Br  0  0  0  0  0  0  0  0  0  0  0  0
    1.9707   -0.0092    0.1626 C   0  0  0  0  0  0  0  0  0  0  0  0
    2.5676   -1.1121    0.7789 C   0  0  0  0  0  0  0  0  0  0  0  0
    3.9584   -1.1652    0.8781 C   0  0  0  0  0  0  0  0  0  0  0  0
    4.7550   -0.1300    0.3675 C   0  0  0  0  0  0  0  0  0  0  0  0
    6.2508   -0.1074    0.4699 C   0  0  0  0  0  0  0  0  0  0  0  0
    6.8872    0.9356    0.3965 O   0  0  0  0  0  0  0  0  0  0  0  0
    6.8786   -1.3060    0.6493 N   0  0  0  0  0  0  0  0  0  0  0  0
    8.2927   -1.3297    0.9301 C   0  0  0  0  0  0  0  0  0  0  0  0
    8.6902   -0.5002    2.1492 C   0  0  0  0  0  0  0  0  0  0  0  0
    9.8020   -0.0440    2.2945 O   0  0  0  0  0  0  0  0  0  0  0  0
    7.6892   -0.3659    3.0123 O   0  0  0  0  0  0  0  0  0  0  0  0
    7.8821    0.5355    4.1306 C   0  0  1  0  0  0  0  0  0  0  0  0
    8.7147    0.1523    4.7391 H   0  0  0  0  0  0  0  0  0  0  0  0
    8.2159    1.9803    3.6533 C   0  0  1  0  0  0  0  0  0  0  0  0
    7.9247    2.0355    2.5858 H   0  0  0  0  0  0  0  0  0  0  0  0
    7.2642    2.8715    4.4536 C   0  0  0  0  0  0  0  0  0  0  0  0
    5.9965    2.0190    4.5623 C   0  0  0  0  0  0  0  0  0  0  0  0
    6.5559    0.6252    4.8992 C   0  0  0  0  0  0  0  0  0  0  0  0
    9.5546    2.3437    3.8455 O   0  0  0  0  0  0  0  0  0  0  0  0
    4.1323    0.9772   -0.2268 C   0  0  0  0  0  0  0  0  0  0  0  0
    2.7454    1.0411   -0.3404 C   0  0  0  0  0  0  0  0  0  0  0  0
    1.9504   -1.9146    1.1847 H   0  0  0  0  0  0  0  0  0  0  0  0
    4.4099   -2.0167    1.3926 H   0  0  0  0  0  0  0  0  0  0  0  0
    6.3421   -2.1587    0.7177 H   0  0  0  0  0  0  0  0  0  0  0  0
    8.8818   -0.9314    0.0902 H   0  0  0  0  0  0  0  0  0  0  0  0
    8.6102   -2.3697    1.0989 H   0  0  0  0  0  0  0  0  0  0  0  0
    7.7051    3.0443    5.4505 H   0  0  0  0  0  0  0  0  0  0  0  0
    7.1113    3.8513    3.9783 H   0  0  0  0  0  0  0  0  0  0  0  0
    5.2769    2.3876    5.3084 H   0  0  0  0  0  0  0  0  0  0  0  0
    5.4801    1.9918    3.5875 H   0  0  0  0  0  0  0  0  0  0  0  0
    6.7590    0.5563    5.9793 H   0  0  0  0  0  0  0  0  0  0  0  0
    5.8858   -0.2052    4.6339 H   0  0  0  0  0  0  0  0  0  0  0  0
   10.0731    1.7178    3.3139 H   0  0  0  0  0  0  0  0  0  0  0  0
    4.7625    1.7887   -0.5943 H   0  0  0  0  0  0  0  0  0  0  0  0
    2.2643    1.8995   -0.8111 H   0  0  0  0  0  0  0  0  0  0  0  0
  1  2  1  0
  2  3  2  0
  2 22  1  0
  3  4  1  0
  3 23  1  0
  4  5  2  0
  4 24  1  0
  5  6  1  0
  5 21  1  0
  6  7  2  0
  6  8  1  0
  8  9  1  0
  8 25  1  0
  9 10  1  0
  9 26  1  0
  9 27  1  0
 10 11  2  0
 10 12  1  0
 12 13  1  0
 13 14  1  1
 13 15  1  0
 13 19  1  0
 15 16  1  6
 15 17  1  0
 15 20  1  0
 17 18  1  0
 17 28  1  0
 17 29  1  0
 18 19  1  0
 18 30  1  0
 18 31  1  0
 19 32  1  0
 19 33  1  0
 20 34  1  0
 21 22  2  0
 21 35  1  0
 22 36  1  0
M  END

