
     RDKit          3D

 36 37  0  0  0  0  0  0  0  0999 V2000
    0.1128   -0.0825    0.0684 Br  0  0  0  0  0  0  0  0  0  0  0  0
    2.0120   -0.1891    0.0558 C   0  0  0  0  0  0  0  0  0  0  0  0
    2.7349    0.3040    1.1455 C   0  0  0  0  0  0  0  0  0  0  0  0
    4.1274    0.2176    1.1326 C   0  0  0  0  0  0  0  0  0  0  0  0
    4.7998   -0.3566    0.0437 C   0  0  0  0  0  0  0  0  0  0  0  0
    6.2918   -0.4784   -0.0339 C   0  0  0  0  0  0  0  0  0  0  0  0
    6.8784   -0.6420   -1.0917 O   0  0  0  0  0  0  0  0  0  0  0  0
    6.9721   -0.3976    1.1581 N   0  0  0  0  0  0  0  0  0  0  0  0
    8.3839   -0.6853    1.1523 C   0  0  0  0  0  0  0  0  0  0  0  0
    8.7494   -2.1235    0.7960 C   0  0  0  0  0  0  0  0  0  0  0  0
    9.8710   -2.4493    0.4739 O   0  0  0  0  0  0  0  0  0  0  0  0
    7.7191   -2.9555    0.9161 O   0  0  0  0  0  0  0  0  0  0  0  0
    7.8963   -4.3209    0.4632 C   0  0  1  0  0  0  0  0  0  0  0  0
    8.2791   -4.2763   -0.5672 H   0  0  0  0  0  0  0  0  0  0  0  0
    8.9003   -5.1203    1.3352 C   0  0  1  0  0  0  0  0  0  0  0  0
    8.9088   -4.6261    2.3323 H   0  0  0  0  0  0  0  0  0  0  0  0
    8.2396   -6.4907    1.4913 C   0  0  0  0  0  0  0  0  0  0  0  0
    6.7524   -6.1503    1.6259 C   0  0  0  0  0  0  0  0  0  0  0  0
    6.5454   -5.0502    0.5656 C   0  0  0  0  0  0  0  0  0  0  0  0
   10.1828   -5.2196    0.7927 O   0  0  0  0  0  0  0  0  0  0  0  0
    4.0549   -0.8257   -1.0479 C   0  0  0  0  0  0  0  0  0  0  0  0
    2.6637   -0.7526   -1.0462 C   0  0  0  0  0  0  0  0  0  0  0  0
    2.2136    0.7582    1.9890 H   0  0  0  0  0  0  0  0  0  0  0  0
    4.6883    0.6331    1.9726 H   0  0  0  0  0  0  0  0  0  0  0  0
    6.4577   -0.6083    2.0044 H   0  0  0  0  0  0  0  0  0  0  0  0
    8.8118   -0.4631    2.1420 H   0  0  0  0  0  0  0  0  0  0  0  0
    8.8993   -0.0501    0.4192 H   0  0  0  0  0  0  0  0  0  0  0  0
    8.4288   -7.0677    0.5700 H   0  0  0  0  0  0  0  0  0  0  0  0
    8.6530   -7.0625    2.3349 H   0  0  0  0  0  0  0  0  0  0  0  0
    6.0890   -7.0156    1.4814 H   0  0  0  0  0  0  0  0  0  0  0  0
    6.5498   -5.7503    2.6342 H   0  0  0  0  0  0  0  0  0  0  0  0
    6.3028   -5.5031   -0.4077 H   0  0  0  0  0  0  0  0  0  0  0  0
    5.7369   -4.3454    0.8065 H   0  0  0  0  0  0  0  0  0  0  0  0
   10.4603   -4.3075    0.5974 H   0  0  0  0  0  0  0  0  0  0  0  0
    4.5935   -1.2482   -1.8978 H   0  0  0  0  0  0  0  0  0  0  0  0
    2.0851   -1.1257   -1.8922 H   0  0  0  0  0  0  0  0  0  0  0  0
  1  2  1  0
  2  3  2  0
  2 22  1  0
  3  4  1  0
  3 23  1  0
  4  5  2  0
  4 24  1  0
  5  6  1  0
  5 21  1  0
  6  7  2  0
  6  8  1  0
  8  9  1  0
  8 25  1  0
  9 10  1  0
  9 26  1  0
  9 27  1  0
 10 11  2  0
 10 12  1  0
 12 13  1  0
 13 14  1  6
 13 15  1  0
 13 19  1  0
 15 16  1  1
 15 17  1  0
 15 20  1  0
 17 18  1  0
 17 28  1  0
 17 29  1  0
 18 19  1  0
 18 30  1  0
 18 31  1  0
 19 32  1  0
 19 33  1  0
 20 34  1  0
 21 22  2  0
 21 35  1  0
 22 36  1  0
M  END

