36
rmsd177.gzmat
Br         0.00000        0.00000        0.00000
C          1.89840        0.00000        0.00000
C          2.56930        0.00000        1.21780
C          3.96320       -0.00260        1.21270
C          4.65140       -0.01710       -0.00130
C          6.13780        0.00150        0.04050
O          6.77950        0.74100        0.75600
N          6.77330       -0.93950       -0.75810
C          8.22050       -0.89320       -0.90260
C          8.56070       -0.39900       -2.29720
O          7.83810       -0.47470       -3.26300
O          9.79280        0.13520       -2.31890
C         10.27420        0.63040       -3.58040
H         10.24420       -0.20560       -4.30720
C          9.42890        1.83880       -4.04870
H          8.86260        2.29700       -3.21100
C         10.44060        2.80130       -4.68180
C         11.75110        2.57250       -3.90960
C         11.68320        1.15710       -3.29840
O          8.52030        1.44620       -5.04730
C          3.96360       -0.00010       -1.21430
C          2.56950        0.00640       -1.21770
H          2.03030        0.00800        2.16580
H          4.51940        0.01810        2.15360
H          6.26830       -1.49180       -1.43770
H          8.65900       -1.90930       -0.74710
H          8.68120       -0.22840       -0.12110
H         10.55340        2.57130       -5.75880
H         10.10080        3.84680       -4.63080
H         12.62620        2.68120       -4.56990
H         11.86980        3.33110       -3.11620
H         12.45120        0.49530       -3.73040
H         11.88200        1.18030       -2.21000
H          7.96050        0.71410       -4.69660
H          4.50610        0.02270       -2.16200
H          2.03070        0.01960       -2.16620
