36
rmsd186.gzmat
Br         0.00000        0.00000        0.00000
C          1.89790        0.00000        0.00000
C          2.56930        0.00000        1.21770
C          3.96340       -0.00620        1.21400
C          4.65040       -0.01430        0.00080
C          6.13760        0.00160       -0.03860
O          6.78560        0.82350       -0.64930
N          6.76140       -1.05430        0.61490
C          8.20960       -1.03570        0.74880
C          8.67730       -0.35260        2.02150
O          9.79900        0.02610        2.24210
O          7.66490       -0.23310        2.90440
C          7.94930        0.42160        4.15010
H          8.79920       -0.10290        4.63060
C          8.25120        1.92130        3.91400
H          8.03110        2.22870        2.87010
C          7.41150        2.67960        4.95010
C          6.19940        1.77930        5.23410
C          6.64050        0.33240        4.94200
O          9.60270        2.19490        4.19820
C          3.96280        0.00410       -1.21280
C          2.56870        0.00570       -1.21760
H          2.02840        0.00780        2.16440
H          4.50830        0.00940        2.15890
H          6.25230       -1.65310        1.24620
H          8.67170       -0.49850       -0.12820
H          8.60820       -2.07970        0.72710
H          8.01360        2.85030        5.86410
H          7.11790        3.67730        4.58970
H          5.85330        1.89110        6.27420
H          5.34630        2.06330        4.59310
H          6.78880       -0.23540        5.87630
H          5.86960       -0.21690        4.37260
H         10.17820        1.67840        3.58550
H          4.51820        0.02610       -2.15390
H          2.02970        0.01700       -2.16580
