
     RDKit          3D

 36 37  0  0  0  0  0  0  0  0999 V2000
   -0.2415   -0.0649    0.8098 Br  0  0  0  0  0  0  0  0  0  0  0  0
    1.6344    0.0468    0.5104 C   0  0  0  0  0  0  0  0  0  0  0  0
    2.4361   -1.0722    0.7506 C   0  0  0  0  0  0  0  0  0  0  0  0
    3.8105   -0.9852    0.5254 C   0  0  0  0  0  0  0  0  0  0  0  0
    4.3877    0.2065    0.0625 C   0  0  0  0  0  0  0  0  0  0  0  0
    5.8584    0.3753   -0.1952 C   0  0  0  0  0  0  0  0  0  0  0  0
    6.3740    1.4779   -0.3138 O   0  0  0  0  0  0  0  0  0  0  0  0
    6.5903   -0.7712   -0.2939 N   0  0  0  0  0  0  0  0  0  0  0  0
    7.9973   -0.7209   -0.5819 C   0  0  0  0  0  0  0  0  0  0  0  0
    8.4977   -2.1080   -0.9128 C   0  0  0  0  0  0  0  0  0  0  0  0
    7.7835   -3.0922   -0.9219 O   0  0  0  0  0  0  0  0  0  0  0  0
    9.7943   -2.1114   -1.1877 O   0  0  0  0  0  0  0  0  0  0  0  0
   10.4243   -3.3848   -1.4536 C   0  0  1  0  0  0  0  0  0  0  0  0
   10.2167   -4.0546   -0.6036 H   0  0  0  0  0  0  0  0  0  0  0  0
    9.9127   -4.1000   -2.7355 C   0  0  1  0  0  0  0  0  0  0  0  0
    9.4447   -3.3363   -3.3898 H   0  0  0  0  0  0  0  0  0  0  0  0
   11.1896   -4.6628   -3.4001 C   0  0  0  0  0  0  0  0  0  0  0  0
   12.3213   -4.4757   -2.3723 C   0  0  0  0  0  0  0  0  0  0  0  0
   11.9215   -3.1887   -1.6412 C   0  0  0  0  0  0  0  0  0  0  0  0
    9.0179   -5.1425   -2.4461 O   0  0  0  0  0  0  0  0  0  0  0  0
    3.5654    1.3212   -0.1545 C   0  0  0  0  0  0  0  0  0  0  0  0
    2.1908    1.2483    0.0604 C   0  0  0  0  0  0  0  0  0  0  0  0
    1.9908   -1.9981    1.1165 H   0  0  0  0  0  0  0  0  0  0  0  0
    4.4294   -1.8581    0.7443 H   0  0  0  0  0  0  0  0  0  0  0  0
    6.1533   -1.6836   -0.3667 H   0  0  0  0  0  0  0  0  0  0  0  0
    8.5853   -0.3259    0.2660 H   0  0  0  0  0  0  0  0  0  0  0  0
    8.2173   -0.0452   -1.4274 H   0  0  0  0  0  0  0  0  0  0  0  0
   11.0242   -5.7101   -3.6874 H   0  0  0  0  0  0  0  0  0  0  0  0
   11.4169   -4.0948   -4.3154 H   0  0  0  0  0  0  0  0  0  0  0  0
   12.3318   -5.3187   -1.6611 H   0  0  0  0  0  0  0  0  0  0  0  0
   13.3208   -4.4203   -2.8278 H   0  0  0  0  0  0  0  0  0  0  0  0
   12.4547   -3.0176   -0.6943 H   0  0  0  0  0  0  0  0  0  0  0  0
   12.0870   -2.3090   -2.2863 H   0  0  0  0  0  0  0  0  0  0  0  0
    8.3042   -4.7436   -1.9206 H   0  0  0  0  0  0  0  0  0  0  0  0
    4.0328    2.2469   -0.4942 H   0  0  0  0  0  0  0  0  0  0  0  0
    1.5524    2.1150   -0.1161 H   0  0  0  0  0  0  0  0  0  0  0  0
  1  2  1  0
  2  3  2  0
  2 22  1  0
  3  4  1  0
  3 23  1  0
  4  5  2  0
  4 24  1  0
  5  6  1  0
  5 21  1  0
  6  7  2  0
  6  8  1  0
  8  9  1  0
  8 25  1  0
  9 10  1  0
  9 26  1  0
  9 27  1  0
 10 11  2  0
 10 12  1  0
 12 13  1  0
 13 14  1  1
 13 15  1  0
 13 19  1  0
 15 16  1  6
 15 17  1  0
 15 20  1  0
 17 18  1  0
 17 28  1  0
 17 29  1  0
 18 19  1  0
 18 30  1  0
 18 31  1  0
 19 32  1  0
 19 33  1  0
 20 34  1  0
 21 22  2  0
 21 35  1  0
 22 36  1  0
M  END

