rmsd191.gzmat
 OpenBabel08211713373D

 36 37  0  0  1  0  0  0  0  0999 V2000
    0.0000    0.0000    0.0000 Br  0  0  0  0  0  0  0  0  0  0  0  0
    1.8984    0.0000    0.0000 C   0  0  0  0  0  0  0  0  0  0  0  0
    2.5704    0.0000    1.2173 C   0  0  0  0  0  0  0  0  0  0  0  0
    3.9646   -0.0034    1.2137 C   0  0  0  0  0  0  0  0  0  0  0  0
    4.6522   -0.0093    0.0004 C   0  0  0  0  0  0  0  0  0  0  0  0
    6.1387    0.0221   -0.0394 C   0  0  0  0  0  0  0  0  0  0  0  0
    6.7758    0.8038   -0.7128 O   0  0  0  0  0  0  0  0  0  0  0  0
    6.7789   -0.9608    0.7022 N   0  0  0  0  0  0  0  0  0  0  0  0
    8.2266   -0.9187    0.8453 C   0  0  0  0  0  0  0  0  0  0  0  0
    8.5800   -0.5868    2.2831 C   0  0  0  0  0  0  0  0  0  0  0  0
    7.8242   -0.6393    3.2237 O   0  0  0  0  0  0  0  0  0  0  0  0
    9.8773   -0.2483    2.3760 O   0  0  0  0  0  0  0  0  0  0  0  0
   10.3601    0.1969    3.6540 C   0  0  1  0  0  0  0  0  0  0  0  0
    9.7297    1.0497    3.9785 H   0  0  0  0  0  0  0  0  0  0  0  0
   10.3537   -0.9548    4.6846 C   0  0  1  0  0  0  0  0  0  0  0  0
   10.3515   -1.9501    4.1954 H   0  0  0  0  0  0  0  0  0  0  0  0
   11.5995   -0.7132    5.5465 C   0  0  0  0  0  0  0  0  0  0  0  0
   12.6052    0.0157    4.6373 C   0  0  0  0  0  0  0  0  0  0  0  0
   11.8272    0.5663    3.4247 C   0  0  0  0  0  0  0  0  0  0  0  0
    9.2285   -0.8643    5.5231 O   0  0  0  0  0  0  0  0  0  0  0  0
    3.9631    0.0066   -1.2129 C   0  0  0  0  0  0  0  0  0  0  0  0
    2.5692    0.0057   -1.2176 C   0  0  0  0  0  0  0  0  0  0  0  0
    2.0311    0.0057    2.1655 H   0  0  0  0  0  0  0  0  0  0  0  0
    4.5086    0.0131    2.1606 H   0  0  0  0  0  0  0  0  0  0  0  0
    6.2764   -1.5462    1.3555 H   0  0  0  0  0  0  0  0  0  0  0  0
    8.6781   -0.1632    0.1446 H   0  0  0  0  0  0  0  0  0  0  0  0
    8.6719   -1.9051    0.5656 H   0  0  0  0  0  0  0  0  0  0  0  0
   11.3271   -0.0998    6.4276 H   0  0  0  0  0  0  0  0  0  0  0  0
   12.0060   -1.6527    5.9498 H   0  0  0  0  0  0  0  0  0  0  0  0
   13.1119    0.8278    5.1847 H   0  0  0  0  0  0  0  0  0  0  0  0
   13.4026   -0.6713    4.3068 H   0  0  0  0  0  0  0  0  0  0  0  0
   11.9573    1.6552    3.3172 H   0  0  0  0  0  0  0  0  0  0  0  0
   12.1954    0.1241    2.4791 H   0  0  0  0  0  0  0  0  0  0  0  0
    8.4175   -0.8173    4.9635 H   0  0  0  0  0  0  0  0  0  0  0  0
    4.5170    0.0292   -2.1547 H   0  0  0  0  0  0  0  0  0  0  0  0
    2.0308    0.0154   -2.1658 H   0  0  0  0  0  0  0  0  0  0  0  0
  1  2  1  0  0  0  0
  2  3  2  0  0  0  0
  3 23  1  0  0  0  0
  4  3  1  0  0  0  0
  4 24  1  0  0  0  0
  5  4  2  0  0  0  0
  6  5  1  0  0  0  0
  6  8  1  0  0  0  0
  7  6  2  0  0  0  0
  8  9  1  0  0  0  0
  8 25  1  0  0  0  0
  9 10  1  0  0  0  0
 10 12  1  0  0  0  0
 10 11  2  0  0  0  0
 12 13  1  0  0  0  0
 13 14  1  1  0  0  0
 13 15  1  0  0  0  0
 15 16  1  6  0  0  0
 15 20  1  0  0  0  0
 15 17  1  0  0  0  0
 17 29  1  0  0  0  0
 17 28  1  0  0  0  0
 18 30  1  0  0  0  0
 18 17  1  0  0  0  0
 19 13  1  0  0  0  0
 19 18  1  0  0  0  0
 21  5  1  0  0  0  0
 22 21  2  0  0  0  0
 22  2  1  0  0  0  0
 26  9  1  0  0  0  0
 27  9  1  0  0  0  0
 31 18  1  0  0  0  0
 32 19  1  0  0  0  0
 33 19  1  0  0  0  0
 34 20  1  0  0  0  0
 35 21  1  0  0  0  0
 36 22  1  0  0  0  0
M  END
$$$$
