36
rmsd216.gzmat
Br         0.00000        0.00000        0.00000
C          1.89820        0.00000        0.00000
C          2.57030        0.00000        1.21700
C          3.96450        0.00510        1.21240
C          4.65180        0.00780       -0.00090
C          6.13840       -0.01330       -0.05010
O          6.77590       -0.79620       -0.72230
N          6.77850        0.90930        0.76540
C          8.22810        1.04650        0.67890
C          8.58510        2.49020        0.39190
O          7.81220        3.41820        0.37950
O          9.90900        2.60880        0.19160
C         10.41880        3.91110       -0.14270
H          9.92290        4.23620       -1.07940
C         10.19180        4.91270        1.01420
H          9.99030        4.39680        1.97520
C         11.46640        5.76480        1.05110
C         12.59010        4.83130        0.57140
C         11.93250        3.72430       -0.27790
O          9.11390        5.76660        0.72210
C          3.96220       -0.00800       -1.21400
C          2.56860       -0.00510       -1.21790
H          2.03090       -0.00670        2.16470
H          4.50950       -0.00390        2.15740
H          6.27710        1.68330        1.18440
H          8.65320        0.36870       -0.11190
H          8.70090        0.72310        1.64020
H         11.34950        6.64060        0.38310
H         11.65830        6.17470        2.05370
H         13.34560        5.38460       -0.00920
H         13.12580        4.39410        1.43150
H         12.24830        3.78670       -1.33250
H         12.23490        2.71800        0.06950
H          8.30640        5.21840        0.57530
H          4.51530       -0.03210       -2.15640
H          2.02920       -0.01150       -2.16580
