rmsd177.gzmat
 OpenBabel08211713373D

 36 37  0  0  1  0  0  0  0  0999 V2000
    0.0000    0.0000    0.0000 Br  0  0  0  0  0  0  0  0  0  0  0  0
    1.8984    0.0000    0.0000 C   0  0  0  0  0  0  0  0  0  0  0  0
    2.5693    0.0000    1.2178 C   0  0  0  0  0  0  0  0  0  0  0  0
    3.9632   -0.0026    1.2127 C   0  0  0  0  0  0  0  0  0  0  0  0
    4.6514   -0.0171   -0.0013 C   0  0  0  0  0  0  0  0  0  0  0  0
    6.1378    0.0015    0.0405 C   0  0  0  0  0  0  0  0  0  0  0  0
    6.7795    0.7410    0.7560 O   0  0  0  0  0  0  0  0  0  0  0  0
    6.7733   -0.9395   -0.7581 N   0  0  0  0  0  0  0  0  0  0  0  0
    8.2205   -0.8932   -0.9026 C   0  0  0  0  0  0  0  0  0  0  0  0
    8.5607   -0.3990   -2.2972 C   0  0  0  0  0  0  0  0  0  0  0  0
    7.8381   -0.4747   -3.2630 O   0  0  0  0  0  0  0  0  0  0  0  0
    9.7928    0.1352   -2.3189 O   0  0  0  0  0  0  0  0  0  0  0  0
   10.2742    0.6304   -3.5804 C   0  0  1  0  0  0  0  0  0  0  0  0
   10.2442   -0.2056   -4.3072 H   0  0  0  0  0  0  0  0  0  0  0  0
    9.4289    1.8388   -4.0487 C   0  0  1  0  0  0  0  0  0  0  0  0
    8.8626    2.2970   -3.2110 H   0  0  0  0  0  0  0  0  0  0  0  0
   10.4406    2.8013   -4.6818 C   0  0  0  0  0  0  0  0  0  0  0  0
   11.7511    2.5725   -3.9096 C   0  0  0  0  0  0  0  0  0  0  0  0
   11.6832    1.1571   -3.2984 C   0  0  0  0  0  0  0  0  0  0  0  0
    8.5203    1.4462   -5.0473 O   0  0  0  0  0  0  0  0  0  0  0  0
    3.9636   -0.0001   -1.2143 C   0  0  0  0  0  0  0  0  0  0  0  0
    2.5695    0.0064   -1.2177 C   0  0  0  0  0  0  0  0  0  0  0  0
    2.0303    0.0080    2.1658 H   0  0  0  0  0  0  0  0  0  0  0  0
    4.5194    0.0181    2.1536 H   0  0  0  0  0  0  0  0  0  0  0  0
    6.2683   -1.4918   -1.4377 H   0  0  0  0  0  0  0  0  0  0  0  0
    8.6590   -1.9093   -0.7471 H   0  0  0  0  0  0  0  0  0  0  0  0
    8.6812   -0.2284   -0.1211 H   0  0  0  0  0  0  0  0  0  0  0  0
   10.5534    2.5713   -5.7588 H   0  0  0  0  0  0  0  0  0  0  0  0
   10.1008    3.8468   -4.6308 H   0  0  0  0  0  0  0  0  0  0  0  0
   12.6262    2.6812   -4.5699 H   0  0  0  0  0  0  0  0  0  0  0  0
   11.8698    3.3311   -3.1162 H   0  0  0  0  0  0  0  0  0  0  0  0
   12.4512    0.4953   -3.7304 H   0  0  0  0  0  0  0  0  0  0  0  0
   11.8820    1.1803   -2.2100 H   0  0  0  0  0  0  0  0  0  0  0  0
    7.9605    0.7141   -4.6966 H   0  0  0  0  0  0  0  0  0  0  0  0
    4.5061    0.0227   -2.1620 H   0  0  0  0  0  0  0  0  0  0  0  0
    2.0307    0.0196   -2.1662 H   0  0  0  0  0  0  0  0  0  0  0  0
  2  1  1  0  0  0  0
  2  3  2  0  0  0  0
  3 23  1  0  0  0  0
  4  3  1  0  0  0  0
  4 24  1  0  0  0  0
  5  6  1  0  0  0  0
  5  4  2  0  0  0  0
  6  7  2  0  0  0  0
  8  6  1  0  0  0  0
  9  8  1  0  0  0  0
  9 26  1  0  0  0  0
  9 27  1  0  0  0  0
 10  9  1  0  0  0  0
 11 10  2  0  0  0  0
 12 10  1  0  0  0  0
 13 15  1  0  0  0  0
 13 19  1  0  0  0  0
 13 12  1  0  0  0  0
 13 14  1  6  0  0  0
 15 16  1  1  0  0  0
 17 29  1  0  0  0  0
 17 15  1  0  0  0  0
 17 18  1  0  0  0  0
 18 19  1  0  0  0  0
 18 31  1  0  0  0  0
 19 33  1  0  0  0  0
 20 34  1  0  0  0  0
 20 15  1  0  0  0  0
 21  5  1  0  0  0  0
 22 21  2  0  0  0  0
 22  2  1  0  0  0  0
 25  8  1  0  0  0  0
 28 17  1  0  0  0  0
 30 18  1  0  0  0  0
 32 19  1  0  0  0  0
 35 21  1  0  0  0  0
 36 22  1  0  0  0  0
M  END
$$$$
