39
rmsd164.gzmat
Br         0.00000        0.00000        0.00000
C          1.90100        0.00000        0.00000
C          2.57200        0.00000        1.21660
C          3.96660        0.00360        1.21050
C          4.65400        0.01690       -0.00190
C          3.96300       -0.00250       -1.21460
C          2.56930       -0.00620       -1.21870
C          6.14360        0.06370       -0.06750
O          6.78410       -0.56470       -0.88610
N          6.76260        0.86730        0.87470
C          8.18270        1.19530        0.70790
C          8.40690        2.33620       -0.30540
C          7.97180        3.71460        0.21710
C          6.48570        3.81020        0.38200
C          5.92730        3.95910        1.65730
C          4.55100        3.96780        1.82850
C          3.72740        3.84000        0.69880
C          4.26340        3.73710       -0.58440
C          5.64840        3.72670       -0.73140
O          2.40520        3.82010        1.01020
C          1.48890        3.66080       -0.06420
H          2.03490        0.00230        2.16560
H          4.51080       -0.00950        2.15640
H          4.52010       -0.02370       -2.15540
H          2.03040       -0.02250       -2.16540
H          6.21470        1.52950        1.41040
H          8.72310        0.28000        0.36170
H          8.59730        1.46480        1.70350
H          7.87160        2.09600       -1.24610
H          9.47940        2.36780       -0.57650
H          8.31910        4.49970       -0.48840
H          8.49440        3.93560        1.16920
H          6.57730        4.06580        2.52530
H          4.10110        4.07420        2.81280
H          3.62580        3.66470       -1.45880
H          6.08020        3.64290       -1.72890
H          0.52330        3.62110        0.45850
H          1.66990        2.72380       -0.60050
H          1.52730        4.52210       -0.73730
