
     RDKit          3D

 39 40  0  0  0  0  0  0  0  0999 V2000
   -0.0212   -0.1019    0.1072 Br  0  0  0  0  0  0  0  0  0  0  0  0
    1.8818   -0.1089    0.0126 C   0  0  0  0  0  0  0  0  0  0  0  0
    2.6247   -0.2475    1.1859 C   0  0  0  0  0  0  0  0  0  0  0  0
    4.0179   -0.2831    1.1066 C   0  0  0  0  0  0  0  0  0  0  0  0
    4.6681   -0.1737   -0.1290 C   0  0  0  0  0  0  0  0  0  0  0  0
    3.9007    0.0019   -1.2882 C   0  0  0  0  0  0  0  0  0  0  0  0
    2.5097    0.0241   -1.2288 C   0  0  0  0  0  0  0  0  0  0  0  0
    6.1594   -0.2666   -0.2937 C   0  0  0  0  0  0  0  0  0  0  0  0
    6.7288    0.1826   -1.2783 O   0  0  0  0  0  0  0  0  0  0  0  0
    6.8216   -0.9128    0.7130 N   0  0  0  0  0  0  0  0  0  0  0  0
    8.2163   -1.2962    0.5548 C   0  0  0  0  0  0  0  0  0  0  0  0
    8.4538   -2.4289   -0.4531 C   0  0  0  0  0  0  0  0  0  0  0  0
    7.7688   -3.7652   -0.1151 C   0  0  0  0  0  0  0  0  0  0  0  0
    6.2558   -3.7345   -0.1778 C   0  0  0  0  0  0  0  0  0  0  0  0
    5.5923   -3.4346   -1.3817 C   0  0  0  0  0  0  0  0  0  0  0  0
    4.2083   -3.3413   -1.4427 C   0  0  0  0  0  0  0  0  0  0  0  0
    3.4297   -3.5440   -0.2908 C   0  0  0  0  0  0  0  0  0  0  0  0
    4.0676   -3.8665    0.9134 C   0  0  0  0  0  0  0  0  0  0  0  0
    5.4659   -3.9595    0.9536 C   0  0  0  0  0  0  0  0  0  0  0  0
    2.0897   -3.4017   -0.4412 O   0  0  0  0  0  0  0  0  0  0  0  0
    1.2528   -3.6162    0.6712 C   0  0  0  0  0  0  0  0  0  0  0  0
    2.1209   -0.3227    2.1504 H   0  0  0  0  0  0  0  0  0  0  0  0
    4.5951   -0.3806    2.0282 H   0  0  0  0  0  0  0  0  0  0  0  0
    4.4236    0.1024   -2.2405 H   0  0  0  0  0  0  0  0  0  0  0  0
    1.9133    0.1348   -2.1351 H   0  0  0  0  0  0  0  0  0  0  0  0
    6.2566   -1.5025    1.3110 H   0  0  0  0  0  0  0  0  0  0  0  0
    8.5969   -1.5820    1.5491 H   0  0  0  0  0  0  0  0  0  0  0  0
    8.7737   -0.4060    0.2290 H   0  0  0  0  0  0  0  0  0  0  0  0
    9.5427   -2.5938   -0.5211 H   0  0  0  0  0  0  0  0  0  0  0  0
    8.1304   -2.0780   -1.4454 H   0  0  0  0  0  0  0  0  0  0  0  0
    8.0846   -4.0985    0.8885 H   0  0  0  0  0  0  0  0  0  0  0  0
    8.1427   -4.5276   -0.8206 H   0  0  0  0  0  0  0  0  0  0  0  0
    6.1754   -3.2532   -2.2882 H   0  0  0  0  0  0  0  0  0  0  0  0
    3.6961   -3.0953   -2.3739 H   0  0  0  0  0  0  0  0  0  0  0  0
    3.4941   -4.0403    1.8233 H   0  0  0  0  0  0  0  0  0  0  0  0
    5.9491   -4.2095    1.9033 H   0  0  0  0  0  0  0  0  0  0  0  0
    0.2258   -3.4373    0.3298 H   0  0  0  0  0  0  0  0  0  0  0  0
    1.4779   -2.9119    1.4910 H   0  0  0  0  0  0  0  0  0  0  0  0
    1.3394   -4.6498    1.0525 H   0  0  0  0  0  0  0  0  0  0  0  0
  1  2  1  0
  2  3  2  0
  2  7  1  0
  3  4  1  0
  3 22  1  0
  4  5  2  0
  4 23  1  0
  5  6  1  0
  5  8  1  0
  6  7  2  0
  6 24  1  0
  7 25  1  0
  8  9  2  0
  8 10  1  0
 10 11  1  0
 10 26  1  0
 11 12  1  0
 11 27  1  0
 11 28  1  0
 12 13  1  0
 12 29  1  0
 12 30  1  0
 13 14  1  0
 13 31  1  0
 13 32  1  0
 14 15  2  0
 14 19  1  0
 15 16  1  0
 15 33  1  0
 16 17  2  0
 16 34  1  0
 17 18  1  0
 17 20  1  0
 18 19  2  0
 18 35  1  0
 19 36  1  0
 20 21  1  0
 21 37  1  0
 21 38  1  0
 21 39  1  0
M  END

