39

Br        -0.06720       -0.02070        0.11210
C          1.83710       -0.08000        0.12380
C          2.52580        0.15420        1.31700
C          3.91690        0.09240        1.31770
C          4.62410       -0.22190        0.14950
C          3.91420       -0.43090       -1.03950
C          2.52030       -0.35780       -1.06110
C          6.11820       -0.34740        0.25740
O          6.74540        0.17690        1.16690
N          6.71420       -1.11030       -0.70810
C          8.10340       -1.52190       -0.57340
C          8.35510       -2.55850        0.52990
C          7.61860       -3.89860        0.35410
C          6.11150       -3.81310        0.47690
C          5.26550       -4.12140       -0.59270
C          3.87370       -3.97910       -0.50340
C          3.29980       -3.52040        0.68880
C          4.13480       -3.23210        1.78140
C          5.51140       -3.37600        1.67200
O          1.97240       -3.32000        0.88010
C          1.08100       -3.61390       -0.17010
H          1.97570        0.37320        2.23280
H          4.48620        0.26920        2.23150
H          4.44470       -0.63760       -1.97100
H          1.97020       -0.51110       -1.99040
H          6.10570       -1.73670       -1.21980
H          8.70020       -0.62300       -0.36120
H          8.42940       -1.91530       -1.55020
H          8.08720       -2.10290        1.49600
H          9.44100       -2.75100        0.56730
H          8.00240       -4.60070        1.11480
H          7.87950       -4.33760       -0.62430
H          5.69830       -4.47820       -1.53250
H          3.25520       -4.22170       -1.36690
H          3.67200       -2.88010        2.70450
H          6.13960       -3.12630        2.53080
H          0.07570       -3.36980        0.19470
H          1.12140       -4.68170       -0.45170
H          1.28900       -2.99960       -1.06350
