rmsd229.gzmat
 OpenBabel08211713403D

 39 40  0  0  0  0  0  0  0  0999 V2000
    0.0000    0.0000    0.0000 Br  0  0  0  0  0  0  0  0  0  0  0  0
    1.9012    0.0000    0.0000 C   0  0  0  0  0  0  0  0  0  0  0  0
    2.5725    0.0000    1.2165 C   0  0  0  0  0  0  0  0  0  0  0  0
    3.9665   -0.0276    1.2081 C   0  0  0  0  0  0  0  0  0  0  0  0
    4.6502   -0.0608   -0.0072 C   0  0  0  0  0  0  0  0  0  0  0  0
    3.9618   -0.0276   -1.2188 C   0  0  0  0  0  0  0  0  0  0  0  0
    2.5676   -0.0013   -1.2197 C   0  0  0  0  0  0  0  0  0  0  0  0
    6.1373   -0.1629    0.0369 C   0  0  0  0  0  0  0  0  0  0  0  0
    6.8386    0.5624    0.7101 O   0  0  0  0  0  0  0  0  0  0  0  0
    6.6733   -1.1572   -0.7682 N   0  0  0  0  0  0  0  0  0  0  0  0
    8.0687   -1.5602   -0.5688 C   0  0  0  0  0  0  0  0  0  0  0  0
    8.2335   -2.5278    0.6207 C   0  0  0  0  0  0  0  0  0  0  0  0
    7.5733   -3.8955    0.3866 C   0  0  0  0  0  0  0  0  0  0  0  0
    6.0817   -3.8415    0.5266 C   0  0  0  0  0  0  0  0  0  0  0  0
    5.2568   -4.1107   -0.5636 C   0  0  0  0  0  0  0  0  0  0  0  0
    3.8690   -4.0290   -0.4469 C   0  0  0  0  0  0  0  0  0  0  0  0
    3.3209   -3.6942    0.7888 C   0  0  0  0  0  0  0  0  0  0  0  0
    4.1337   -3.4396    1.9071 C   0  0  0  0  0  0  0  0  0  0  0  0
    5.5089   -3.5171    1.7646 C   0  0  0  0  0  0  0  0  0  0  0  0
    1.9953   -3.5889    1.0679 O   0  0  0  0  0  0  0  0  0  0  0  0
    1.0897   -3.7370   -0.0164 C   0  0  0  0  0  0  0  0  0  0  0  0
    2.0357    0.0152    2.1654 H   0  0  0  0  0  0  0  0  0  0  0  0
    4.5251   -0.0239    2.1473 H   0  0  0  0  0  0  0  0  0  0  0  0
    4.5085   -0.0183   -2.1627 H   0  0  0  0  0  0  0  0  0  0  0  0
    2.0266    0.0169   -2.1650 H   0  0  0  0  0  0  0  0  0  0  0  0
    6.0626   -1.8650   -1.1568 H   0  0  0  0  0  0  0  0  0  0  0  0
    8.6859   -0.6455   -0.3924 H   0  0  0  0  0  0  0  0  0  0  0  0
    8.4342   -2.0268   -1.5094 H   0  0  0  0  0  0  0  0  0  0  0  0
    7.8229   -2.0529    1.5348 H   0  0  0  0  0  0  0  0  0  0  0  0
    9.3131   -2.6667    0.8194 H   0  0  0  0  0  0  0  0  0  0  0  0
    7.9814   -4.6295    1.1151 H   0  0  0  0  0  0  0  0  0  0  0  0
    7.8672   -4.2869   -0.6074 H   0  0  0  0  0  0  0  0  0  0  0  0
    5.6915   -4.3932   -1.5217 H   0  0  0  0  0  0  0  0  0  0  0  0
    3.2418   -4.2334   -1.3073 H   0  0  0  0  0  0  0  0  0  0  0  0
    3.6724   -3.1924    2.8602 H   0  0  0  0  0  0  0  0  0  0  0  0
    6.1536   -3.3214    2.6219 H   0  0  0  0  0  0  0  0  0  0  0  0
    0.1243   -3.5103    0.4582 H   0  0  0  0  0  0  0  0  0  0  0  0
    1.1027   -4.7647   -0.3916 H   0  0  0  0  0  0  0  0  0  0  0  0
    1.2996   -3.0163   -0.8122 H   0  0  0  0  0  0  0  0  0  0  0  0
  1  2  1  0  0  0  0
  2  3  2  0  0  0  0
  3 22  1  0  0  0  0
  4  3  1  0  0  0  0
  4 23  1  0  0  0  0
  5  8  1  0  0  0  0
  5  4  2  0  0  0  0
  6  5  1  0  0  0  0
  7  6  2  0  0  0  0
  7  2  1  0  0  0  0
  8  9  2  0  0  0  0
 10 11  1  0  0  0  0
 10  8  1  0  0  0  0
 11 27  1  0  0  0  0
 11 12  1  0  0  0  0
 12 30  1  0  0  0  0
 12 29  1  0  0  0  0
 13 14  1  0  0  0  0
 13 12  1  0  0  0  0
 13 31  1  0  0  0  0
 14 19  2  0  0  0  0
 15 16  2  0  0  0  0
 15 14  1  0  0  0  0
 16 17  1  0  0  0  0
 17 20  1  0  0  0  0
 17 18  2  0  0  0  0
 18 35  1  0  0  0  0
 19 18  1  0  0  0  0
 19 36  1  0  0  0  0
 21 37  1  0  0  0  0
 21 20  1  0  0  0  0
 24  6  1  0  0  0  0
 25  7  1  0  0  0  0
 26 10  1  0  0  0  0
 28 11  1  0  0  0  0
 32 13  1  0  0  0  0
 33 15  1  0  0  0  0
 34 16  1  0  0  0  0
 38 21  1  0  0  0  0
 39 21  1  0  0  0  0
M  END
$$$$
