39

Br        -0.07510       -0.02000       -0.01990
C          1.83040        0.03240        0.01990
C          2.50280       -0.28000        1.20550
C          3.89520       -0.22530        1.22810
C          4.61970        0.14550        0.08740
C          3.92340        0.43530       -1.09420
C          2.53000        0.38620       -1.13520
C          6.11710        0.22510        0.22060
O          6.70090       -0.27360        1.17350
N          6.76790        0.90290       -0.76940
C          8.17230        1.25380       -0.62570
C          8.43590        2.41430        0.34380
C          7.88960        3.78270       -0.10370
C          6.38500        3.83350       -0.25820
C          5.54110        3.67290        0.84740
C          4.15160        3.61990        0.71490
C          3.56750        3.72460       -0.55570
C          4.39630        3.90590       -1.67380
C          5.78030        3.96280       -1.51980
O          2.23580        3.64970       -0.79700
C          1.35110        3.54250        0.29780
H          1.94050       -0.56220        2.09680
H          4.45370       -0.46480        2.13450
H          4.45910        0.69950       -2.00720
H          1.99280        0.62870       -2.05200
H          6.20810        1.50720       -1.35730
H          8.56610        1.49260       -1.62750
H          8.69890        0.35960       -0.26370
H          9.52720        2.49860        0.48440
H          8.01810        2.13960        1.32570
H          8.36140        4.06870       -1.05920
H          8.20880        4.53840        0.63450
H          5.97630        3.56440        1.84450
H          3.53710        3.47470        1.60240
H          3.92840        3.99960       -2.65570
H          6.40930        4.10210       -2.40410
H          0.33950        3.47830       -0.12200
H          1.41910        4.42510        0.95870
H          1.54300        2.63280        0.89010
