39
rmsd176.gzmat
Br         0.00000        0.00000        0.00000
C          1.89950        0.00000        0.00000
C          2.56880        0.00000        1.21850
C          3.96280       -0.00210        1.21560
C          4.65180       -0.01390        0.00270
C          3.96610       -0.00220       -1.21060
C          2.57170        0.00300       -1.21670
C          6.14210        0.00140        0.04470
O          6.77410        0.81390        0.68830
N          6.77230       -0.96720       -0.71150
C          8.23120       -1.09920       -0.64140
C          8.64300       -1.99150        0.54510
C         10.16500       -2.17840        0.57890
C         10.64850       -2.96050       -0.60360
C         11.35120       -2.31970       -1.63140
C         11.80610       -3.03630       -2.72770
C         11.54990       -4.41550       -2.78760
C         10.84750       -5.07170       -1.77840
C         10.40170       -4.33050       -0.68510
O         12.05790       -4.99510       -3.90900
C         11.86700       -6.39420       -4.06160
H          2.02850        0.00600        2.16540
H          4.51670        0.01580        2.15740
H          4.51580        0.01540       -2.15290
H          2.03370        0.01180       -2.16460
H          6.26010       -1.71630       -1.14240
H          8.68810       -0.08610       -0.53440
H          8.59910       -1.52690       -1.60100
H          8.13520       -2.97070        0.48330
H          8.30050       -1.52530        1.49060
H         10.45460       -2.69410        1.51890
H         10.66210       -1.18770        0.63420
H         11.54690       -1.24890       -1.57100
H         12.35500       -2.55480       -3.53290
H         10.64820       -6.13610       -1.82690
H          9.85650       -4.83210        0.11390
H         12.37370       -6.59350       -5.01600
H         10.80270       -6.63730       -4.13650
H         12.35000       -6.94720       -3.25000
