rmsd176.gzmat
 OpenBabel08211713403D

 39 40  0  0  0  0  0  0  0  0999 V2000
    0.0000    0.0000    0.0000 Br  0  0  0  0  0  0  0  0  0  0  0  0
    1.8995    0.0000    0.0000 C   0  0  0  0  0  0  0  0  0  0  0  0
    2.5688    0.0000    1.2185 C   0  0  0  0  0  0  0  0  0  0  0  0
    3.9628   -0.0021    1.2156 C   0  0  0  0  0  0  0  0  0  0  0  0
    4.6518   -0.0139    0.0027 C   0  0  0  0  0  0  0  0  0  0  0  0
    3.9661   -0.0022   -1.2106 C   0  0  0  0  0  0  0  0  0  0  0  0
    2.5717    0.0030   -1.2167 C   0  0  0  0  0  0  0  0  0  0  0  0
    6.1421    0.0014    0.0447 C   0  0  0  0  0  0  0  0  0  0  0  0
    6.7741    0.8139    0.6883 O   0  0  0  0  0  0  0  0  0  0  0  0
    6.7723   -0.9672   -0.7115 N   0  0  0  0  0  0  0  0  0  0  0  0
    8.2312   -1.0992   -0.6414 C   0  0  0  0  0  0  0  0  0  0  0  0
    8.6430   -1.9915    0.5451 C   0  0  0  0  0  0  0  0  0  0  0  0
   10.1650   -2.1784    0.5789 C   0  0  0  0  0  0  0  0  0  0  0  0
   10.6485   -2.9605   -0.6036 C   0  0  0  0  0  0  0  0  0  0  0  0
   11.3512   -2.3197   -1.6314 C   0  0  0  0  0  0  0  0  0  0  0  0
   11.8061   -3.0363   -2.7277 C   0  0  0  0  0  0  0  0  0  0  0  0
   11.5499   -4.4155   -2.7876 C   0  0  0  0  0  0  0  0  0  0  0  0
   10.8475   -5.0717   -1.7784 C   0  0  0  0  0  0  0  0  0  0  0  0
   10.4017   -4.3305   -0.6851 C   0  0  0  0  0  0  0  0  0  0  0  0
   12.0579   -4.9951   -3.9090 O   0  0  0  0  0  0  0  0  0  0  0  0
   11.8670   -6.3942   -4.0616 C   0  0  0  0  0  0  0  0  0  0  0  0
    2.0285    0.0060    2.1654 H   0  0  0  0  0  0  0  0  0  0  0  0
    4.5167    0.0158    2.1574 H   0  0  0  0  0  0  0  0  0  0  0  0
    4.5158    0.0154   -2.1529 H   0  0  0  0  0  0  0  0  0  0  0  0
    2.0337    0.0118   -2.1646 H   0  0  0  0  0  0  0  0  0  0  0  0
    6.2601   -1.7163   -1.1424 H   0  0  0  0  0  0  0  0  0  0  0  0
    8.6881   -0.0861   -0.5344 H   0  0  0  0  0  0  0  0  0  0  0  0
    8.5991   -1.5269   -1.6010 H   0  0  0  0  0  0  0  0  0  0  0  0
    8.1352   -2.9707    0.4833 H   0  0  0  0  0  0  0  0  0  0  0  0
    8.3005   -1.5253    1.4906 H   0  0  0  0  0  0  0  0  0  0  0  0
   10.4546   -2.6941    1.5189 H   0  0  0  0  0  0  0  0  0  0  0  0
   10.6621   -1.1877    0.6342 H   0  0  0  0  0  0  0  0  0  0  0  0
   11.5469   -1.2489   -1.5710 H   0  0  0  0  0  0  0  0  0  0  0  0
   12.3550   -2.5548   -3.5329 H   0  0  0  0  0  0  0  0  0  0  0  0
   10.6482   -6.1361   -1.8269 H   0  0  0  0  0  0  0  0  0  0  0  0
    9.8565   -4.8321    0.1139 H   0  0  0  0  0  0  0  0  0  0  0  0
   12.3737   -6.5935   -5.0160 H   0  0  0  0  0  0  0  0  0  0  0  0
   10.8027   -6.6373   -4.1365 H   0  0  0  0  0  0  0  0  0  0  0  0
   12.3500   -6.9472   -3.2500 H   0  0  0  0  0  0  0  0  0  0  0  0
  2  1  1  0  0  0  0
  2  3  2  0  0  0  0
  3 22  1  0  0  0  0
  4  3  1  0  0  0  0
  4 23  1  0  0  0  0
  5  8  1  0  0  0  0
  5  4  2  0  0  0  0
  6  5  1  0  0  0  0
  7  6  2  0  0  0  0
  7  2  1  0  0  0  0
  8  9  2  0  0  0  0
 10 11  1  0  0  0  0
 10  8  1  0  0  0  0
 11 27  1  0  0  0  0
 11 12  1  0  0  0  0
 12 13  1  0  0  0  0
 12 30  1  0  0  0  0
 13 32  1  0  0  0  0
 13 31  1  0  0  0  0
 14 13  1  0  0  0  0
 15 33  1  0  0  0  0
 15 14  2  0  0  0  0
 16 15  1  0  0  0  0
 17 16  2  0  0  0  0
 17 18  1  0  0  0  0
 18 19  2  0  0  0  0
 19 14  1  0  0  0  0
 19 36  1  0  0  0  0
 20 17  1  0  0  0  0
 21 20  1  0  0  0  0
 21 39  1  0  0  0  0
 24  6  1  0  0  0  0
 25  7  1  0  0  0  0
 26 10  1  0  0  0  0
 28 11  1  0  0  0  0
 29 12  1  0  0  0  0
 34 16  1  0  0  0  0
 35 18  1  0  0  0  0
 37 21  1  0  0  0  0
 38 21  1  0  0  0  0
M  END
$$$$
