39
rmsd208.gzmat
Br         0.00000        0.00000        0.00000
C          1.90100        0.00000        0.00000
C          2.56940        0.00000        1.21880
C          3.96270        0.00880        1.21390
C          4.65360        0.02470        0.00110
C          3.96670        0.00290       -1.21140
C          2.57200       -0.00430       -1.21650
C          6.14220        0.08620        0.06850
O          6.78990       -0.54250        0.88120
N          6.75240        0.91200       -0.86160
C          8.15920        1.27880       -0.66480
C          8.33050        2.38390        0.39730
C          7.83110        3.76140       -0.06510
C          6.33950        3.81190       -0.20130
C          5.52450        3.66490        0.92210
C          4.13640        3.66970        0.80300
C          3.57430        3.82780       -0.46340
C          4.37520        4.00150       -1.60370
C          5.75440        3.99870       -1.46000
O          2.24620        3.82160       -0.75040
C          1.34660        3.67340        0.33920
H          2.03140       -0.01620        2.16630
H          4.51990       -0.00380        2.15470
H          4.51200       -0.01370       -2.15630
H          2.03440       -0.00800       -2.16440
H          6.19390        1.57080       -1.39030
H          8.57700        1.60200       -1.64270
H          8.72550        0.36830       -0.34840
H          9.40050        2.45450        0.67130
H          7.80720        2.07780        1.32590
H          8.32740        4.04020       -1.01630
H          8.16110        4.53210        0.66510
H          5.97660        3.53760        1.90590
H          3.51730        3.54970        1.68570
H          3.90520        4.14040       -2.57440
H          6.38570        4.14340       -2.33640
H          0.37100        3.66140       -0.16680
H          1.41700        4.52740        1.01890
H          1.51530        2.72850        0.86430
