39
rmsd248.gzmat
Br         0.00000        0.00000        0.00000
C          1.89930        0.00000        0.00000
C          2.57070        0.00000        1.21720
C          3.96490        0.00240        1.21360
C          4.65400       -0.00210        0.00150
C          3.96390        0.01070       -1.21150
C          2.57010        0.00850       -1.21750
C          6.14400        0.03230       -0.05170
O          6.74990        0.74290       -0.82920
N          6.80560       -0.78050        0.84450
C          8.26970       -0.85750        0.83020
C          8.73730       -2.22360        0.29520
C         10.27080       -2.30150        0.29140
C         10.81800       -2.26580        1.68540
C         10.77310       -3.40820        2.48320
C         11.26110       -3.38640        3.78900
C         11.79640       -2.19730        4.28060
C         11.85970       -1.03750        3.49140
C         11.36850       -1.08390        2.19600
O         12.30310       -2.01200        5.52980
C         12.30350       -3.13190        6.40310
H          2.03210        0.00530        2.16490
H          4.50800        0.02490        2.15940
H          4.52090        0.03710       -2.15220
H          2.03190        0.02100       -2.16600
H          6.31820       -1.43840        1.42640
H          8.64730       -0.69450        1.86650
H          8.68420       -0.03260        0.20160
H          8.35070       -2.37690       -0.73070
H          8.31590       -3.04190        0.90700
H         10.68810       -1.47760       -0.32340
H         10.59360       -3.23040       -0.22340
H         10.35130       -4.33060        2.08620
H         11.21970       -4.28370        4.39540
H         12.29180       -0.12920        3.90360
H         11.41310       -0.19230        1.57040
H         12.75250       -2.71360        7.31510
H         12.92730       -3.93800        6.00500
H         11.28370       -3.47430        6.60200
