39
rmsd50.gzmat
Br         0.00000        0.00000        0.00000
C          1.89920        0.00000        0.00000
C          2.56980        0.00000        1.21780
C          3.96360       -0.00850        1.21290
C          4.65060       -0.02720       -0.00080
C          3.96440       -0.01120       -1.21340
C          2.57000        0.00260       -1.21760
C          6.14150       -0.02410        0.03620
O          6.78520        0.83270        0.60580
N          6.75260       -1.06360       -0.63550
C          8.20760       -1.22710       -0.55920
C          8.58330       -2.24100        0.53800
C         10.10700       -2.39140        0.63590
C         10.67530       -3.00150       -0.60840
C         10.48820       -4.36660       -0.86250
C         11.00580       -4.94820       -2.00890
C         11.72520       -4.14430       -2.90910
C         11.91940       -2.78440       -2.67750
C         11.38690       -2.22140       -1.51730
O         12.18400       -4.84080       -3.98420
C         12.96650       -4.12980       -4.93240
H          2.03120        0.01120        2.16580
H          4.51840        0.00900        2.15390
H          4.51270        0.00240       -2.15620
H          2.03120        0.01820       -2.16500
H          6.22370       -1.82630       -1.02090
H          8.68420       -0.23920       -0.35100
H          8.58310       -1.56660       -1.55140
H          8.11580       -3.22080        0.33200
H          8.17570       -1.90340        1.51090
H         10.36090       -3.01790        1.51700
H         10.56990       -1.40530        0.84680
H          9.93200       -4.97630       -0.15110
H         10.86990       -6.00530       -2.22160
H         12.47050       -2.16360       -3.37460
H         11.53380       -1.15880       -1.32620
H         13.23560       -4.91890       -5.64830
H         13.86620       -3.71300       -4.46960
H         12.37220       -3.35320       -5.42310
