
     RDKit          3D

 39 40  0  0  0  0  0  0  0  0999 V2000
   -0.0719    0.3379   -0.0887 Br  0  0  0  0  0  0  0  0  0  0  0  0
    1.8252    0.1926   -0.0270 C   0  0  0  0  0  0  0  0  0  0  0  0
    2.5161    0.6540    1.0979 C   0  0  0  0  0  0  0  0  0  0  0  0
    3.9048    0.5453    1.1336 C   0  0  0  0  0  0  0  0  0  0  0  0
    4.6094   -0.0324    0.0680 C   0  0  0  0  0  0  0  0  0  0  0  0
    3.8974   -0.4740   -1.0567 C   0  0  0  0  0  0  0  0  0  0  0  0
    2.5069   -0.3660   -1.1110 C   0  0  0  0  0  0  0  0  0  0  0  0
    6.1076   -0.1058    0.1878 C   0  0  0  0  0  0  0  0  0  0  0  0
    6.7213    0.6087    0.9680 O   0  0  0  0  0  0  0  0  0  0  0  0
    6.7325   -1.0099   -0.6230 N   0  0  0  0  0  0  0  0  0  0  0  0
    8.1695   -1.2114   -0.5586 C   0  0  0  0  0  0  0  0  0  0  0  0
    8.6051   -2.1243    0.5905 C   0  0  0  0  0  0  0  0  0  0  0  0
   10.1272   -2.3355    0.6473 C   0  0  0  0  0  0  0  0  0  0  0  0
   10.6867   -3.0339   -0.5711 C   0  0  0  0  0  0  0  0  0  0  0  0
   11.3231   -2.3203   -1.6012 C   0  0  0  0  0  0  0  0  0  0  0  0
   11.7957   -2.9583   -2.7438 C   0  0  0  0  0  0  0  0  0  0  0  0
   11.6444   -4.3462   -2.8923 C   0  0  0  0  0  0  0  0  0  0  0  0
   11.0143   -5.0780   -1.8751 C   0  0  0  0  0  0  0  0  0  0  0  0
   10.5460   -4.4166   -0.7351 C   0  0  0  0  0  0  0  0  0  0  0  0
   12.1358   -4.8861   -4.0373 O   0  0  0  0  0  0  0  0  0  0  0  0
   12.0231   -6.2748   -4.2382 C   0  0  0  0  0  0  0  0  0  0  0  0
    1.9701    1.0959    1.9325 H   0  0  0  0  0  0  0  0  0  0  0  0
    4.4745    0.9103    1.9897 H   0  0  0  0  0  0  0  0  0  0  0  0
    4.4248   -0.8811   -1.9224 H   0  0  0  0  0  0  0  0  0  0  0  0
    1.9568   -0.7028   -1.9906 H   0  0  0  0  0  0  0  0  0  0  0  0
    6.1722   -1.7116   -1.0891 H   0  0  0  0  0  0  0  0  0  0  0  0
    8.6349   -0.2222   -0.4336 H   0  0  0  0  0  0  0  0  0  0  0  0
    8.5044   -1.6186   -1.5248 H   0  0  0  0  0  0  0  0  0  0  0  0
    8.1017   -3.1022    0.4883 H   0  0  0  0  0  0  0  0  0  0  0  0
    8.2589   -1.6773    1.5359 H   0  0  0  0  0  0  0  0  0  0  0  0
   10.3657   -2.9205    1.5506 H   0  0  0  0  0  0  0  0  0  0  0  0
   10.6217   -1.3576    0.7714 H   0  0  0  0  0  0  0  0  0  0  0  0
   11.4530   -1.2390   -1.5025 H   0  0  0  0  0  0  0  0  0  0  0  0
   12.2928   -2.4032   -3.5415 H   0  0  0  0  0  0  0  0  0  0  0  0
   10.8880   -6.1575   -1.9555 H   0  0  0  0  0  0  0  0  0  0  0  0
   10.0608   -5.0033    0.0508 H   0  0  0  0  0  0  0  0  0  0  0  0
   12.4817   -6.4903   -5.2125 H   0  0  0  0  0  0  0  0  0  0  0  0
   10.9680   -6.6037   -4.2590 H   0  0  0  0  0  0  0  0  0  0  0  0
   12.5552   -6.8482   -3.4575 H   0  0  0  0  0  0  0  0  0  0  0  0
  1  2  1  0
  2  3  2  0
  2  7  1  0
  3  4  1  0
  3 22  1  0
  4  5  2  0
  4 23  1  0
  5  6  1  0
  5  8  1  0
  6  7  2  0
  6 24  1  0
  7 25  1  0
  8  9  2  0
  8 10  1  0
 10 11  1  0
 10 26  1  0
 11 12  1  0
 11 27  1  0
 11 28  1  0
 12 13  1  0
 12 29  1  0
 12 30  1  0
 13 14  1  0
 13 31  1  0
 13 32  1  0
 14 15  2  0
 14 19  1  0
 15 16  1  0
 15 33  1  0
 16 17  2  0
 16 34  1  0
 17 18  1  0
 17 20  1  0
 18 19  2  0
 18 35  1  0
 19 36  1  0
 20 21  1  0
 21 37  1  0
 21 38  1  0
 21 39  1  0
M  END

