
     RDKit          3D

 39 40  0  0  0  0  0  0  0  0999 V2000
   -0.0896    0.3890   -0.0020 Br  0  0  0  0  0  0  0  0  0  0  0  0
    1.8045    0.2020   -0.0417 C   0  0  0  0  0  0  0  0  0  0  0  0
    2.4754   -0.2374    1.1023 C   0  0  0  0  0  0  0  0  0  0  0  0
    3.8637   -0.3769    1.0644 C   0  0  0  0  0  0  0  0  0  0  0  0
    4.5840   -0.0846   -0.1029 C   0  0  0  0  0  0  0  0  0  0  0  0
    3.8904    0.3762   -1.2309 C   0  0  0  0  0  0  0  0  0  0  0  0
    2.5041    0.5142   -1.2116 C   0  0  0  0  0  0  0  0  0  0  0  0
    6.0807   -0.1995   -0.2098 C   0  0  0  0  0  0  0  0  0  0  0  0
    6.7072    0.4044   -1.0693 O   0  0  0  0  0  0  0  0  0  0  0  0
    6.6889   -1.0100    0.7059 N   0  0  0  0  0  0  0  0  0  0  0  0
    8.1214   -1.2459    0.6686 C   0  0  0  0  0  0  0  0  0  0  0  0
    8.5365   -2.3120   -0.3485 C   0  0  0  0  0  0  0  0  0  0  0  0
   10.0538   -2.5594   -0.3712 C   0  0  0  0  0  0  0  0  0  0  0  0
   10.5982   -3.0926    0.9343 C   0  0  0  0  0  0  0  0  0  0  0  0
   10.3681   -4.4267    1.3178 C   0  0  0  0  0  0  0  0  0  0  0  0
   10.8225   -4.9215    2.5343 C   0  0  0  0  0  0  0  0  0  0  0  0
   11.5299   -4.0880    3.4177 C   0  0  0  0  0  0  0  0  0  0  0  0
   11.7719   -2.7567    3.0548 C   0  0  0  0  0  0  0  0  0  0  0  0
   11.3048   -2.2783    1.8242 C   0  0  0  0  0  0  0  0  0  0  0  0
   11.9361   -4.6554    4.5826 O   0  0  0  0  0  0  0  0  0  0  0  0
   12.6590   -3.8737    5.5035 C   0  0  0  0  0  0  0  0  0  0  0  0
    1.9190   -0.4579    2.0141 H   0  0  0  0  0  0  0  0  0  0  0  0
    4.3829   -0.6890    1.9734 H   0  0  0  0  0  0  0  0  0  0  0  0
    4.4671    0.6266   -2.1229 H   0  0  0  0  0  0  0  0  0  0  0  0
    1.9666    0.8645   -2.0938 H   0  0  0  0  0  0  0  0  0  0  0  0
    6.1155   -1.6408    1.2510 H   0  0  0  0  0  0  0  0  0  0  0  0
    8.4522   -1.5278    1.6799 H   0  0  0  0  0  0  0  0  0  0  0  0
    8.6047   -0.2912    0.4128 H   0  0  0  0  0  0  0  0  0  0  0  0
    8.1998   -1.9881   -1.3460 H   0  0  0  0  0  0  0  0  0  0  0  0
    8.0117   -3.2565   -0.1192 H   0  0  0  0  0  0  0  0  0  0  0  0
   10.5686   -1.6186   -0.6279 H   0  0  0  0  0  0  0  0  0  0  0  0
   10.2810   -3.2691   -1.1840 H   0  0  0  0  0  0  0  0  0  0  0  0
    9.8241   -5.0934    0.6422 H   0  0  0  0  0  0  0  0  0  0  0  0
   10.6493   -5.9584    2.8287 H   0  0  0  0  0  0  0  0  0  0  0  0
   12.3208   -2.0846    3.7139 H   0  0  0  0  0  0  0  0  0  0  0  0
   11.5022   -1.2368    1.5551 H   0  0  0  0  0  0  0  0  0  0  0  0
   12.8855   -4.5237    6.3591 H   0  0  0  0  0  0  0  0  0  0  0  0
   12.0718   -3.0070    5.8580 H   0  0  0  0  0  0  0  0  0  0  0  0
   13.6076   -3.5039    5.0736 H   0  0  0  0  0  0  0  0  0  0  0  0
  1  2  1  0
  2  3  2  0
  2  7  1  0
  3  4  1  0
  3 22  1  0
  4  5  2  0
  4 23  1  0
  5  6  1  0
  5  8  1  0
  6  7  2  0
  6 24  1  0
  7 25  1  0
  8  9  2  0
  8 10  1  0
 10 11  1  0
 10 26  1  0
 11 12  1  0
 11 27  1  0
 11 28  1  0
 12 13  1  0
 12 29  1  0
 12 30  1  0
 13 14  1  0
 13 31  1  0
 13 32  1  0
 14 15  2  0
 14 19  1  0
 15 16  1  0
 15 33  1  0
 16 17  2  0
 16 34  1  0
 17 18  1  0
 17 20  1  0
 18 19  2  0
 18 35  1  0
 19 36  1  0
 20 21  1  0
 21 37  1  0
 21 38  1  0
 21 39  1  0
M  END

