rmsd248.gzmat
 OpenBabel08211713403D

 39 40  0  0  0  0  0  0  0  0999 V2000
    0.0000    0.0000    0.0000 Br  0  0  0  0  0  0  0  0  0  0  0  0
    1.8993    0.0000    0.0000 C   0  0  0  0  0  0  0  0  0  0  0  0
    2.5707    0.0000    1.2172 C   0  0  0  0  0  0  0  0  0  0  0  0
    3.9649    0.0024    1.2136 C   0  0  0  0  0  0  0  0  0  0  0  0
    4.6540   -0.0021    0.0015 C   0  0  0  0  0  0  0  0  0  0  0  0
    3.9639    0.0107   -1.2115 C   0  0  0  0  0  0  0  0  0  0  0  0
    2.5701    0.0085   -1.2175 C   0  0  0  0  0  0  0  0  0  0  0  0
    6.1440    0.0323   -0.0517 C   0  0  0  0  0  0  0  0  0  0  0  0
    6.7499    0.7429   -0.8292 O   0  0  0  0  0  0  0  0  0  0  0  0
    6.8056   -0.7805    0.8445 N   0  0  0  0  0  0  0  0  0  0  0  0
    8.2697   -0.8575    0.8302 C   0  0  0  0  0  0  0  0  0  0  0  0
    8.7373   -2.2236    0.2952 C   0  0  0  0  0  0  0  0  0  0  0  0
   10.2708   -2.3015    0.2914 C   0  0  0  0  0  0  0  0  0  0  0  0
   10.8180   -2.2658    1.6854 C   0  0  0  0  0  0  0  0  0  0  0  0
   10.7731   -3.4082    2.4832 C   0  0  0  0  0  0  0  0  0  0  0  0
   11.2611   -3.3864    3.7890 C   0  0  0  0  0  0  0  0  0  0  0  0
   11.7964   -2.1973    4.2806 C   0  0  0  0  0  0  0  0  0  0  0  0
   11.8597   -1.0375    3.4914 C   0  0  0  0  0  0  0  0  0  0  0  0
   11.3685   -1.0839    2.1960 C   0  0  0  0  0  0  0  0  0  0  0  0
   12.3031   -2.0120    5.5298 O   0  0  0  0  0  0  0  0  0  0  0  0
   12.3035   -3.1319    6.4031 C   0  0  0  0  0  0  0  0  0  0  0  0
    2.0321    0.0053    2.1649 H   0  0  0  0  0  0  0  0  0  0  0  0
    4.5080    0.0249    2.1594 H   0  0  0  0  0  0  0  0  0  0  0  0
    4.5209    0.0371   -2.1522 H   0  0  0  0  0  0  0  0  0  0  0  0
    2.0319    0.0210   -2.1660 H   0  0  0  0  0  0  0  0  0  0  0  0
    6.3182   -1.4384    1.4264 H   0  0  0  0  0  0  0  0  0  0  0  0
    8.6473   -0.6945    1.8665 H   0  0  0  0  0  0  0  0  0  0  0  0
    8.6842   -0.0326    0.2016 H   0  0  0  0  0  0  0  0  0  0  0  0
    8.3507   -2.3769   -0.7307 H   0  0  0  0  0  0  0  0  0  0  0  0
    8.3159   -3.0419    0.9070 H   0  0  0  0  0  0  0  0  0  0  0  0
   10.6881   -1.4776   -0.3234 H   0  0  0  0  0  0  0  0  0  0  0  0
   10.5936   -3.2304   -0.2234 H   0  0  0  0  0  0  0  0  0  0  0  0
   10.3513   -4.3306    2.0862 H   0  0  0  0  0  0  0  0  0  0  0  0
   11.2197   -4.2837    4.3954 H   0  0  0  0  0  0  0  0  0  0  0  0
   12.2918   -0.1292    3.9036 H   0  0  0  0  0  0  0  0  0  0  0  0
   11.4131   -0.1923    1.5704 H   0  0  0  0  0  0  0  0  0  0  0  0
   12.7525   -2.7136    7.3151 H   0  0  0  0  0  0  0  0  0  0  0  0
   12.9273   -3.9380    6.0050 H   0  0  0  0  0  0  0  0  0  0  0  0
   11.2837   -3.4743    6.6020 H   0  0  0  0  0  0  0  0  0  0  0  0
  2  1  1  0  0  0  0
  2  3  2  0  0  0  0
  3 22  1  0  0  0  0
  4  3  1  0  0  0  0
  4 23  1  0  0  0  0
  5  4  2  0  0  0  0
  6  5  1  0  0  0  0
  7  6  2  0  0  0  0
  7  2  1  0  0  0  0
  8  5  1  0  0  0  0
  8 10  1  0  0  0  0
  9  8  2  0  0  0  0
 10 26  1  0  0  0  0
 11 10  1  0  0  0  0
 11 27  1  0  0  0  0
 12 11  1  0  0  0  0
 12 30  1  0  0  0  0
 13 12  1  0  0  0  0
 13 14  1  0  0  0  0
 14 19  2  0  0  0  0
 14 15  1  0  0  0  0
 15 16  2  0  0  0  0
 16 17  1  0  0  0  0
 16 34  1  0  0  0  0
 17 20  1  0  0  0  0
 18 35  1  0  0  0  0
 18 17  2  0  0  0  0
 19 18  1  0  0  0  0
 20 21  1  0  0  0  0
 21 39  1  0  0  0  0
 21 37  1  0  0  0  0
 24  6  1  0  0  0  0
 25  7  1  0  0  0  0
 28 11  1  0  0  0  0
 29 12  1  0  0  0  0
 31 13  1  0  0  0  0
 32 13  1  0  0  0  0
 33 15  1  0  0  0  0
 36 19  1  0  0  0  0
 38 21  1  0  0  0  0
M  END
$$$$
