
     RDKit          3D

 39 40  0  0  0  0  0  0  0  0999 V2000
   -0.0508    0.2589   -0.1930 Br  0  0  0  0  0  0  0  0  0  0  0  0
    1.8436    0.1104   -0.0789 C   0  0  0  0  0  0  0  0  0  0  0  0
    2.4953    0.4876    1.0995 C   0  0  0  0  0  0  0  0  0  0  0  0
    3.8823    0.3774    1.1733 C   0  0  0  0  0  0  0  0  0  0  0  0
    4.6238   -0.1194    0.0921 C   0  0  0  0  0  0  0  0  0  0  0  0
    3.9509   -0.4771   -1.0853 C   0  0  0  0  0  0  0  0  0  0  0  0
    2.5626   -0.3661   -1.1778 C   0  0  0  0  0  0  0  0  0  0  0  0
    6.1174   -0.2006    0.2562 C   0  0  0  0  0  0  0  0  0  0  0  0
    6.7022    0.4536    1.1082 O   0  0  0  0  0  0  0  0  0  0  0  0
    6.7720   -1.0402   -0.5993 N   0  0  0  0  0  0  0  0  0  0  0  0
    8.2062   -1.2468   -0.5007 C   0  0  0  0  0  0  0  0  0  0  0  0
    8.6031   -2.2547    0.5810 C   0  0  0  0  0  0  0  0  0  0  0  0
   10.1227   -2.4708    0.6697 C   0  0  0  0  0  0  0  0  0  0  0  0
   10.7238   -3.0552   -0.5882 C   0  0  0  0  0  0  0  0  0  0  0  0
   10.5323   -4.4105   -0.9139 C   0  0  0  0  0  0  0  0  0  0  0  0
   11.0395   -4.9542   -2.0879 C   0  0  0  0  0  0  0  0  0  0  0  0
   11.7631   -4.1501   -2.9855 C   0  0  0  0  0  0  0  0  0  0  0  0
   11.9672   -2.7982   -2.6797 C   0  0  0  0  0  0  0  0  0  0  0  0
   11.4471   -2.2706   -1.4912 C   0  0  0  0  0  0  0  0  0  0  0  0
   12.2217   -4.7646   -4.1062 O   0  0  0  0  0  0  0  0  0  0  0  0
   12.9626   -4.0137   -5.0383 C   0  0  0  0  0  0  0  0  0  0  0  0
    1.9205    0.8661    1.9458 H   0  0  0  0  0  0  0  0  0  0  0  0
    4.4222    0.6782    2.0728 H   0  0  0  0  0  0  0  0  0  0  0  0
    4.5078   -0.8190   -1.9606 H   0  0  0  0  0  0  0  0  0  0  0  0
    2.0431   -0.6375   -2.0977 H   0  0  0  0  0  0  0  0  0  0  0  0
    6.2297   -1.7061   -1.1344 H   0  0  0  0  0  0  0  0  0  0  0  0
    8.6635   -0.2719   -0.2751 H   0  0  0  0  0  0  0  0  0  0  0  0
    8.5777   -1.5706   -1.4849 H   0  0  0  0  0  0  0  0  0  0  0  0
    8.1040   -3.2191    0.3793 H   0  0  0  0  0  0  0  0  0  0  0  0
    8.2245   -1.8900    1.5490 H   0  0  0  0  0  0  0  0  0  0  0  0
   10.3328   -3.1360    1.5236 H   0  0  0  0  0  0  0  0  0  0  0  0
   10.6108   -1.5088    0.8984 H   0  0  0  0  0  0  0  0  0  0  0  0
    9.9764   -5.0547   -0.2262 H   0  0  0  0  0  0  0  0  0  0  0  0
   10.8962   -6.0072   -2.3374 H   0  0  0  0  0  0  0  0  0  0  0  0
   12.5273   -2.1478   -3.3511 H   0  0  0  0  0  0  0  0  0  0  0  0
   11.6155   -1.2136   -1.2665 H   0  0  0  0  0  0  0  0  0  0  0  0
   13.2318   -4.6994   -5.8526 H   0  0  0  0  0  0  0  0  0  0  0  0
   13.8881   -3.6044   -4.5939 H   0  0  0  0  0  0  0  0  0  0  0  0
   12.3725   -3.1771   -5.4550 H   0  0  0  0  0  0  0  0  0  0  0  0
  1  2  1  0
  2  3  2  0
  2  7  1  0
  3  4  1  0
  3 22  1  0
  4  5  2  0
  4 23  1  0
  5  6  1  0
  5  8  1  0
  6  7  2  0
  6 24  1  0
  7 25  1  0
  8  9  2  0
  8 10  1  0
 10 11  1  0
 10 26  1  0
 11 12  1  0
 11 27  1  0
 11 28  1  0
 12 13  1  0
 12 29  1  0
 12 30  1  0
 13 14  1  0
 13 31  1  0
 13 32  1  0
 14 15  2  0
 14 19  1  0
 15 16  1  0
 15 33  1  0
 16 17  2  0
 16 34  1  0
 17 18  1  0
 17 20  1  0
 18 19  2  0
 18 35  1  0
 19 36  1  0
 20 21  1  0
 21 37  1  0
 21 38  1  0
 21 39  1  0
M  END

