57
rmsd109.gzmat
N          0.00000        0.00000        0.00000
H          1.03020        0.00000        0.00000
C         -0.66050        0.00000       -1.20290
C          0.15990        0.14510       -2.44440
C          0.12300        1.58920       -2.93490
C         -2.04110       -0.14050       -1.22430
C         -2.73450       -0.34200       -0.02650
C         -2.04310       -0.32920        1.21200
C         -2.80330       -0.50740        2.48330
C         -1.89790       -0.95380        3.63610
C         -0.64740       -0.07470        3.69720
C          0.18750       -0.25400        2.42310
C         -0.66660       -0.17750        1.19900
O         -4.04990       -0.56220        0.08260
C         -4.74310       -1.07840       -1.07250
C         -4.05780       -2.31540       -1.55350
C         -3.76820       -3.32750       -0.63590
C         -2.98210       -4.40850       -1.02110
C         -2.49250       -4.47650       -2.32680
C         -2.85530       -3.50990       -3.26770
C         -3.64060       -2.42850       -2.88020
C         -1.56390       -5.54520       -2.71710
C         -1.98850       -6.57580       -3.55630
C         -1.09290       -7.56880       -3.94710
C          0.23120       -7.53470       -3.50950
C          0.66300       -6.51320       -2.66870
C         -0.23780       -5.52390       -2.26420
C          0.21610       -4.47320       -1.37080
N          0.43930       -4.66380        0.00350
H          0.35890       -5.49080        0.57300
N          0.85290       -3.47840        0.52530
N          0.88530       -2.61800       -0.44570
N          0.50370       -3.16900       -1.61420
H         -0.22240       -0.54890       -3.23280
H          1.21040       -0.19700       -2.29650
H         -0.89190        1.90510       -3.20700
H          0.74720        1.71360       -3.83240
H          0.49900        2.29460       -2.18470
H         -2.56350       -0.12070       -2.18260
H         -3.31380        0.44840        2.74450
H         -3.62940       -1.24160        2.34710
H         -2.45290       -0.90280        4.59410
H         -1.61510       -2.01770        3.51280
H         -0.03750       -0.33260        4.58620
H         -0.93070        0.98870        3.82650
H          0.69540       -1.25270        2.44810
H          1.00960        0.49390        2.40440
H         -4.83370       -0.27850       -1.82820
H         -5.74520       -1.27540       -0.62860
H         -4.14440       -3.26400        0.38600
H         -2.74800       -5.19660       -0.30700
H         -2.50370       -3.59460       -4.29760
H         -3.91710       -1.67260       -3.61530
H         -3.02380       -6.59960       -3.90210
H         -1.42980       -8.37580       -4.60250
H          0.93180       -8.30930       -3.82780
H          1.70160       -6.47890       -2.33570
