57
rmsd244.gzmat
N          0.00000        0.00000        0.00000
H          1.03010        0.00000        0.00000
C         -0.66030        0.00000       -1.20300
C          0.15920        0.15710       -2.44340
C          0.28500        1.63260       -2.80880
C         -2.03910       -0.15310       -1.22470
C         -2.73030       -0.37130       -0.02850
C         -2.04420       -0.32650        1.21270
C         -2.81010       -0.47030        2.48490
C         -1.91090       -0.83910        3.66980
C         -0.65980        0.04090        3.68390
C          0.17940       -0.22280        2.42790
C         -0.66820       -0.16720        1.19880
O         -4.03550       -0.64540        0.07600
C         -4.71430       -1.15270       -1.09130
C         -3.97000       -2.32030       -1.65240
C         -3.54720       -3.33400       -0.79010
C         -2.70910       -4.34020       -1.25970
C         -2.29500       -4.33040       -2.59360
C         -2.79020       -3.36650       -3.47610
C         -3.63170       -2.36340       -3.00530
C         -1.31520       -5.31070       -3.07810
C         -1.68670       -6.25510       -4.03690
C         -0.75020       -7.16460       -4.52200
C          0.56660       -7.13100       -4.06240
C          0.94710       -6.19610       -3.10470
C          0.00360       -5.29400       -2.60370
C          0.41450       -4.34060       -1.58870
N          0.67700       -4.69210       -0.25350
H          0.65430       -5.58870        0.20550
N          1.03730       -3.56170        0.41080
N          1.00340       -2.58450       -0.44100
N          0.62820       -3.00310       -1.66670
H         -0.30050       -0.41810       -3.28220
H          1.16420       -0.31700       -2.33750
H         -0.69430        2.10330       -2.96400
H          0.85050        1.75600       -3.74480
H          0.81250        2.20860       -2.03990
H         -2.56170       -0.13330       -2.18290
H         -3.34900        0.48250        2.69700
H         -3.61560       -1.23080        2.37400
H         -2.47180       -0.72510        4.61910
H         -1.62880       -1.90910        3.61910
H         -0.05580       -0.16000        4.59140
H         -0.94260        1.11060        3.74240
H          0.64910       -1.23760        2.49750
H          1.02910        0.49180        2.38450
H         -4.86760       -0.32180       -1.80310
H         -5.69320       -1.43320       -0.64050
H         -3.85890       -3.32850        0.25540
H         -2.37700       -5.13140       -0.58940
H         -2.50000       -3.39160       -4.52790
H         -4.01280       -1.61090       -3.69630
H         -2.71570       -6.27750       -4.40110
H         -1.04880       -7.90500       -5.26860
H          1.30100       -7.83730       -4.45470
H          1.98010       -6.15970       -2.75440
