57
rmsd227.gzmat
N          0.00000        0.00000        0.00000
H          1.03070        0.00000        0.00000
C         -0.66050        0.00000       -1.20290
C          0.15830        0.17070       -2.44220
C          0.15170        1.63430       -2.87370
C         -2.03920       -0.15620       -1.22550
C         -2.72930       -0.36850       -0.02750
C         -2.04160       -0.33660        1.21200
C         -2.80190       -0.50640        2.48420
C         -1.89620       -0.94100        3.64110
C         -0.64880       -0.05700        3.69640
C          0.18730       -0.24340        2.42420
C         -0.66560       -0.17620        1.19890
O         -4.04040       -0.62020        0.07630
C         -4.69790       -1.20170       -1.06860
C         -3.94680       -2.41410       -1.51420
C         -3.59000       -3.37460       -0.56510
C         -2.75640       -4.42880       -0.92340
C         -2.28340       -4.52100       -2.23390
C         -2.70140       -3.60370       -3.20090
C         -3.53720       -2.55110       -2.84070
C         -1.32460       -5.56890       -2.60650
C         -1.72490       -6.61660       -3.43750
C         -0.81050       -7.59740       -3.81360
C          0.51010       -7.53640       -3.36730
C          0.91820       -6.49730       -2.53690
C         -0.00170       -5.51820       -2.14830
C          0.43560       -4.44870       -1.26960
N          0.77690       -4.64030        0.08010
H          0.80460       -5.47900        0.63770
N          1.13870       -3.43410        0.59250
N          1.03340       -2.56090       -0.36140
N          0.60630       -3.12340       -1.50880
H         -0.24060       -0.48170       -3.25620
H          1.20160       -0.19960       -2.30990
H         -0.86120        1.99120       -3.10110
H          0.75310        1.77710       -3.78410
H          0.57100        2.29680       -2.10700
H         -2.56310       -0.14120       -2.18310
H         -3.31310        0.45140        2.73730
H         -3.62700       -1.24290        2.35420
H         -2.45130       -0.88500        4.59880
H         -1.60980       -2.00500        3.52640
H         -0.03850       -0.30600        4.58780
H         -0.93590        1.00630        3.81810
H          0.69780       -1.24070        2.45580
H          1.00910        0.50480        2.40130
H         -4.82400       -0.42680       -1.84500
H         -5.69180       -1.43860       -0.62610
H         -3.95210       -3.29090        0.46040
H         -2.47540       -5.17980       -0.18630
H         -2.35610       -3.70460       -4.23130
H         -3.85960       -1.83630       -3.59770
H         -2.75780       -6.66310       -3.78720
H         -1.12920       -8.41670       -4.46300
H          1.22560       -8.30360       -3.67120
H          1.95430       -6.44050       -2.19990
