57
rmsd101.gzmat
N          0.00000        0.00000        0.00000
H          1.03120        0.00000        0.00000
C         -0.65780        0.00000       -1.20450
C          0.16290        0.14980       -2.44510
C          0.98150        1.43650       -2.43980
C         -2.03390       -0.17770       -1.22850
C         -2.72100       -0.41720       -0.03310
C         -2.04040       -0.35690        1.20880
C         -2.80250       -0.51890        2.48070
C         -1.89490       -0.91090        3.65160
C         -0.65930       -0.00970        3.69080
C          0.18300       -0.21540        2.42620
C         -0.66700       -0.17350        1.19780
O         -4.02050       -0.72650        0.06320
C         -4.64930       -1.32700       -1.08830
C         -3.82470       -2.47220       -1.57930
C         -3.37890       -3.42640       -0.66220
C         -2.47440       -4.40450       -1.06240
C         -2.01990       -4.42920       -2.38280
C         -2.52850       -3.52430       -3.31850
C         -3.43500       -2.54790       -2.91710
C         -0.99470       -5.39320       -2.80190
C         -1.31120       -6.37630       -3.74240
C         -0.33710       -7.27580       -4.16800
C          0.96270       -7.19400       -3.66740
C          1.28800       -6.22120       -2.72760
C          0.30640       -5.32860       -2.28500
C          0.66080       -4.33840       -1.28440
N          0.90290       -4.64960        0.06470
H          0.90050       -5.53610        0.54450
N          1.21100       -3.49280        0.70960
N          1.16520       -2.53730       -0.16550
N          0.83280       -2.99650       -1.38930
H         -0.48500        0.11480       -3.34980
H          0.83290       -0.74450       -2.56010
H          0.35960        2.31860       -2.24050
H          1.45560        1.59880       -3.42060
H          1.79250        1.42120       -1.70340
H         -2.56230       -0.16050       -2.18330
H         -3.33650        0.43220        2.71170
H         -3.61110       -1.27510        2.36120
H         -2.45500       -0.83730        4.60500
H         -1.59340       -1.97330        3.56420
H         -0.04850       -0.22940        4.58950
H         -0.96020        1.05260        3.78560
H          0.69820       -1.20940        2.47730
H          1.00180        0.53530        2.39310
H         -4.83960       -0.54180       -1.84130
H         -5.61770       -1.64470       -0.64000
H         -3.72760       -3.39640        0.37100
H         -2.12440       -5.14870       -0.34890
H         -2.19920       -3.57490       -4.35790
H         -3.82850       -1.84330       -3.65030
H         -2.32690       -6.43710       -4.13820
H         -0.59170       -8.04710       -4.89910
H          1.72690       -7.89260       -4.01400
H          2.30750       -6.14870       -2.34510
