rmsd180.gzmat
 OpenBabel08211713363D

 57 61  0  0  1  0  0  0  0  0999 V2000
    0.0000    0.0000    0.0000 N   0  0  0  0  0  0  0  0  0  0  0  0
    1.0311    0.0000    0.0000 H   0  0  0  0  0  0  0  0  0  0  0  0
   -0.6598    0.0000   -1.2001 C   0  0  1  0  0  0  0  0  0  0  0  0
    0.1219    0.1170   -2.4682 C   0  0  0  0  0  0  0  0  0  0  0  0
    1.4957    0.7604   -2.3262 C   0  0  0  0  0  0  0  0  0  0  0  0
   -2.0413   -0.1646   -1.2159 C   0  0  0  0  0  0  0  0  0  0  0  0
   -2.7236   -0.4124   -0.0224 C   0  0  0  0  0  0  0  0  0  0  0  0
   -2.0332   -0.3779    1.2174 C   0  0  0  0  0  0  0  0  0  0  0  0
   -2.7874   -0.5741    2.4893 C   0  0  0  0  0  0  0  0  0  0  0  0
   -1.8677   -0.9406    3.6593 C   0  0  0  0  0  0  0  0  0  0  0  0
   -0.6527   -0.0119    3.6920 C   0  0  0  0  0  0  0  0  0  0  0  0
    0.1915   -0.2057    2.4263 C   0  0  0  0  0  0  0  0  0  0  0  0
   -0.6633   -0.1828    1.2006 C   0  0  0  0  0  0  0  0  0  0  0  0
   -4.0263   -0.7020    0.0836 O   0  0  0  0  0  0  0  0  0  0  0  0
   -4.6936   -1.2286   -1.0820 C   0  0  0  0  0  0  0  0  0  0  0  0
   -3.9252   -2.3897   -1.6240 C   0  0  0  0  0  0  0  0  0  0  0  0
   -3.5178   -3.3979   -0.7480 C   0  0  0  0  0  0  0  0  0  0  0  0
   -2.6572   -4.3965   -1.1918 C   0  0  0  0  0  0  0  0  0  0  0  0
   -2.2065   -4.3851   -2.5137 C   0  0  0  0  0  0  0  0  0  0  0  0
   -2.6815   -3.4251   -3.4109 C   0  0  0  0  0  0  0  0  0  0  0  0
   -3.5462   -2.4299   -2.9661 C   0  0  0  0  0  0  0  0  0  0  0  0
   -1.2122   -5.3652   -2.9683 C   0  0  0  0  0  0  0  0  0  0  0  0
   -1.5584   -6.3108   -3.9358 C   0  0  0  0  0  0  0  0  0  0  0  0
   -0.6128   -7.2286   -4.3854 C   0  0  0  0  0  0  0  0  0  0  0  0
    0.6873   -7.2051   -3.8796 C   0  0  0  0  0  0  0  0  0  0  0  0
    1.0427   -6.2675   -2.9154 C   0  0  0  0  0  0  0  0  0  0  0  0
    0.0909   -5.3529   -2.4525 C   0  0  0  0  0  0  0  0  0  0  0  0
    0.4789   -4.3929   -1.4351 C   0  0  0  0  0  0  0  0  0  0  0  0
    0.8148   -4.7473   -0.1177 N   0  0  0  0  0  0  0  0  0  0  0  0
    0.8614   -5.6503    0.3272 H   0  0  0  0  0  0  0  0  0  0  0  0
    1.1264   -3.6063    0.5534 N   0  0  0  0  0  0  0  0  0  0  0  0
    0.9973   -2.6200   -0.2778 N   0  0  0  0  0  0  0  0  0  0  0  0
    0.6033   -3.0429   -1.4963 N   0  0  0  0  0  0  0  0  0  0  0  0
   -0.4737    0.6666   -3.2334 H   0  0  0  0  0  0  0  0  0  0  0  0
    0.2429   -0.9223   -2.8882 H   0  0  0  0  0  0  0  0  0  0  0  0
    1.4509    1.7423   -1.8407 H   0  0  0  0  0  0  0  0  0  0  0  0
    1.9480    0.9222   -3.3186 H   0  0  0  0  0  0  0  0  0  0  0  0
    2.2046    0.1220   -1.7821 H   0  0  0  0  0  0  0  0  0  0  0  0
   -2.5712   -0.1359   -2.1693 H   0  0  0  0  0  0  0  0  0  0  0  0
   -3.3568    0.3544    2.7261 H   0  0  0  0  0  0  0  0  0  0  0  0
   -3.5667   -1.3597    2.3642 H   0  0  0  0  0  0  0  0  0  0  0  0
   -2.4281   -0.8762    4.6135 H   0  0  0  0  0  0  0  0  0  0  0  0
   -1.5416   -1.9962    3.5766 H   0  0  0  0  0  0  0  0  0  0  0  0
   -0.0359   -0.2130    4.5910 H   0  0  0  0  0  0  0  0  0  0  0  0
   -0.9788    1.0433    3.7817 H   0  0  0  0  0  0  0  0  0  0  0  0
    0.7257   -1.1884    2.4790 H   0  0  0  0  0  0  0  0  0  0  0  0
    0.9928    0.5637    2.3877 H   0  0  0  0  0  0  0  0  0  0  0  0
   -4.8567   -0.4081   -1.8030 H   0  0  0  0  0  0  0  0  0  0  0  0
   -5.6701   -1.5202   -0.6335 H   0  0  0  0  0  0  0  0  0  0  0  0
   -3.8599   -3.3941    0.2879 H   0  0  0  0  0  0  0  0  0  0  0  0
   -2.3366   -5.1836   -0.5109 H   0  0  0  0  0  0  0  0  0  0  0  0
   -2.3578   -3.4469   -4.4528 H   0  0  0  0  0  0  0  0  0  0  0  0
   -3.9142   -1.6821   -3.6688 H   0  0  0  0  0  0  0  0  0  0  0  0
   -2.5751   -6.3281   -4.3335 H   0  0  0  0  0  0  0  0  0  0  0  0
   -0.8899   -7.9690   -5.1399 H   0  0  0  0  0  0  0  0  0  0  0  0
    1.4271   -7.9221   -4.2414 H   0  0  0  0  0  0  0  0  0  0  0  0
    2.0633   -6.2383   -2.5309 H   0  0  0  0  0  0  0  0  0  0  0  0
  1  2  1  0  0  0  0
  1 13  1  0  0  0  0
  3  4  1  6  0  0  0
  3  1  1  0  0  0  0
  4  5  1  0  0  0  0
  5 36  1  0  0  0  0
  5 38  1  0  0  0  0
  6  3  1  0  0  0  0
  6  7  2  0  0  0  0
  7 14  1  0  0  0  0
  7  8  1  0  0  0  0
  8  9  1  0  0  0  0
  9 40  1  0  0  0  0
  9 10  1  0  0  0  0
 10 11  1  0  0  0  0
 10 42  1  0  0  0  0
 11 45  1  0  0  0  0
 11 44  1  0  0  0  0
 12 46  1  0  0  0  0
 12 11  1  0  0  0  0
 13  8  2  0  0  0  0
 13 12  1  0  0  0  0
 15 49  1  0  0  0  0
 15 14  1  0  0  0  0
 16 15  1  0  0  0  0
 16 17  2  0  0  0  0
 17 50  1  0  0  0  0
 18 17  1  0  0  0  0
 18 51  1  0  0  0  0
 19 18  2  0  0  0  0
 20 21  2  0  0  0  0
 20 19  1  0  0  0  0
 21 16  1  0  0  0  0
 22 19  1  0  0  0  0
 22 27  2  0  0  0  0
 23 22  1  0  0  0  0
 24 23  2  0  0  0  0
 24 25  1  0  0  0  0
 25 26  2  0  0  0  0
 26 57  1  0  0  0  0
 26 27  1  0  0  0  0
 27 28  1  0  0  0  0
 28 29  1  0  0  0  0
 29 30  1  0  0  0  0
 29 31  1  0  0  0  0
 32 31  2  0  0  0  0
 33 28  2  0  0  0  0
 33 32  1  0  0  0  0
 34  4  1  0  0  0  0
 35  4  1  0  0  0  0
 37  5  1  0  0  0  0
 39  6  1  0  0  0  0
 41  9  1  0  0  0  0
 43 10  1  0  0  0  0
 47 12  1  0  0  0  0
 48 15  1  0  0  0  0
 52 20  1  0  0  0  0
 53 21  1  0  0  0  0
 54 23  1  0  0  0  0
 55 24  1  0  0  0  0
 56 25  1  0  0  0  0
M  END
$$$$
