rmsd244.gzmat
 OpenBabel08211713363D

 57 61  0  0  1  0  0  0  0  0999 V2000
    0.0000    0.0000    0.0000 N   0  0  0  0  0  0  0  0  0  0  0  0
    1.0301    0.0000    0.0000 H   0  0  0  0  0  0  0  0  0  0  0  0
   -0.6603    0.0000   -1.2030 C   0  0  1  0  0  0  0  0  0  0  0  0
    0.1592    0.1571   -2.4434 C   0  0  0  0  0  0  0  0  0  0  0  0
    0.2850    1.6326   -2.8088 C   0  0  0  0  0  0  0  0  0  0  0  0
   -2.0391   -0.1531   -1.2247 C   0  0  0  0  0  0  0  0  0  0  0  0
   -2.7303   -0.3713   -0.0285 C   0  0  0  0  0  0  0  0  0  0  0  0
   -2.0442   -0.3265    1.2127 C   0  0  0  0  0  0  0  0  0  0  0  0
   -2.8101   -0.4703    2.4849 C   0  0  0  0  0  0  0  0  0  0  0  0
   -1.9109   -0.8391    3.6698 C   0  0  0  0  0  0  0  0  0  0  0  0
   -0.6598    0.0409    3.6839 C   0  0  0  0  0  0  0  0  0  0  0  0
    0.1794   -0.2228    2.4279 C   0  0  0  0  0  0  0  0  0  0  0  0
   -0.6682   -0.1672    1.1988 C   0  0  0  0  0  0  0  0  0  0  0  0
   -4.0355   -0.6454    0.0760 O   0  0  0  0  0  0  0  0  0  0  0  0
   -4.7143   -1.1527   -1.0913 C   0  0  0  0  0  0  0  0  0  0  0  0
   -3.9700   -2.3203   -1.6524 C   0  0  0  0  0  0  0  0  0  0  0  0
   -3.5472   -3.3340   -0.7901 C   0  0  0  0  0  0  0  0  0  0  0  0
   -2.7091   -4.3402   -1.2597 C   0  0  0  0  0  0  0  0  0  0  0  0
   -2.2950   -4.3304   -2.5936 C   0  0  0  0  0  0  0  0  0  0  0  0
   -2.7902   -3.3665   -3.4761 C   0  0  0  0  0  0  0  0  0  0  0  0
   -3.6317   -2.3634   -3.0053 C   0  0  0  0  0  0  0  0  0  0  0  0
   -1.3152   -5.3107   -3.0781 C   0  0  0  0  0  0  0  0  0  0  0  0
   -1.6867   -6.2551   -4.0369 C   0  0  0  0  0  0  0  0  0  0  0  0
   -0.7502   -7.1646   -4.5220 C   0  0  0  0  0  0  0  0  0  0  0  0
    0.5666   -7.1310   -4.0624 C   0  0  0  0  0  0  0  0  0  0  0  0
    0.9471   -6.1961   -3.1047 C   0  0  0  0  0  0  0  0  0  0  0  0
    0.0036   -5.2940   -2.6037 C   0  0  0  0  0  0  0  0  0  0  0  0
    0.4145   -4.3406   -1.5887 C   0  0  0  0  0  0  0  0  0  0  0  0
    0.6770   -4.6921   -0.2535 N   0  0  0  0  0  0  0  0  0  0  0  0
    0.6543   -5.5887    0.2055 H   0  0  0  0  0  0  0  0  0  0  0  0
    1.0373   -3.5617    0.4108 N   0  0  0  0  0  0  0  0  0  0  0  0
    1.0034   -2.5845   -0.4410 N   0  0  0  0  0  0  0  0  0  0  0  0
    0.6282   -3.0031   -1.6667 N   0  0  0  0  0  0  0  0  0  0  0  0
   -0.3005   -0.4181   -3.2822 H   0  0  0  0  0  0  0  0  0  0  0  0
    1.1642   -0.3170   -2.3375 H   0  0  0  0  0  0  0  0  0  0  0  0
   -0.6943    2.1033   -2.9640 H   0  0  0  0  0  0  0  0  0  0  0  0
    0.8505    1.7560   -3.7448 H   0  0  0  0  0  0  0  0  0  0  0  0
    0.8125    2.2086   -2.0399 H   0  0  0  0  0  0  0  0  0  0  0  0
   -2.5617   -0.1333   -2.1829 H   0  0  0  0  0  0  0  0  0  0  0  0
   -3.3490    0.4825    2.6970 H   0  0  0  0  0  0  0  0  0  0  0  0
   -3.6156   -1.2308    2.3740 H   0  0  0  0  0  0  0  0  0  0  0  0
   -2.4718   -0.7251    4.6191 H   0  0  0  0  0  0  0  0  0  0  0  0
   -1.6288   -1.9091    3.6191 H   0  0  0  0  0  0  0  0  0  0  0  0
   -0.0558   -0.1600    4.5914 H   0  0  0  0  0  0  0  0  0  0  0  0
   -0.9426    1.1106    3.7424 H   0  0  0  0  0  0  0  0  0  0  0  0
    0.6491   -1.2376    2.4975 H   0  0  0  0  0  0  0  0  0  0  0  0
    1.0291    0.4918    2.3845 H   0  0  0  0  0  0  0  0  0  0  0  0
   -4.8676   -0.3218   -1.8031 H   0  0  0  0  0  0  0  0  0  0  0  0
   -5.6932   -1.4332   -0.6405 H   0  0  0  0  0  0  0  0  0  0  0  0
   -3.8589   -3.3285    0.2554 H   0  0  0  0  0  0  0  0  0  0  0  0
   -2.3770   -5.1314   -0.5894 H   0  0  0  0  0  0  0  0  0  0  0  0
   -2.5000   -3.3916   -4.5279 H   0  0  0  0  0  0  0  0  0  0  0  0
   -4.0128   -1.6109   -3.6963 H   0  0  0  0  0  0  0  0  0  0  0  0
   -2.7157   -6.2775   -4.4011 H   0  0  0  0  0  0  0  0  0  0  0  0
   -1.0488   -7.9050   -5.2686 H   0  0  0  0  0  0  0  0  0  0  0  0
    1.3010   -7.8373   -4.4547 H   0  0  0  0  0  0  0  0  0  0  0  0
    1.9801   -6.1597   -2.7544 H   0  0  0  0  0  0  0  0  0  0  0  0
  1  2  1  0  0  0  0
  1 13  1  0  0  0  0
  3  4  1  6  0  0  0
  3  1  1  0  0  0  0
  4 35  1  0  0  0  0
  5  4  1  0  0  0  0
  5 38  1  0  0  0  0
  6  3  1  0  0  0  0
  6  7  2  0  0  0  0
  7 14  1  0  0  0  0
  7  8  1  0  0  0  0
  8  9  1  0  0  0  0
  9 40  1  0  0  0  0
  9 10  1  0  0  0  0
 10 11  1  0  0  0  0
 10 42  1  0  0  0  0
 11 45  1  0  0  0  0
 11 44  1  0  0  0  0
 12 46  1  0  0  0  0
 12 11  1  0  0  0  0
 13  8  2  0  0  0  0
 13 12  1  0  0  0  0
 15 49  1  0  0  0  0
 15 14  1  0  0  0  0
 16 15  1  0  0  0  0
 16 17  2  0  0  0  0
 17 50  1  0  0  0  0
 18 17  1  0  0  0  0
 18 51  1  0  0  0  0
 19 18  2  0  0  0  0
 20 21  2  0  0  0  0
 20 19  1  0  0  0  0
 21 16  1  0  0  0  0
 22 27  1  0  0  0  0
 22 19  1  0  0  0  0
 23 22  2  0  0  0  0
 24 25  2  0  0  0  0
 24 23  1  0  0  0  0
 25 26  1  0  0  0  0
 26 57  1  0  0  0  0
 26 27  2  0  0  0  0
 27 28  1  0  0  0  0
 28 29  1  0  0  0  0
 29 30  1  0  0  0  0
 29 31  1  0  0  0  0
 32 31  2  0  0  0  0
 33 28  2  0  0  0  0
 33 32  1  0  0  0  0
 34  4  1  0  0  0  0
 36  5  1  0  0  0  0
 37  5  1  0  0  0  0
 39  6  1  0  0  0  0
 41  9  1  0  0  0  0
 43 10  1  0  0  0  0
 47 12  1  0  0  0  0
 48 15  1  0  0  0  0
 52 20  1  0  0  0  0
 53 21  1  0  0  0  0
 54 23  1  0  0  0  0
 55 24  1  0  0  0  0
 56 25  1  0  0  0  0
M  END
$$$$
