57
rmsd202.gzmat
N          0.00000        0.00000        0.00000
H          1.03190        0.00000        0.00000
C         -0.65790        0.00000       -1.20470
C          0.16510        0.18210       -2.43980
C          0.57180        1.64280       -2.60670
C         -2.03180       -0.18810       -1.23080
C         -2.71610       -0.44690       -0.03780
C         -2.03480       -0.40220        1.20370
C         -2.78760       -0.61480        2.47380
C         -1.86640       -1.06930        3.61090
C         -0.64840       -0.14770        3.69930
C          0.19180       -0.25300        2.42070
C         -0.66350       -0.19950        1.19600
O         -4.01490       -0.76450        0.05020
C         -4.61130       -1.41060       -1.09490
C         -3.76220       -2.56580       -1.51680
C         -3.36920       -3.49960       -0.55550
C         -2.45450       -4.49380       -0.88580
C         -1.93810       -4.55610       -2.18200
C         -2.38280       -3.66490       -3.16130
C         -3.29950       -2.67160       -2.82890
C         -0.92210       -5.55960       -2.52510
C         -1.26010       -6.62420       -3.36360
C         -0.30570       -7.58140       -3.69790
C          0.99600       -7.47780       -3.20620
C          1.34370       -6.41970       -2.37320
C          0.38270       -5.46400       -2.02530
C          0.76790       -4.37330       -1.14900
N          1.15460       -4.54730        0.19120
H          1.24050       -5.38360        0.74700
N          1.46080       -3.32370        0.69810
N          1.28060       -2.45600       -0.24950
N          0.85640       -3.03940       -1.38760
H         -0.39550       -0.16760       -3.33710
H          1.06350       -0.48440       -2.41960
H         -0.30070        2.30590       -2.67650
H          1.15200        1.78340       -3.53160
H          1.19810        2.00220       -1.78260
H         -2.55970       -0.16570       -2.18580
H         -3.30890        0.32900        2.75720
H         -3.60480       -1.35720        2.32900
H         -2.42050       -1.06950        4.57040
H         -1.54740       -2.11770        3.45210
H         -0.02710       -0.41120        4.57890
H         -0.97160        0.89950        3.86390
H          0.75960       -1.21900        2.42640
H          0.96970        0.54160        2.41690
H         -4.78840       -0.65710       -1.88210
H         -5.58810       -1.71960       -0.65950
H         -3.76960       -3.44230        0.45770
H         -2.14610       -5.22370       -0.13860
H         -1.99740       -3.74020       -4.17950
H         -3.64480       -1.97910       -3.59650
H         -2.27750       -6.70270       -3.75110
H         -0.57740       -8.41620       -4.34900
H          1.74380       -8.22620       -3.47690
H          2.36550       -6.32920       -2.00200
