57
rmsd196.gzmat
N          0.00000        0.00000        0.00000
H          1.03090        0.00000        0.00000
C         -0.65860        0.00000       -1.20140
C          0.13450        0.10270       -2.46400
C          1.46160        0.84020       -2.32810
C         -2.04080       -0.15250       -1.21890
C         -2.72820       -0.37930       -0.02340
C         -2.03670       -0.36180        1.21550
C         -2.79010       -0.56170        2.48760
C         -1.87190       -0.99490        3.63550
C         -0.64040       -0.08910        3.69760
C          0.19530       -0.24800        2.42140
C         -0.66360       -0.18760        1.19960
O         -4.03880       -0.62970        0.08490
C         -4.72070       -1.15270       -1.07370
C         -4.00450       -2.36780       -1.56570
C         -3.70000       -3.38400       -0.65750
C         -2.88260       -4.43980       -1.04670
C         -2.37290       -4.47730       -2.34660
C         -2.74900       -3.50800       -3.27940
C         -3.56890       -2.45360       -2.88870
C         -1.41170       -5.51740       -2.73460
C         -1.77910       -6.51260       -3.64120
C         -0.85680       -7.48530       -4.02000
C          0.43870       -7.46680       -3.50250
C          0.81470       -6.47910       -2.59710
C         -0.11250       -5.50800       -2.20820
C          0.28930       -4.48310       -1.26180
N          0.50580       -4.72230        0.10520
H          0.45000       -5.57470        0.63960
N          0.86430       -3.54380        0.68130
N          0.87260       -2.64260       -0.25180
N          0.52640       -3.15880       -1.44750
H         -0.47840        0.57750       -3.26420
H          0.32510       -0.94530       -2.83300
H          1.35040        1.81670       -1.84240
H          1.89670        1.03500       -3.32210
H          2.21550        0.25480       -1.78600
H         -2.56970       -0.12750       -2.17290
H         -3.31940        0.38160        2.75560
H         -3.60020       -1.31310        2.34960
H         -2.42440       -0.96070        4.59540
H         -1.56590       -2.05160        3.50560
H         -0.02310       -0.33600        4.58460
H         -0.94700        0.96730        3.82980
H          0.72430       -1.23580        2.44280
H          1.00100        0.51740        2.40100
H         -4.83290       -0.34880       -1.82200
H         -5.71650       -1.37820       -0.62990
H         -4.08860       -3.34220        0.36100
H         -2.64080       -5.23340       -0.34130
H         -2.38150       -3.56860       -4.30520
H         -3.85720       -1.69640       -3.61800
H         -2.79230       -6.52520       -4.04730
H         -1.14990       -8.26500       -4.72740
H          1.16040       -8.22720       -3.80810
H          1.83180       -6.45600       -2.20270
