rmsd85.gzmat
 OpenBabel08211713363D

 57 61  0  0  1  0  0  0  0  0999 V2000
    0.0000    0.0000    0.0000 N   0  0  0  0  0  0  0  0  0  0  0  0
    1.0301    0.0000    0.0000 H   0  0  0  0  0  0  0  0  0  0  0  0
   -0.6580    0.0000   -1.2048 C   0  0  1  0  0  0  0  0  0  0  0  0
    0.1702    0.1410   -2.4417 C   0  0  0  0  0  0  0  0  0  0  0  0
    0.8824    1.4886   -2.4919 C   0  0  0  0  0  0  0  0  0  0  0  0
   -2.0364   -0.1579   -1.2292 C   0  0  0  0  0  0  0  0  0  0  0  0
   -2.7294   -0.3669   -0.0316 C   0  0  0  0  0  0  0  0  0  0  0  0
   -2.0444   -0.3264    1.2089 C   0  0  0  0  0  0  0  0  0  0  0  0
   -2.8066   -0.4823    2.4815 C   0  0  0  0  0  0  0  0  0  0  0  0
   -1.9040   -0.9311    3.6355 C   0  0  0  0  0  0  0  0  0  0  0  0
   -0.6537   -0.0516    3.6980 C   0  0  0  0  0  0  0  0  0  0  0  0
    0.1836   -0.2285    2.4252 C   0  0  0  0  0  0  0  0  0  0  0  0
   -0.6681   -0.1671    1.1982 C   0  0  0  0  0  0  0  0  0  0  0  0
   -4.0395   -0.6199    0.0744 O   0  0  0  0  0  0  0  0  0  0  0  0
   -4.7113   -1.1760   -1.0743 C   0  0  0  0  0  0  0  0  0  0  0  0
   -3.9795   -2.3895   -1.5471 C   0  0  0  0  0  0  0  0  0  0  0  0
   -3.6272   -3.3721   -0.6195 C   0  0  0  0  0  0  0  0  0  0  0  0
   -2.8040   -4.4255   -1.0036 C   0  0  0  0  0  0  0  0  0  0  0  0
   -2.3379   -4.4956   -2.3179 C   0  0  0  0  0  0  0  0  0  0  0  0
   -2.7595   -3.5599   -3.2656 C   0  0  0  0  0  0  0  0  0  0  0  0
   -3.5825   -2.5066   -2.8794 C   0  0  0  0  0  0  0  0  0  0  0  0
   -1.3738   -5.5302   -2.7133 C   0  0  0  0  0  0  0  0  0  0  0  0
   -1.7545   -6.5466   -3.5908 C   0  0  0  0  0  0  0  0  0  0  0  0
   -0.8266   -7.5049   -3.9922 C   0  0  0  0  0  0  0  0  0  0  0  0
    0.4877   -7.4508   -3.5277 C   0  0  0  0  0  0  0  0  0  0  0  0
    0.8756   -6.4445   -2.6486 C   0  0  0  0  0  0  0  0  0  0  0  0
   -0.0580   -5.4906   -2.2331 C   0  0  0  0  0  0  0  0  0  0  0  0
    0.3569   -4.4556   -1.3032 C   0  0  0  0  0  0  0  0  0  0  0  0
    0.5848   -4.6832    0.0646 N   0  0  0  0  0  0  0  0  0  0  0  0
    0.5326   -5.5312    0.6064 H   0  0  0  0  0  0  0  0  0  0  0  0
    0.9542   -3.5015    0.6268 N   0  0  0  0  0  0  0  0  0  0  0  0
    0.9585   -2.6092   -0.3149 N   0  0  0  0  0  0  0  0  0  0  0  0
    0.5997   -3.1354   -1.5028 N   0  0  0  0  0  0  0  0  0  0  0  0
   -0.4583    0.0080   -3.3514 H   0  0  0  0  0  0  0  0  0  0  0  0
    0.9065   -0.7027   -2.5050 H   0  0  0  0  0  0  0  0  0  0  0  0
    0.1767    2.3272   -2.4277 H   0  0  0  0  0  0  0  0  0  0  0  0
    1.4267    1.6058   -3.4419 H   0  0  0  0  0  0  0  0  0  0  0  0
    1.6221    1.6099   -1.6934 H   0  0  0  0  0  0  0  0  0  0  0  0
   -2.5618   -0.1466   -2.1858 H   0  0  0  0  0  0  0  0  0  0  0  0
   -3.3005    0.4846    2.7343 H   0  0  0  0  0  0  0  0  0  0  0  0
   -3.6442   -1.2046    2.3546 H   0  0  0  0  0  0  0  0  0  0  0  0
   -2.4600   -0.8813    4.5927 H   0  0  0  0  0  0  0  0  0  0  0  0
   -1.6219   -1.9951    3.5109 H   0  0  0  0  0  0  0  0  0  0  0  0
   -0.0439   -0.3093    4.5873 H   0  0  0  0  0  0  0  0  0  0  0  0
   -0.9387    1.0111    3.8281 H   0  0  0  0  0  0  0  0  0  0  0  0
    0.7024   -1.2215    2.4558 H   0  0  0  0  0  0  0  0  0  0  0  0
    0.9983    0.5276    2.4041 H   0  0  0  0  0  0  0  0  0  0  0  0
   -4.8350   -0.3871   -1.8371 H   0  0  0  0  0  0  0  0  0  0  0  0
   -5.7041   -1.4084   -0.6268 H   0  0  0  0  0  0  0  0  0  0  0  0
   -3.9830   -3.3059    0.4096 H   0  0  0  0  0  0  0  0  0  0  0  0
   -2.5251   -5.1923   -0.2827 H   0  0  0  0  0  0  0  0  0  0  0  0
   -2.4259   -3.6459   -4.3011 H   0  0  0  0  0  0  0  0  0  0  0  0
   -3.9032   -1.7741   -3.6203 H   0  0  0  0  0  0  0  0  0  0  0  0
   -2.7817   -6.5863   -3.9581 H   0  0  0  0  0  0  0  0  0  0  0  0
   -1.1294   -8.3004   -4.6772 H   0  0  0  0  0  0  0  0  0  0  0  0
    1.2147   -8.1966   -3.8554 H   0  0  0  0  0  0  0  0  0  0  0  0
    1.9062   -6.3933   -2.2948 H   0  0  0  0  0  0  0  0  0  0  0  0
  1  2  1  0  0  0  0
  1 13  1  0  0  0  0
  3  4  1  6  0  0  0
  3  1  1  0  0  0  0
  5  4  1  0  0  0  0
  5 36  1  0  0  0  0
  5 38  1  0  0  0  0
  6  3  1  0  0  0  0
  6  7  2  0  0  0  0
  7 14  1  0  0  0  0
  7  8  1  0  0  0  0
  8  9  1  0  0  0  0
  9 40  1  0  0  0  0
  9 10  1  0  0  0  0
 10 11  1  0  0  0  0
 10 42  1  0  0  0  0
 11 45  1  0  0  0  0
 11 44  1  0  0  0  0
 12 46  1  0  0  0  0
 12 11  1  0  0  0  0
 13  8  2  0  0  0  0
 13 12  1  0  0  0  0
 15 49  1  0  0  0  0
 15 14  1  0  0  0  0
 16 15  1  0  0  0  0
 16 17  2  0  0  0  0
 17 50  1  0  0  0  0
 18 17  1  0  0  0  0
 18 51  1  0  0  0  0
 19 18  2  0  0  0  0
 20 21  2  0  0  0  0
 20 19  1  0  0  0  0
 21 16  1  0  0  0  0
 22 19  1  0  0  0  0
 22 27  2  0  0  0  0
 23 22  1  0  0  0  0
 24 23  2  0  0  0  0
 24 25  1  0  0  0  0
 25 26  2  0  0  0  0
 26 57  1  0  0  0  0
 26 27  1  0  0  0  0
 27 28  1  0  0  0  0
 28 29  1  0  0  0  0
 29 30  1  0  0  0  0
 29 31  1  0  0  0  0
 32 31  2  0  0  0  0
 33 28  2  0  0  0  0
 33 32  1  0  0  0  0
 34  4  1  0  0  0  0
 35  4  1  0  0  0  0
 37  5  1  0  0  0  0
 39  6  1  0  0  0  0
 41  9  1  0  0  0  0
 43 10  1  0  0  0  0
 47 12  1  0  0  0  0
 48 15  1  0  0  0  0
 52 20  1  0  0  0  0
 53 21  1  0  0  0  0
 54 23  1  0  0  0  0
 55 24  1  0  0  0  0
 56 25  1  0  0  0  0
M  END
$$$$
