rmsd59.gzmat
 OpenBabel08211713403D

 42 45  0  0  0  0  0  0  0  0999 V2000
    0.0000    0.0000    0.0000 O   0  0  0  0  0  0  0  0  0  0  0  0
    1.3645    0.0000    0.0000 C   0  0  0  0  0  0  0  0  0  0  0  0
    2.1799    0.0000    1.1276 C   0  0  0  0  0  0  0  0  0  0  0  0
    3.5632    0.0104    0.9624 C   0  0  0  0  0  0  0  0  0  0  0  0
    4.1196    0.0367   -0.3211 C   0  0  0  0  0  0  0  0  0  0  0  0
    5.5104    0.1343   -0.5570 N   0  0  0  0  0  0  0  0  0  0  0  0
    6.3921    0.3651    0.5004 C   0  0  0  0  0  0  0  0  0  0  0  0
    6.3272    1.4623    1.4346 C   0  0  0  0  0  0  0  0  0  0  0  0
    5.4229    2.5084    1.6473 C   0  0  0  0  0  0  0  0  0  0  0  0
    5.6822    3.4154    2.6567 C   0  0  0  0  0  0  0  0  0  0  0  0
    6.8363    3.3035    3.4651 C   0  0  0  0  0  0  0  0  0  0  0  0
    7.7579    2.2930    3.2778 C   0  0  0  0  0  0  0  0  0  0  0  0
    7.5021    1.3727    2.2483 C   0  0  0  0  0  0  0  0  0  0  0  0
    8.2595    0.2957    1.8122 N   0  0  0  0  0  0  0  0  0  0  0  0
    9.0993   -0.0409    2.2201 H   0  0  0  0  0  0  0  0  0  0  0  0
    7.5757   -0.3351    0.7563 C   0  0  0  0  0  0  0  0  0  0  0  0
    8.1186   -1.4997    0.0846 C   0  0  0  0  0  0  0  0  0  0  0  0
    9.4478   -1.5161   -0.3502 C   0  0  0  0  0  0  0  0  0  0  0  0
    9.9476   -2.6345   -1.0122 C   0  0  0  0  0  0  0  0  0  0  0  0
    9.1265   -3.7373   -1.2411 C   0  0  0  0  0  0  0  0  0  0  0  0
    7.8022   -3.7233   -0.8049 C   0  0  0  0  0  0  0  0  0  0  0  0
    7.2966   -2.6089   -0.1421 C   0  0  0  0  0  0  0  0  0  0  0  0
    3.2802    0.0119   -1.4548 C   0  0  0  0  0  0  0  0  0  0  0  0
    1.9059   -0.0058   -1.2966 C   0  0  0  0  0  0  0  0  0  0  0  0
   -0.6419    0.0267    1.2660 C   0  0  0  0  0  0  0  0  0  0  0  0
    1.7618   -0.0107    2.1290 H   0  0  0  0  0  0  0  0  0  0  0  0
    4.2084   -0.0016    1.8411 H   0  0  0  0  0  0  0  0  0  0  0  0
    5.8733   -0.4499   -1.3064 H   0  0  0  0  0  0  0  0  0  0  0  0
    4.5376    2.5932    1.0168 H   0  0  0  0  0  0  0  0  0  0  0  0
    4.9932    4.2361    2.8405 H   0  0  0  0  0  0  0  0  0  0  0  0
    6.9941    4.0403    4.2519 H   0  0  0  0  0  0  0  0  0  0  0  0
    8.6459    2.2075    3.8918 H   0  0  0  0  0  0  0  0  0  0  0  0
   10.0861   -0.6497   -0.1860 H   0  0  0  0  0  0  0  0  0  0  0  0
   10.9806   -2.6456   -1.3555 H   0  0  0  0  0  0  0  0  0  0  0  0
    9.5185   -4.6098   -1.7595 H   0  0  0  0  0  0  0  0  0  0  0  0
    7.1637   -4.5872   -0.9802 H   0  0  0  0  0  0  0  0  0  0  0  0
    6.2662   -2.6008    0.2129 H   0  0  0  0  0  0  0  0  0  0  0  0
    3.7159    0.0238   -2.4521 H   0  0  0  0  0  0  0  0  0  0  0  0
    1.2382   -0.0173   -2.1550 H   0  0  0  0  0  0  0  0  0  0  0  0
   -1.7049    0.0323    0.9889 H   0  0  0  0  0  0  0  0  0  0  0  0
   -0.3851    0.9374    1.8162 H   0  0  0  0  0  0  0  0  0  0  0  0
   -0.4055   -0.8722    1.8432 H   0  0  0  0  0  0  0  0  0  0  0  0
  1  2  1  0  0  0  0
  1 25  1  0  0  0  0
  2  3  2  0  0  0  0
  3 26  1  0  0  0  0
  4  3  1  0  0  0  0
  4 27  1  0  0  0  0
  5  4  2  0  0  0  0
  6  5  1  0  0  0  0
  6  7  1  0  0  0  0
  7 16  2  0  0  0  0
  7  8  1  0  0  0  0
  8  9  2  0  0  0  0
  8 13  1  0  0  0  0
  9 10  1  0  0  0  0
 10 30  1  0  0  0  0
 10 11  2  0  0  0  0
 11 31  1  0  0  0  0
 12 11  1  0  0  0  0
 12 32  1  0  0  0  0
 13 12  2  0  0  0  0
 14 15  1  0  0  0  0
 14 13  1  0  0  0  0
 16 14  1  0  0  0  0
 17 16  1  0  0  0  0
 18 33  1  0  0  0  0
 18 17  2  0  0  0  0
 19 18  1  0  0  0  0
 20 19  2  0  0  0  0
 20 21  1  0  0  0  0
 21 22  2  0  0  0  0
 22 17  1  0  0  0  0
 22 37  1  0  0  0  0
 23 24  2  0  0  0  0
 23  5  1  0  0  0  0
 24  2  1  0  0  0  0
 25 41  1  0  0  0  0
 25 42  1  0  0  0  0
 28  6  1  0  0  0  0
 29  9  1  0  0  0  0
 34 19  1  0  0  0  0
 35 20  1  0  0  0  0
 36 21  1  0  0  0  0
 38 23  1  0  0  0  0
 39 24  1  0  0  0  0
 40 25  1  0  0  0  0
M  END
$$$$
