rmsd50.gzmat
 OpenBabel08211713403D

 42 45  0  0  0  0  0  0  0  0999 V2000
    0.0000    0.0000    0.0000 O   0  0  0  0  0  0  0  0  0  0  0  0
    1.3648    0.0000    0.0000 C   0  0  0  0  0  0  0  0  0  0  0  0
    2.1807    0.0000    1.1271 C   0  0  0  0  0  0  0  0  0  0  0  0
    3.5640    0.0136    0.9617 C   0  0  0  0  0  0  0  0  0  0  0  0
    4.1207    0.0066   -0.3220 C   0  0  0  0  0  0  0  0  0  0  0  0
    5.5125   -0.0643   -0.5607 N   0  0  0  0  0  0  0  0  0  0  0  0
    6.4052   -0.1571    0.5116 C   0  0  0  0  0  0  0  0  0  0  0  0
    6.4381   -1.2055    1.5012 C   0  0  0  0  0  0  0  0  0  0  0  0
    5.6350   -2.3199    1.7659 C   0  0  0  0  0  0  0  0  0  0  0  0
    5.9663   -3.1383    2.8284 C   0  0  0  0  0  0  0  0  0  0  0  0
    7.0941   -2.8711    3.6376 C   0  0  0  0  0  0  0  0  0  0  0  0
    7.9188   -1.7904    3.3984 C   0  0  0  0  0  0  0  0  0  0  0  0
    7.5889   -0.9589    2.3159 C   0  0  0  0  0  0  0  0  0  0  0  0
    8.2406    0.1649    1.8275 N   0  0  0  0  0  0  0  0  0  0  0  0
    9.0520    0.5910    2.2084 H   0  0  0  0  0  0  0  0  0  0  0  0
    7.5096    0.6689    0.7390 C   0  0  0  0  0  0  0  0  0  0  0  0
    7.9323    1.8595    0.0254 C   0  0  0  0  0  0  0  0  0  0  0  0
    7.0387    2.9245   -0.1280 C   0  0  0  0  0  0  0  0  0  0  0  0
    7.4376    4.0710   -0.8093 C   0  0  0  0  0  0  0  0  0  0  0  0
    8.7255    4.1589   -1.3365 C   0  0  0  0  0  0  0  0  0  0  0  0
    9.6145    3.0954   -1.1880 C   0  0  0  0  0  0  0  0  0  0  0  0
    9.2202    1.9441   -0.5109 C   0  0  0  0  0  0  0  0  0  0  0  0
    3.2795    0.0187   -1.4547 C   0  0  0  0  0  0  0  0  0  0  0  0
    1.9055    0.0181   -1.2960 C   0  0  0  0  0  0  0  0  0  0  0  0
   -0.6399   -0.1257    1.2612 C   0  0  0  0  0  0  0  0  0  0  0  0
    1.7632   -0.0036    2.1286 H   0  0  0  0  0  0  0  0  0  0  0  0
    4.2080    0.0326    1.8412 H   0  0  0  0  0  0  0  0  0  0  0  0
    5.8483    0.4869   -1.3482 H   0  0  0  0  0  0  0  0  0  0  0  0
    4.7713   -2.5244    1.1332 H   0  0  0  0  0  0  0  0  0  0  0  0
    5.3567   -4.0093    3.0547 H   0  0  0  0  0  0  0  0  0  0  0  0
    7.3106   -3.5440    4.4666 H   0  0  0  0  0  0  0  0  0  0  0  0
    8.7868   -1.5857    4.0130 H   0  0  0  0  0  0  0  0  0  0  0  0
    6.0369    2.8567    0.2963 H   0  0  0  0  0  0  0  0  0  0  0  0
    6.7442    4.9022   -0.9257 H   0  0  0  0  0  0  0  0  0  0  0  0
    9.0371    5.0576   -1.8650 H   0  0  0  0  0  0  0  0  0  0  0  0
   10.6179    3.1629   -1.6042 H   0  0  0  0  0  0  0  0  0  0  0  0
    9.9070    1.1052   -0.4118 H   0  0  0  0  0  0  0  0  0  0  0  0
    3.7126    0.0136   -2.4530 H   0  0  0  0  0  0  0  0  0  0  0  0
    1.2375    0.0270   -2.1542 H   0  0  0  0  0  0  0  0  0  0  0  0
   -1.7025   -0.1420    0.9832 H   0  0  0  0  0  0  0  0  0  0  0  0
   -0.4252    0.7393    1.8962 H   0  0  0  0  0  0  0  0  0  0  0  0
   -0.3592   -1.0636    1.7508 H   0  0  0  0  0  0  0  0  0  0  0  0
  1  2  1  0  0  0  0
  1 25  1  0  0  0  0
  2  3  2  0  0  0  0
  3 26  1  0  0  0  0
  4  3  1  0  0  0  0
  4 27  1  0  0  0  0
  5  4  2  0  0  0  0
  6  5  1  0  0  0  0
  6  7  1  0  0  0  0
  7 16  2  0  0  0  0
  7  8  1  0  0  0  0
  8  9  2  0  0  0  0
  8 13  1  0  0  0  0
  9 10  1  0  0  0  0
 10 30  1  0  0  0  0
 10 11  2  0  0  0  0
 11 31  1  0  0  0  0
 12 11  1  0  0  0  0
 12 32  1  0  0  0  0
 13 12  2  0  0  0  0
 14 15  1  0  0  0  0
 14 13  1  0  0  0  0
 16 14  1  0  0  0  0
 17 16  1  0  0  0  0
 18 17  1  0  0  0  0
 18 33  1  0  0  0  0
 19 18  2  0  0  0  0
 20 21  2  0  0  0  0
 20 19  1  0  0  0  0
 21 22  1  0  0  0  0
 22 37  1  0  0  0  0
 22 17  2  0  0  0  0
 23 24  2  0  0  0  0
 23  5  1  0  0  0  0
 24  2  1  0  0  0  0
 25 42  1  0  0  0  0
 25 41  1  0  0  0  0
 28  6  1  0  0  0  0
 29  9  1  0  0  0  0
 34 19  1  0  0  0  0
 35 20  1  0  0  0  0
 36 21  1  0  0  0  0
 38 23  1  0  0  0  0
 39 24  1  0  0  0  0
 40 25  1  0  0  0  0
M  END
$$$$
