
     RDKit          3D

 42 45  0  0  0  0  0  0  0  0999 V2000
   -0.0222   -0.3583   -0.0210 O   0  0  0  0  0  0  0  0  0  0  0  0
    1.3301   -0.1843   -0.0568 C   0  0  0  0  0  0  0  0  0  0  0  0
    2.1511   -0.0636    1.0704 C   0  0  0  0  0  0  0  0  0  0  0  0
    3.5329    0.1101    0.9282 C   0  0  0  0  0  0  0  0  0  0  0  0
    4.1240    0.1826   -0.3416 C   0  0  0  0  0  0  0  0  0  0  0  0
    5.4968    0.3765   -0.5214 N   0  0  0  0  0  0  0  0  0  0  0  0
    6.4262    0.4642    0.5209 C   0  0  0  0  0  0  0  0  0  0  0  0
    6.5190    1.5285    1.4890 C   0  0  0  0  0  0  0  0  0  0  0  0
    5.7463    2.6734    1.7549 C   0  0  0  0  0  0  0  0  0  0  0  0
    6.1228    3.5050    2.8042 C   0  0  0  0  0  0  0  0  0  0  0  0
    7.2598    3.2167    3.5914 C   0  0  0  0  0  0  0  0  0  0  0  0
    8.0498    2.0977    3.3400 C   0  0  0  0  0  0  0  0  0  0  0  0
    7.6740    1.2633    2.2794 C   0  0  0  0  0  0  0  0  0  0  0  0
    8.2634    0.1223    1.7826 N   0  0  0  0  0  0  0  0  0  0  0  0
    9.0304   -0.3715    2.2171 H   0  0  0  0  0  0  0  0  0  0  0  0
    7.4970   -0.3957    0.7425 C   0  0  0  0  0  0  0  0  0  0  0  0
    7.8825   -1.6179    0.0374 C   0  0  0  0  0  0  0  0  0  0  0  0
    6.9056   -2.4617   -0.5315 C   0  0  0  0  0  0  0  0  0  0  0  0
    7.2772   -3.6287   -1.1975 C   0  0  0  0  0  0  0  0  0  0  0  0
    8.6254   -3.9862   -1.3060 C   0  0  0  0  0  0  0  0  0  0  0  0
    9.6025   -3.1623   -0.7409 C   0  0  0  0  0  0  0  0  0  0  0  0
    9.2368   -1.9888   -0.0809 C   0  0  0  0  0  0  0  0  0  0  0  0
    3.2876    0.0587   -1.4704 C   0  0  0  0  0  0  0  0  0  0  0  0
    1.9187   -0.1268   -1.3305 C   0  0  0  0  0  0  0  0  0  0  0  0
   -0.6568   -0.4244    1.2305 C   0  0  0  0  0  0  0  0  0  0  0  0
    1.7335   -0.1102    2.0760 H   0  0  0  0  0  0  0  0  0  0  0  0
    4.1557    0.1891    1.8193 H   0  0  0  0  0  0  0  0  0  0  0  0
    5.8633    0.0697   -1.4145 H   0  0  0  0  0  0  0  0  0  0  0  0
    4.8662    2.8936    1.1478 H   0  0  0  0  0  0  0  0  0  0  0  0
    5.5328    4.3971    3.0263 H   0  0  0  0  0  0  0  0  0  0  0  0
    7.5272    3.8866    4.4121 H   0  0  0  0  0  0  0  0  0  0  0  0
    8.9330    1.8814    3.9456 H   0  0  0  0  0  0  0  0  0  0  0  0
    5.8498   -2.2112   -0.4219 H   0  0  0  0  0  0  0  0  0  0  0  0
    6.5050   -4.2727   -1.6252 H   0  0  0  0  0  0  0  0  0  0  0  0
    8.9120   -4.9030   -1.8263 H   0  0  0  0  0  0  0  0  0  0  0  0
   10.6590   -3.4290   -0.8241 H   0  0  0  0  0  0  0  0  0  0  0  0
   10.0131   -1.3358    0.3255 H   0  0  0  0  0  0  0  0  0  0  0  0
    3.7262    0.1137   -2.4708 H   0  0  0  0  0  0  0  0  0  0  0  0
    1.2732   -0.2252   -2.2055 H   0  0  0  0  0  0  0  0  0  0  0  0
   -1.7292   -0.5623    1.0359 H   0  0  0  0  0  0  0  0  0  0  0  0
   -0.5169    0.5040    1.8152 H   0  0  0  0  0  0  0  0  0  0  0  0
   -0.2919   -1.2753    1.8356 H   0  0  0  0  0  0  0  0  0  0  0  0
  1  2  1  0
  1 25  1  0
  2  3  2  0
  2 24  1  0
  3  4  1  0
  3 26  1  0
  4  5  2  0
  4 27  1  0
  5  6  1  0
  5 23  1  0
  6  7  1  0
  6 28  1  0
  7  8  1  0
  7 16  2  0
  8  9  2  0
  8 13  1  0
  9 10  1  0
  9 29  1  0
 10 11  2  0
 10 30  1  0
 11 12  1  0
 11 31  1  0
 12 13  2  0
 12 32  1  0
 13 14  1  0
 14 15  1  0
 14 16  1  0
 16 17  1  0
 17 18  2  0
 17 22  1  0
 18 19  1  0
 18 33  1  0
 19 20  2  0
 19 34  1  0
 20 21  1  0
 20 35  1  0
 21 22  2  0
 21 36  1  0
 22 37  1  0
 23 24  2  0
 23 38  1  0
 24 39  1  0
 25 40  1  0
 25 41  1  0
 25 42  1  0
M  END

