42
rmsd64.gzmat
O          0.00000        0.00000        0.00000
C          1.36460        0.00000        0.00000
C          2.17970        0.00000        1.12770
C          3.56280        0.00700        0.96180
C          4.11890        0.02660       -0.32220
N          5.50980        0.12420       -0.55660
C          6.39110        0.24610        0.52260
C          6.39900        1.31680        1.48810
C          5.57870        2.42700        1.71590
C          5.88720        3.27490        2.76210
C          7.00710        3.04020        3.59180
C          7.84530        1.96170        3.39170
C          7.53990        1.10050        2.32550
N          8.20780       -0.02960        1.87500
H          9.01600       -0.43980        2.27950
C          7.49840       -0.56580        0.78630
C          7.93600       -1.77150        0.10960
C          7.01110       -2.79210       -0.13640
C          7.41660       -3.95390       -0.78630
C          8.74200       -4.10170       -1.19280
C          9.66410       -3.08490       -0.94930
C          9.26530       -1.92000       -0.29880
C          3.27890        0.00310       -1.45550
C          1.90480       -0.00820       -1.29650
C         -0.64060        0.04420        1.26570
H          1.76150       -0.01050        2.12900
H          4.20760       -0.00470        1.84060
H          5.86300       -0.42340       -1.33840
H          4.72040        2.60480        1.06810
H          5.26660        4.14520        2.95930
H          7.20680        3.73720        4.40500
H          8.70520        1.78210        4.02500
H          5.97770       -2.67850        0.19300
H          6.69780       -4.74990       -0.97360
H          9.05730       -5.01120       -1.69970
H         10.69760       -3.19980       -1.27110
H          9.98180       -1.11970       -0.12280
H          3.71280        0.00950       -2.45340
H          1.23590       -0.01770       -2.15420
H         -1.70310        0.05720        0.98820
H         -0.37740        0.95820        1.80750
H         -0.40930       -0.85070        1.85160
