
     RDKit          3D

 42 45  0  0  0  0  0  0  0  0999 V2000
   -0.1268    0.0040   -0.0825 O   0  0  0  0  0  0  0  0  0  0  0  0
    1.2348   -0.0078   -0.0018 C   0  0  0  0  0  0  0  0  0  0  0  0
    1.7853   -0.1115    1.2845 C   0  0  0  0  0  0  0  0  0  0  0  0
    3.1623   -0.1300    1.4771 C   0  0  0  0  0  0  0  0  0  0  0  0
    4.0415   -0.0574    0.3778 C   0  0  0  0  0  0  0  0  0  0  0  0
    5.4303   -0.0904    0.5319 N   0  0  0  0  0  0  0  0  0  0  0  0
    6.0921   -0.1411    1.7638 C   0  0  0  0  0  0  0  0  0  0  0  0
    6.0826   -1.2462    2.6896 C   0  0  0  0  0  0  0  0  0  0  0  0
    5.4118   -2.4821    2.7242 C   0  0  0  0  0  0  0  0  0  0  0  0
    5.6285   -3.3303    3.8048 C   0  0  0  0  0  0  0  0  0  0  0  0
    6.5064   -2.9689    4.8510 C   0  0  0  0  0  0  0  0  0  0  0  0
    7.1935   -1.7577    4.8338 C   0  0  0  0  0  0  0  0  0  0  0  0
    6.9800   -0.9061    3.7422 C   0  0  0  0  0  0  0  0  0  0  0  0
    7.5285    0.3201    3.4395 N   0  0  0  0  0  0  0  0  0  0  0  0
    8.1065    0.8672    4.0621 H   0  0  0  0  0  0  0  0  0  0  0  0
    6.9707    0.8145    2.2641 C   0  0  0  0  0  0  0  0  0  0  0  0
    7.3623    2.1116    1.7129 C   0  0  0  0  0  0  0  0  0  0  0  0
    6.4536    2.8771    0.9523 C   0  0  0  0  0  0  0  0  0  0  0  0
    6.8291    4.1159    0.4349 C   0  0  0  0  0  0  0  0  0  0  0  0
    8.1117    4.6240    0.6676 C   0  0  0  0  0  0  0  0  0  0  0  0
    9.0192    3.8783    1.4248 C   0  0  0  0  0  0  0  0  0  0  0  0
    8.6515    2.6341    1.9378 C   0  0  0  0  0  0  0  0  0  0  0  0
    3.4845    0.0489   -0.9062 C   0  0  0  0  0  0  0  0  0  0  0  0
    2.1005    0.0789   -1.1000 C   0  0  0  0  0  0  0  0  0  0  0  0
   -0.7233    0.1032   -1.3501 C   0  0  0  0  0  0  0  0  0  0  0  0
    1.1034   -0.1700    2.1352 H   0  0  0  0  0  0  0  0  0  0  0  0
    3.5653   -0.1990    2.4875 H   0  0  0  0  0  0  0  0  0  0  0  0
    5.9606    0.2982   -0.2386 H   0  0  0  0  0  0  0  0  0  0  0  0
    4.7309   -2.7592    1.9171 H   0  0  0  0  0  0  0  0  0  0  0  0
    5.1135   -4.2926    3.8494 H   0  0  0  0  0  0  0  0  0  0  0  0
    6.6516   -3.6543    5.6893 H   0  0  0  0  0  0  0  0  0  0  0  0
    7.8774   -1.4840    5.6407 H   0  0  0  0  0  0  0  0  0  0  0  0
    5.4400    2.5069    0.7945 H   0  0  0  0  0  0  0  0  0  0  0  0
    6.1082    4.6971   -0.1452 H   0  0  0  0  0  0  0  0  0  0  0  0
    8.4008    5.5965    0.2628 H   0  0  0  0  0  0  0  0  0  0  0  0
   10.0255    4.2628    1.6085 H   0  0  0  0  0  0  0  0  0  0  0  0
    9.3823    2.0461    2.4982 H   0  0  0  0  0  0  0  0  0  0  0  0
    4.1469    0.1055   -1.7746 H   0  0  0  0  0  0  0  0  0  0  0  0
    1.7146    0.1654   -2.1156 H   0  0  0  0  0  0  0  0  0  0  0  0
   -1.8103    0.0919   -1.1915 H   0  0  0  0  0  0  0  0  0  0  0  0
   -0.4498   -0.7457   -2.0045 H   0  0  0  0  0  0  0  0  0  0  0  0
   -0.4485    1.0428   -1.8653 H   0  0  0  0  0  0  0  0  0  0  0  0
  1  2  1  0
  1 25  1  0
  2  3  2  0
  2 24  1  0
  3  4  1  0
  3 26  1  0
  4  5  2  0
  4 27  1  0
  5  6  1  0
  5 23  1  0
  6  7  1  0
  6 28  1  0
  7  8  1  0
  7 16  2  0
  8  9  2  0
  8 13  1  0
  9 10  1  0
  9 29  1  0
 10 11  2  0
 10 30  1  0
 11 12  1  0
 11 31  1  0
 12 13  2  0
 12 32  1  0
 13 14  1  0
 14 15  1  0
 14 16  1  0
 16 17  1  0
 17 18  2  0
 17 22  1  0
 18 19  1  0
 18 33  1  0
 19 20  2  0
 19 34  1  0
 20 21  1  0
 20 35  1  0
 21 22  2  0
 21 36  1  0
 22 37  1  0
 23 24  2  0
 23 38  1  0
 24 39  1  0
 25 40  1  0
 25 41  1  0
 25 42  1  0
M  END

