42
rmsd15.gzmat
O          0.00000        0.00000        0.00000
C          1.36480        0.00000        0.00000
C          1.90610        0.00000        1.29470
C          3.28170        0.01200        1.45290
C          4.12020        0.01020        0.32400
N          5.52920       -0.05370        0.41830
C          6.14520       -0.11050        1.67370
C          5.99050       -1.16560        2.64310
C          5.19750       -2.31620        2.70920
C          5.31390       -3.13800        3.81350
C          6.21040       -2.83420        4.86320
C          7.01490       -1.71270        4.82930
C          6.90610       -0.87870        3.70520
N          7.60150        0.28010        3.38620
H          8.26810        0.74540        3.95570
C          7.12520        0.76230        2.15590
C          7.65220        1.96900        1.54770
C          6.76710        2.95390        1.09650
C          7.26140        4.10450        0.48920
C          8.63590        4.27530        0.32900
C          9.51860        3.29460        0.77910
C          9.03090        2.14340        1.39200
C          3.56220        0.01960       -0.96440
C          2.18010        0.01160       -1.12890
C         -0.64250       -0.04790       -1.26440
H          1.24030       -0.00500        2.15500
H          3.71180        0.02550        2.45520
H          6.03800        0.48420       -0.28050
H          4.50940       -2.54360        1.89510
H          4.71000       -4.03910        3.88670
H          6.26120       -3.50910        5.71690
H          7.70500       -1.48000        5.63100
H          5.69320        2.82150        1.23150
H          6.57350        4.87400        0.14260
H          9.02000        5.17550       -0.14620
H         10.59090        3.42620        0.64710
H          9.71960        1.37360        1.73540
H          4.20880        0.02140       -1.83910
H          1.75880        0.01220       -2.12850
H         -1.70520       -0.05220       -0.98550
H         -0.38630       -0.96780       -1.79910
H         -0.40630        0.84070       -1.85810
