42
rmsd13.gzmat
O          0.00000        0.00000        0.00000
C          1.36450        0.00000        0.00000
C          1.90590        0.00000        1.29490
C          3.28130        0.00210        1.45210
C          4.11960        0.02100        0.32270
N          5.52690        0.11400        0.42030
C          6.13150        0.21350        1.67850
C          5.93600        1.28440        2.62340
C          5.10230        2.40740        2.66150
C          5.17120        3.24640        3.75690
C          6.06390        2.99040        4.82250
C          6.90950        1.89910        4.81520
C          6.84580        1.04480        3.70270
N          7.57850       -0.09920        3.41520
H          8.24530       -0.53750        4.00590
C          7.12500       -0.62570        2.19200
C          7.67040       -1.84900        1.63570
C          6.79860       -2.83420        1.15810
C          7.30890       -4.01120        0.61840
C          8.68730       -4.21260        0.55780
C          9.55650       -3.23160        1.03240
C          9.05260       -2.04920        1.56820
C          3.56190        0.00170       -0.96540
C          2.17960       -0.00870       -1.12940
C         -0.64460        0.04210       -1.26330
H          1.24060       -0.00530        2.15560
H          3.71360       -0.01270        2.45370
H          6.05150       -0.42530       -0.26480
H          4.41980        2.60060        1.83370
H          4.53170        4.12420        3.81120
H          6.07790        3.67870        5.66670
H          7.59510        1.70270        5.63010
H          5.72070       -2.68220        1.22070
H          6.63060       -4.77770        0.24730
H          9.08530       -5.13490        0.13980
H         10.63250       -3.38840        0.98110
H          9.73300       -1.27540        1.91930
H          4.20820        0.00970       -1.84010
H          1.75840       -0.01930       -2.12900
H         -1.70580        0.06940       -0.98060
H         -0.42670       -0.86010       -1.84300
H         -0.37580        0.94830       -1.81450
