rmsd49.gzmat
 OpenBabel08211713403D

 42 45  0  0  0  0  0  0  0  0999 V2000
    0.0000    0.0000    0.0000 O   0  0  0  0  0  0  0  0  0  0  0  0
    1.3649    0.0000    0.0000 C   0  0  0  0  0  0  0  0  0  0  0  0
    2.1801    0.0000    1.1277 C   0  0  0  0  0  0  0  0  0  0  0  0
    3.5634    0.0125    0.9628 C   0  0  0  0  0  0  0  0  0  0  0  0
    4.1204    0.0028   -0.3208 C   0  0  0  0  0  0  0  0  0  0  0  0
    5.5116   -0.0778   -0.5590 N   0  0  0  0  0  0  0  0  0  0  0  0
    6.4009   -0.1987    0.5127 C   0  0  0  0  0  0  0  0  0  0  0  0
    6.4064   -1.2557    1.4937 C   0  0  0  0  0  0  0  0  0  0  0  0
    5.5785   -2.3553    1.7433 C   0  0  0  0  0  0  0  0  0  0  0  0
    5.8837   -3.1878    2.8027 C   0  0  0  0  0  0  0  0  0  0  0  0
    7.0108   -2.9503    3.6219 C   0  0  0  0  0  0  0  0  0  0  0  0
    7.8602   -1.8855    3.3971 C   0  0  0  0  0  0  0  0  0  0  0  0
    7.5563   -1.0386    2.3188 C   0  0  0  0  0  0  0  0  0  0  0  0
    8.2355    0.0739    1.8424 N   0  0  0  0  0  0  0  0  0  0  0  0
    9.0452    0.4876    2.2400 H   0  0  0  0  0  0  0  0  0  0  0  0
    7.5209    0.6027    0.7524 C   0  0  0  0  0  0  0  0  0  0  0  0
    7.9767    1.7867    0.0485 C   0  0  0  0  0  0  0  0  0  0  0  0
    7.0902    2.8480   -0.1638 C   0  0  0  0  0  0  0  0  0  0  0  0
    7.5219    3.9893   -0.8337 C   0  0  0  0  0  0  0  0  0  0  0  0
    8.8359    4.0770   -1.2919 C   0  0  0  0  0  0  0  0  0  0  0  0
    9.7182    3.0174   -1.0868 C   0  0  0  0  0  0  0  0  0  0  0  0
    9.2912    1.8710   -0.4216 C   0  0  0  0  0  0  0  0  0  0  0  0
    3.2802    0.0230   -1.4541 C   0  0  0  0  0  0  0  0  0  0  0  0
    1.9061    0.0224   -1.2959 C   0  0  0  0  0  0  0  0  0  0  0  0
   -0.6384   -0.1648    1.2570 C   0  0  0  0  0  0  0  0  0  0  0  0
    1.7617   -0.0023    2.1289 H   0  0  0  0  0  0  0  0  0  0  0  0
    4.2070    0.0325    1.8427 H   0  0  0  0  0  0  0  0  0  0  0  0
    5.8552    0.4746   -1.3417 H   0  0  0  0  0  0  0  0  0  0  0  0
    4.7158   -2.5371    1.1020 H   0  0  0  0  0  0  0  0  0  0  0  0
    5.2527   -4.0461    3.0190 H   0  0  0  0  0  0  0  0  0  0  0  0
    7.2070   -3.6327    4.4482 H   0  0  0  0  0  0  0  0  0  0  0  0
    8.7279   -1.7046    4.0194 H   0  0  0  0  0  0  0  0  0  0  0  0
    6.0674    2.7829    0.2075 H   0  0  0  0  0  0  0  0  0  0  0  0
    6.8335    4.8170   -0.9956 H   0  0  0  0  0  0  0  0  0  0  0  0
    9.1726    4.9715   -1.8123 H   0  0  0  0  0  0  0  0  0  0  0  0
   10.7423    3.0861   -1.4494 H   0  0  0  0  0  0  0  0  0  0  0  0
    9.9738    1.0349   -0.2793 H   0  0  0  0  0  0  0  0  0  0  0  0
    3.7140    0.0245   -2.4522 H   0  0  0  0  0  0  0  0  0  0  0  0
    1.2385    0.0349   -2.1541 H   0  0  0  0  0  0  0  0  0  0  0  0
   -1.7006   -0.1895    0.9785 H   0  0  0  0  0  0  0  0  0  0  0  0
   -0.4353    0.6877    1.9123 H   0  0  0  0  0  0  0  0  0  0  0  0
   -0.3447   -1.1097    1.7246 H   0  0  0  0  0  0  0  0  0  0  0  0
  1  2  1  0  0  0  0
  1 25  1  0  0  0  0
  2  3  2  0  0  0  0
  3 26  1  0  0  0  0
  4  3  1  0  0  0  0
  4 27  1  0  0  0  0
  5  4  2  0  0  0  0
  6  5  1  0  0  0  0
  6  7  1  0  0  0  0
  7 16  2  0  0  0  0
  7  8  1  0  0  0  0
  8  9  2  0  0  0  0
  8 13  1  0  0  0  0
  9 10  1  0  0  0  0
 10 30  1  0  0  0  0
 10 11  2  0  0  0  0
 11 31  1  0  0  0  0
 12 11  1  0  0  0  0
 12 32  1  0  0  0  0
 13 12  2  0  0  0  0
 14 15  1  0  0  0  0
 14 13  1  0  0  0  0
 16 14  1  0  0  0  0
 17 16  1  0  0  0  0
 18 17  1  0  0  0  0
 18 33  1  0  0  0  0
 19 18  2  0  0  0  0
 20 21  2  0  0  0  0
 20 19  1  0  0  0  0
 21 22  1  0  0  0  0
 22 37  1  0  0  0  0
 22 17  2  0  0  0  0
 23 24  2  0  0  0  0
 23  5  1  0  0  0  0
 24  2  1  0  0  0  0
 25 42  1  0  0  0  0
 25 41  1  0  0  0  0
 28  6  1  0  0  0  0
 29  9  1  0  0  0  0
 34 19  1  0  0  0  0
 35 20  1  0  0  0  0
 36 21  1  0  0  0  0
 38 23  1  0  0  0  0
 39 24  1  0  0  0  0
 40 25  1  0  0  0  0
M  END
$$$$
