42

O         -0.02220       -0.35830       -0.02100
C          1.33010       -0.18430       -0.05680
C          2.15110       -0.06360        1.07040
C          3.53290        0.11010        0.92820
C          4.12400        0.18260       -0.34160
N          5.49680        0.37650       -0.52140
C          6.42620        0.46420        0.52090
C          6.51900        1.52850        1.48900
C          5.74630        2.67340        1.75490
C          6.12280        3.50500        2.80420
C          7.25980        3.21670        3.59140
C          8.04980        2.09770        3.34000
C          7.67400        1.26330        2.27940
N          8.26340        0.12230        1.78260
H          9.03040       -0.37150        2.21710
C          7.49700       -0.39570        0.74250
C          7.88250       -1.61790        0.03740
C          6.90560       -2.46170       -0.53150
C          7.27720       -3.62870       -1.19750
C          8.62540       -3.98620       -1.30600
C          9.60250       -3.16230       -0.74090
C          9.23680       -1.98880       -0.08090
C          3.28760        0.05870       -1.47040
C          1.91870       -0.12680       -1.33050
C         -0.65680       -0.42440        1.23050
H          1.73350       -0.11020        2.07600
H          4.15570        0.18910        1.81930
H          5.86330        0.06970       -1.41450
H          4.86620        2.89360        1.14780
H          5.53280        4.39710        3.02630
H          7.52720        3.88660        4.41210
H          8.93300        1.88140        3.94560
H          5.84980       -2.21120       -0.42190
H          6.50500       -4.27270       -1.62520
H          8.91200       -4.90300       -1.82630
H         10.65900       -3.42900       -0.82410
H         10.01310       -1.33580        0.32550
H          3.72620        0.11370       -2.47080
H          1.27320       -0.22520       -2.20550
H         -1.72920       -0.56230        1.03590
H         -0.51690        0.50400        1.81520
H         -0.29190       -1.27530        1.83560
