42
rmsd49.gzmat
O          0.00000        0.00000        0.00000
C          1.36490        0.00000        0.00000
C          2.18010        0.00000        1.12770
C          3.56340        0.01250        0.96280
C          4.12040        0.00280       -0.32080
N          5.51160       -0.07780       -0.55900
C          6.40090       -0.19870        0.51270
C          6.40640       -1.25570        1.49370
C          5.57850       -2.35530        1.74330
C          5.88370       -3.18780        2.80270
C          7.01080       -2.95030        3.62190
C          7.86020       -1.88550        3.39710
C          7.55630       -1.03860        2.31880
N          8.23550        0.07390        1.84240
H          9.04520        0.48760        2.24000
C          7.52090        0.60270        0.75240
C          7.97670        1.78670        0.04850
C          7.09020        2.84800       -0.16380
C          7.52190        3.98930       -0.83370
C          8.83590        4.07700       -1.29190
C          9.71820        3.01740       -1.08680
C          9.29120        1.87100       -0.42160
C          3.28020        0.02300       -1.45410
C          1.90610        0.02240       -1.29590
C         -0.63840       -0.16480        1.25700
H          1.76170       -0.00230        2.12890
H          4.20700        0.03250        1.84270
H          5.85520        0.47460       -1.34170
H          4.71580       -2.53710        1.10200
H          5.25270       -4.04610        3.01900
H          7.20700       -3.63270        4.44820
H          8.72790       -1.70460        4.01940
H          6.06740        2.78290        0.20750
H          6.83350        4.81700       -0.99560
H          9.17260        4.97150       -1.81230
H         10.74230        3.08610       -1.44940
H          9.97380        1.03490       -0.27930
H          3.71400        0.02450       -2.45220
H          1.23850        0.03490       -2.15410
H         -1.70060       -0.18950        0.97850
H         -0.43530        0.68770        1.91230
H         -0.34470       -1.10970        1.72460
