46
rmsd19.gzmat
C          0.00000        0.00000        0.00000
H          1.13320        0.00000        0.00000
N         -0.42890        0.00000       -1.47810
H         -0.21540        0.94700       -1.88410
C         -1.93840       -0.24080       -1.57140
H         -2.41620        0.52960       -0.89720
C         -2.28680       -1.63610       -1.04910
C         -1.59240       -1.97560        0.23510
C         -2.02860       -3.09360        0.94180
C         -1.35650       -3.45250        2.11740
O         -1.71330       -4.51460        2.86100
C         -0.25550       -2.73590        2.60150
C          0.15100       -1.62560        1.87490
O          1.18660       -0.81970        2.19470
C          1.96590       -1.16000        3.33940
C         -0.50750       -1.22480        0.68700
C         -2.42090       -0.02340       -2.99760
C          0.38240       -1.03600       -2.24720
C          1.76410       -0.50140       -2.46620
C          2.82310       -0.94860       -1.67560
C          4.10040       -0.42720       -1.87170
C          4.31960        0.53260       -2.85880
C          3.26340        0.96450       -3.66120
C          1.98540        0.44690       -3.46870
C         -0.49170        1.27680        0.67350
H         -2.06210       -2.42240       -1.80600
H         -3.39390       -1.70010       -0.91130
H         -2.87350       -3.67820        0.59240
H         -2.50150       -4.99960        2.49600
H          0.23550       -3.06020        3.51640
H          2.72340       -0.36170        3.34210
H          2.43590       -2.14100        3.21230
H          1.35860       -1.11750        4.25040
H         -2.09020       -0.80110       -3.69930
H         -2.12060        0.94940       -3.41020
H         -3.52530       -0.03580       -3.03750
H          0.39010       -1.99650       -1.67660
H         -0.12050       -1.25810       -3.21730
H          2.66250       -1.71020       -0.91150
H          4.93070       -0.77570       -1.25440
H          5.32220        0.94040       -3.00990
H          3.44030        1.70240       -4.44650
H          1.17160        0.77020       -4.11430
H         -1.57710        1.29020        0.83860
H         -0.20110        2.19100        0.14390
H         -0.04320        1.35190        1.68440
