46
rmsd20.gzmat
C          0.00000        0.00000        0.00000
H          1.13320        0.00000        0.00000
N         -0.42800        0.00000       -1.47880
H         -0.21710        0.94850       -1.88310
C         -1.93610       -0.24640       -1.57500
H         -2.41790        0.52420       -0.90410
C         -2.28140       -1.64160       -1.04990
C         -1.59230       -1.97530        0.23830
C         -2.03250       -3.08880        0.94960
C         -1.36550       -3.44210        2.12980
O         -1.72730       -4.49840        2.87930
C         -0.26430       -2.72480        2.61260
C          0.14650       -1.61960        1.88050
O          1.18220       -0.81380        2.19970
C          1.96460       -1.15740        3.34140
C         -0.50810       -1.22350        0.68940
C         -2.41580       -0.03740       -3.00340
C          0.38690       -1.03190       -2.24880
C          1.77430       -0.50400       -2.44750
C          2.82410       -0.98140       -1.66200
C          4.10830       -0.47090       -1.84040
C          4.34360        0.50730       -2.80560
C          3.29620        0.96980       -3.60270
C          2.01120        0.46380       -3.42660
C         -0.49280        1.27720        0.67230
H         -2.04930       -2.42950       -1.80280
H         -3.38890       -1.70920       -0.91760
H         -2.87750       -3.67370        0.60100
H         -2.51760       -4.98240        2.51710
H          0.22290       -3.04380        3.53160
H          2.71730       -0.35500        3.34920
H          2.44130       -2.13390        3.20580
H          1.35920       -1.12570        4.25410
H         -2.09450       -0.82730       -3.69610
H         -2.10350        0.92680       -3.42690
H         -3.52020       -0.03700       -3.04390
H          0.38240       -1.99800       -1.68750
H         -0.10570       -1.24100       -3.22720
H          2.65030       -1.75890       -0.91720
H          4.93140       -0.84270       -1.22730
H          5.35210        0.90430       -2.94420
H          3.48550        1.72140       -4.37230
H          1.20420        0.81290       -4.06760
H         -1.57720        1.28700        0.84410
H         -0.20930        2.19070        0.13790
H         -0.03870        1.35770        1.68040
