rmsd19.gzmat
 OpenBabel08211713363D

 46 48  0  0  1  0  0  0  0  0999 V2000
    0.0000    0.0000    0.0000 C   0  0  2  0  0  0  0  0  0  0  0  0
    1.1332    0.0000    0.0000 H   0  0  0  0  0  0  0  0  0  0  0  0
   -0.4289    0.0000   -1.4781 N   0  0  0  0  0  0  0  0  0  0  0  0
   -0.2154    0.9470   -1.8841 H   0  0  0  0  0  0  0  0  0  0  0  0
   -1.9384   -0.2408   -1.5714 C   0  0  2  0  0  0  0  0  0  0  0  0
   -2.4162    0.5296   -0.8972 H   0  0  0  0  0  0  0  0  0  0  0  0
   -2.2868   -1.6361   -1.0491 C   0  0  0  0  0  0  0  0  0  0  0  0
   -1.5924   -1.9756    0.2351 C   0  0  0  0  0  0  0  0  0  0  0  0
   -2.0286   -3.0936    0.9418 C   0  0  0  0  0  0  0  0  0  0  0  0
   -1.3565   -3.4525    2.1174 C   0  0  0  0  0  0  0  0  0  0  0  0
   -1.7133   -4.5146    2.8610 O   0  0  0  0  0  0  0  0  0  0  0  0
   -0.2555   -2.7359    2.6015 C   0  0  0  0  0  0  0  0  0  0  0  0
    0.1510   -1.6256    1.8749 C   0  0  0  0  0  0  0  0  0  0  0  0
    1.1866   -0.8197    2.1947 O   0  0  0  0  0  0  0  0  0  0  0  0
    1.9659   -1.1600    3.3394 C   0  0  0  0  0  0  0  0  0  0  0  0
   -0.5075   -1.2248    0.6870 C   0  0  0  0  0  0  0  0  0  0  0  0
   -2.4209   -0.0234   -2.9976 C   0  0  0  0  0  0  0  0  0  0  0  0
    0.3824   -1.0360   -2.2472 C   0  0  0  0  0  0  0  0  0  0  0  0
    1.7641   -0.5014   -2.4662 C   0  0  0  0  0  0  0  0  0  0  0  0
    2.8231   -0.9486   -1.6756 C   0  0  0  0  0  0  0  0  0  0  0  0
    4.1004   -0.4272   -1.8717 C   0  0  0  0  0  0  0  0  0  0  0  0
    4.3196    0.5326   -2.8588 C   0  0  0  0  0  0  0  0  0  0  0  0
    3.2634    0.9645   -3.6612 C   0  0  0  0  0  0  0  0  0  0  0  0
    1.9854    0.4469   -3.4687 C   0  0  0  0  0  0  0  0  0  0  0  0
   -0.4917    1.2768    0.6735 C   0  0  0  0  0  0  0  0  0  0  0  0
   -2.0621   -2.4224   -1.8060 H   0  0  0  0  0  0  0  0  0  0  0  0
   -3.3939   -1.7001   -0.9113 H   0  0  0  0  0  0  0  0  0  0  0  0
   -2.8735   -3.6782    0.5924 H   0  0  0  0  0  0  0  0  0  0  0  0
   -2.5015   -4.9996    2.4960 H   0  0  0  0  0  0  0  0  0  0  0  0
    0.2355   -3.0602    3.5164 H   0  0  0  0  0  0  0  0  0  0  0  0
    2.7234   -0.3617    3.3421 H   0  0  0  0  0  0  0  0  0  0  0  0
    2.4359   -2.1410    3.2123 H   0  0  0  0  0  0  0  0  0  0  0  0
    1.3586   -1.1175    4.2504 H   0  0  0  0  0  0  0  0  0  0  0  0
   -2.0902   -0.8011   -3.6993 H   0  0  0  0  0  0  0  0  0  0  0  0
   -2.1206    0.9494   -3.4102 H   0  0  0  0  0  0  0  0  0  0  0  0
   -3.5253   -0.0358   -3.0375 H   0  0  0  0  0  0  0  0  0  0  0  0
    0.3901   -1.9965   -1.6766 H   0  0  0  0  0  0  0  0  0  0  0  0
   -0.1205   -1.2581   -3.2173 H   0  0  0  0  0  0  0  0  0  0  0  0
    2.6625   -1.7102   -0.9115 H   0  0  0  0  0  0  0  0  0  0  0  0
    4.9307   -0.7757   -1.2544 H   0  0  0  0  0  0  0  0  0  0  0  0
    5.3222    0.9404   -3.0099 H   0  0  0  0  0  0  0  0  0  0  0  0
    3.4403    1.7024   -4.4465 H   0  0  0  0  0  0  0  0  0  0  0  0
    1.1716    0.7702   -4.1143 H   0  0  0  0  0  0  0  0  0  0  0  0
   -1.5771    1.2902    0.8386 H   0  0  0  0  0  0  0  0  0  0  0  0
   -0.2011    2.1910    0.1439 H   0  0  0  0  0  0  0  0  0  0  0  0
   -0.0432    1.3519    1.6844 H   0  0  0  0  0  0  0  0  0  0  0  0
  1  2  1  1  0  0  0
  1 25  1  0  0  0  0
  1 16  1  0  0  0  0
  3  1  1  0  0  0  0
  4  3  1  0  0  0  0
  5  3  1  0  0  0  0
  5  7  1  0  0  0  0
  5  6  1  1  0  0  0
  7 27  1  0  0  0  0
  7  8  1  0  0  0  0
  8 16  2  0  0  0  0
  8  9  1  0  0  0  0
  9 10  2  0  0  0  0
 10 12  1  0  0  0  0
 10 11  1  0  0  0  0
 12 30  1  0  0  0  0
 13 14  1  0  0  0  0
 13 12  2  0  0  0  0
 14 15  1  0  0  0  0
 15 31  1  0  0  0  0
 15 33  1  0  0  0  0
 16 13  1  0  0  0  0
 17  5  1  0  0  0  0
 18 37  1  0  0  0  0
 18  3  1  0  0  0  0
 19 18  1  0  0  0  0
 19 20  2  0  0  0  0
 20 39  1  0  0  0  0
 21 20  1  0  0  0  0
 21 40  1  0  0  0  0
 22 21  2  0  0  0  0
 23 24  2  0  0  0  0
 23 22  1  0  0  0  0
 24 19  1  0  0  0  0
 25 44  1  0  0  0  0
 25 46  1  0  0  0  0
 26  7  1  0  0  0  0
 28  9  1  0  0  0  0
 29 11  1  0  0  0  0
 32 15  1  0  0  0  0
 34 17  1  0  0  0  0
 35 17  1  0  0  0  0
 36 17  1  0  0  0  0
 38 18  1  0  0  0  0
 41 22  1  0  0  0  0
 42 23  1  0  0  0  0
 43 24  1  0  0  0  0
 45 25  1  0  0  0  0
M  END
$$$$
