rmsd20.gzmat
 OpenBabel08211713363D

 46 48  0  0  1  0  0  0  0  0999 V2000
    0.0000    0.0000    0.0000 C   0  0  2  0  0  0  0  0  0  0  0  0
    1.1332    0.0000    0.0000 H   0  0  0  0  0  0  0  0  0  0  0  0
   -0.4280    0.0000   -1.4788 N   0  0  0  0  0  0  0  0  0  0  0  0
   -0.2171    0.9485   -1.8831 H   0  0  0  0  0  0  0  0  0  0  0  0
   -1.9361   -0.2464   -1.5750 C   0  0  2  0  0  0  0  0  0  0  0  0
   -2.4179    0.5242   -0.9041 H   0  0  0  0  0  0  0  0  0  0  0  0
   -2.2814   -1.6416   -1.0499 C   0  0  0  0  0  0  0  0  0  0  0  0
   -1.5923   -1.9753    0.2383 C   0  0  0  0  0  0  0  0  0  0  0  0
   -2.0325   -3.0888    0.9496 C   0  0  0  0  0  0  0  0  0  0  0  0
   -1.3655   -3.4421    2.1298 C   0  0  0  0  0  0  0  0  0  0  0  0
   -1.7273   -4.4984    2.8793 O   0  0  0  0  0  0  0  0  0  0  0  0
   -0.2643   -2.7248    2.6126 C   0  0  0  0  0  0  0  0  0  0  0  0
    0.1465   -1.6196    1.8805 C   0  0  0  0  0  0  0  0  0  0  0  0
    1.1822   -0.8138    2.1997 O   0  0  0  0  0  0  0  0  0  0  0  0
    1.9646   -1.1574    3.3414 C   0  0  0  0  0  0  0  0  0  0  0  0
   -0.5081   -1.2235    0.6894 C   0  0  0  0  0  0  0  0  0  0  0  0
   -2.4158   -0.0374   -3.0034 C   0  0  0  0  0  0  0  0  0  0  0  0
    0.3869   -1.0319   -2.2488 C   0  0  0  0  0  0  0  0  0  0  0  0
    1.7743   -0.5040   -2.4475 C   0  0  0  0  0  0  0  0  0  0  0  0
    2.8241   -0.9814   -1.6620 C   0  0  0  0  0  0  0  0  0  0  0  0
    4.1083   -0.4709   -1.8404 C   0  0  0  0  0  0  0  0  0  0  0  0
    4.3436    0.5073   -2.8056 C   0  0  0  0  0  0  0  0  0  0  0  0
    3.2962    0.9698   -3.6027 C   0  0  0  0  0  0  0  0  0  0  0  0
    2.0112    0.4638   -3.4266 C   0  0  0  0  0  0  0  0  0  0  0  0
   -0.4928    1.2772    0.6723 C   0  0  0  0  0  0  0  0  0  0  0  0
   -2.0493   -2.4295   -1.8028 H   0  0  0  0  0  0  0  0  0  0  0  0
   -3.3889   -1.7092   -0.9176 H   0  0  0  0  0  0  0  0  0  0  0  0
   -2.8775   -3.6737    0.6010 H   0  0  0  0  0  0  0  0  0  0  0  0
   -2.5176   -4.9824    2.5171 H   0  0  0  0  0  0  0  0  0  0  0  0
    0.2229   -3.0438    3.5316 H   0  0  0  0  0  0  0  0  0  0  0  0
    2.7173   -0.3550    3.3492 H   0  0  0  0  0  0  0  0  0  0  0  0
    2.4413   -2.1339    3.2058 H   0  0  0  0  0  0  0  0  0  0  0  0
    1.3592   -1.1257    4.2541 H   0  0  0  0  0  0  0  0  0  0  0  0
   -2.0945   -0.8273   -3.6961 H   0  0  0  0  0  0  0  0  0  0  0  0
   -2.1035    0.9268   -3.4269 H   0  0  0  0  0  0  0  0  0  0  0  0
   -3.5202   -0.0370   -3.0439 H   0  0  0  0  0  0  0  0  0  0  0  0
    0.3824   -1.9980   -1.6875 H   0  0  0  0  0  0  0  0  0  0  0  0
   -0.1057   -1.2410   -3.2272 H   0  0  0  0  0  0  0  0  0  0  0  0
    2.6503   -1.7589   -0.9172 H   0  0  0  0  0  0  0  0  0  0  0  0
    4.9314   -0.8427   -1.2273 H   0  0  0  0  0  0  0  0  0  0  0  0
    5.3521    0.9043   -2.9442 H   0  0  0  0  0  0  0  0  0  0  0  0
    3.4855    1.7214   -4.3723 H   0  0  0  0  0  0  0  0  0  0  0  0
    1.2042    0.8129   -4.0676 H   0  0  0  0  0  0  0  0  0  0  0  0
   -1.5772    1.2870    0.8441 H   0  0  0  0  0  0  0  0  0  0  0  0
   -0.2093    2.1907    0.1379 H   0  0  0  0  0  0  0  0  0  0  0  0
   -0.0387    1.3577    1.6804 H   0  0  0  0  0  0  0  0  0  0  0  0
  1  2  1  1  0  0  0
  1 25  1  0  0  0  0
  1 16  1  0  0  0  0
  3  1  1  0  0  0  0
  4  3  1  0  0  0  0
  5  3  1  0  0  0  0
  5  7  1  0  0  0  0
  5  6  1  1  0  0  0
  7 27  1  0  0  0  0
  7  8  1  0  0  0  0
  8 16  2  0  0  0  0
  8  9  1  0  0  0  0
  9 10  2  0  0  0  0
 10 12  1  0  0  0  0
 10 11  1  0  0  0  0
 12 30  1  0  0  0  0
 13 14  1  0  0  0  0
 13 12  2  0  0  0  0
 14 15  1  0  0  0  0
 15 31  1  0  0  0  0
 15 33  1  0  0  0  0
 16 13  1  0  0  0  0
 17  5  1  0  0  0  0
 18 37  1  0  0  0  0
 18  3  1  0  0  0  0
 19 18  1  0  0  0  0
 19 20  2  0  0  0  0
 20 39  1  0  0  0  0
 21 20  1  0  0  0  0
 21 40  1  0  0  0  0
 22 21  2  0  0  0  0
 23 24  2  0  0  0  0
 23 22  1  0  0  0  0
 24 19  1  0  0  0  0
 25 44  1  0  0  0  0
 25 46  1  0  0  0  0
 26  7  1  0  0  0  0
 28  9  1  0  0  0  0
 29 11  1  0  0  0  0
 32 15  1  0  0  0  0
 34 17  1  0  0  0  0
 35 17  1  0  0  0  0
 36 17  1  0  0  0  0
 38 18  1  0  0  0  0
 41 22  1  0  0  0  0
 42 23  1  0  0  0  0
 43 24  1  0  0  0  0
 45 25  1  0  0  0  0
M  END
$$$$
