rmsd14.gzmat
 OpenBabel08211713363D

 35 36  0  0  1  0  0  0  0  0999 V2000
    0.0000    0.0000    0.0000 S   0  0  0  0  0  0  0  0  0  0  0  0
    1.4318    0.0000    0.0000 O   0  0  0  0  0  0  0  0  0  0  0  0
   -0.7119    0.0000   -1.2817 O   0  0  0  0  0  0  0  0  0  0  0  0
   -0.6520    1.2658    1.0167 C   0  0  0  0  0  0  0  0  0  0  0  0
   -0.4680   -1.4955    0.7918 N   0  0  0  0  0  0  0  0  0  0  0  0
   -1.3854   -2.3219    0.0817 C   0  0  0  0  0  0  0  0  0  0  0  0
   -0.9395   -3.4347   -0.6456 C   0  0  0  0  0  0  0  0  0  0  0  0
   -1.8287   -4.1064   -1.4766 C   0  0  0  0  0  0  0  0  0  0  0  0
   -3.1552   -3.6836   -1.5684 C   0  0  0  0  0  0  0  0  0  0  0  0
   -4.0355   -4.1940   -2.6719 C   0  0  2  0  0  0  0  0  0  0  0  0
   -5.0461   -4.5034   -2.3101 H   0  0  0  0  0  0  0  0  0  0  0  0
   -3.4404   -5.2741   -3.3548 O   0  0  0  0  0  0  0  0  0  0  0  0
   -4.1799   -3.1159   -3.7972 C   0  0  0  0  0  0  0  0  0  0  0  0
   -2.9273   -2.3994   -4.0126 N   0  0  0  0  0  0  0  0  0  0  0  0
   -2.4860   -1.3497   -3.2422 C   0  0  0  0  0  0  0  0  0  0  0  0
   -1.1939   -1.0822   -3.5903 N   0  0  0  0  0  0  0  0  0  0  0  0
   -0.5998   -0.4198   -3.0621 H   0  0  0  0  0  0  0  0  0  0  0  0
   -0.8002   -1.9791   -4.5794 C   0  0  0  0  0  0  0  0  0  0  0  0
   -1.8846   -2.8122   -4.8421 C   0  0  0  0  0  0  0  0  0  0  0  0
   -3.6327   -2.6901   -0.7095 C   0  0  0  0  0  0  0  0  0  0  0  0
   -2.7505   -1.9981    0.1111 C   0  0  0  0  0  0  0  0  0  0  0  0
   -1.5461    1.7426    0.5814 H   0  0  0  0  0  0  0  0  0  0  0  0
    0.0775    2.0789    1.1901 H   0  0  0  0  0  0  0  0  0  0  0  0
   -0.9479    0.9121    2.0200 H   0  0  0  0  0  0  0  0  0  0  0  0
    0.3041   -2.0192    1.2240 H   0  0  0  0  0  0  0  0  0  0  0  0
    0.1012   -3.7550   -0.5886 H   0  0  0  0  0  0  0  0  0  0  0  0
   -1.4745   -4.9423   -2.0865 H   0  0  0  0  0  0  0  0  0  0  0  0
   -3.4484   -6.0915   -2.8064 H   0  0  0  0  0  0  0  0  0  0  0  0
   -4.4799   -3.6349   -4.7470 H   0  0  0  0  0  0  0  0  0  0  0  0
   -4.9923   -2.3986   -3.5399 H   0  0  0  0  0  0  0  0  0  0  0  0
   -3.0530   -0.8129   -2.4845 H   0  0  0  0  0  0  0  0  0  0  0  0
    0.1877   -1.9660   -5.0186 H   0  0  0  0  0  0  0  0  0  0  0  0
   -1.9788   -3.6448   -5.5260 H   0  0  0  0  0  0  0  0  0  0  0  0
   -4.6947   -2.4426   -0.6904 H   0  0  0  0  0  0  0  0  0  0  0  0
   -3.1125   -1.2097    0.7710 H   0  0  0  0  0  0  0  0  0  0  0  0
  1  2  2  0  0  0  0
  1  5  1  0  0  0  0
  1  4  1  0  0  0  0
  3  1  2  0  0  0  0
  4 23  1  0  0  0  0
  4 24  1  0  0  0  0
  5 25  1  0  0  0  0
  6 21  1  0  0  0  0
  6  5  1  0  0  0  0
  7 26  1  0  0  0  0
  7  6  2  0  0  0  0
  8  7  1  0  0  0  0
  9  8  2  0  0  0  0
  9 20  1  0  0  0  0
 10 11  1  1  0  0  0
 10  9  1  0  0  0  0
 12 28  1  0  0  0  0
 12 10  1  0  0  0  0
 13 30  1  0  0  0  0
 13 10  1  0  0  0  0
 14 13  1  0  0  0  0
 14 15  1  0  0  0  0
 15 31  1  0  0  0  0
 16 15  1  0  0  0  0
 16 17  1  0  0  0  0
 18 16  1  0  0  0  0
 19 18  2  0  0  0  0
 19 14  1  0  0  0  0
 20 34  1  0  0  0  0
 20 21  2  0  0  0  0
 21 35  1  0  0  0  0
 22  4  1  0  0  0  0
 27  8  1  0  0  0  0
 29 13  1  0  0  0  0
 32 18  1  0  0  0  0
 33 19  1  0  0  0  0
M  END
$$$$
