35
rmsd214.gzmat
S          0.00000        0.00000        0.00000
O          1.43180        0.00000        0.00000
O         -0.71280        0.00000       -1.28160
C         -0.65300        1.26590        1.01670
N         -0.46650       -1.49500        0.79360
C         -1.39080       -2.31900        0.08970
C         -0.95170       -3.42940       -0.64510
C         -1.84930       -4.09900       -1.46870
C         -3.17670       -3.67570       -1.54630
C         -4.06700       -4.18550       -2.64190
H         -5.08100       -4.47540       -2.27380
O         -3.49010       -5.28270       -3.31290
C         -4.19960       -3.12090       -3.78140
N         -2.94630       -2.40640       -3.99760
C         -2.50340       -1.35620       -3.22910
N         -1.21690       -1.07870       -3.59120
H         -0.62070       -0.41540       -3.06640
C         -0.82890       -1.97040       -4.58740
C         -1.91110       -2.80980       -4.84040
C         -3.64580       -2.68460       -0.68010
C         -2.75540       -1.99470        0.13350
H         -1.43370        1.85550        0.50760
H          0.12140        1.98900        1.33480
H         -1.10900        0.88780        1.94830
H          0.30690       -2.02080        1.22090
H          0.08960       -3.74920       -0.60020
H         -1.50020       -4.93330       -2.08430
H         -3.50290       -6.09140       -2.75160
H         -4.49190       -3.65300       -4.72660
H         -5.01380       -2.39980       -3.54080
H         -3.06330       -0.82610       -2.46140
H          0.15300       -1.95070       -5.03890
H         -2.00730       -3.64050       -5.52670
H         -4.70760       -2.43720       -0.64920
H         -3.11060       -1.20830        0.79960
