rmsd238.gzmat
 OpenBabel08211713363D

 35 36  0  0  1  0  0  0  0  0999 V2000
    0.0000    0.0000    0.0000 S   0  0  0  0  0  0  0  0  0  0  0  0
    1.4314    0.0000    0.0000 O   0  0  0  0  0  0  0  0  0  0  0  0
   -0.7155    0.0000   -1.2797 O   0  0  0  0  0  0  0  0  0  0  0  0
   -0.6546    1.2640    1.0174 C   0  0  0  0  0  0  0  0  0  0  0  0
   -0.4630   -1.4981    0.7895 N   0  0  0  0  0  0  0  0  0  0  0  0
   -1.4287   -2.2954    0.1132 C   0  0  0  0  0  0  0  0  0  0  0  0
   -1.0450   -3.4324   -0.6119 C   0  0  0  0  0  0  0  0  0  0  0  0
   -1.9816   -4.0792   -1.4100 C   0  0  0  0  0  0  0  0  0  0  0  0
   -3.2929   -3.6065   -1.4731 C   0  0  0  0  0  0  0  0  0  0  0  0
   -4.2211   -4.0969   -2.5457 C   0  0  2  0  0  0  0  0  0  0  0  0
   -5.2379   -4.3466   -2.1555 H   0  0  0  0  0  0  0  0  0  0  0  0
   -3.6950   -5.2218   -3.2124 O   0  0  0  0  0  0  0  0  0  0  0  0
   -4.3396   -3.0407   -3.6946 C   0  0  0  0  0  0  0  0  0  0  0  0
   -3.0692   -2.3657   -3.9376 N   0  0  0  0  0  0  0  0  0  0  0  0
   -2.5869   -1.3181   -3.1890 C   0  0  0  0  0  0  0  0  0  0  0  0
   -1.2959   -1.0868   -3.5658 N   0  0  0  0  0  0  0  0  0  0  0  0
   -0.6740   -0.4346   -3.0563 H   0  0  0  0  0  0  0  0  0  0  0  0
   -0.9452   -2.0039   -4.5526 C   0  0  0  0  0  0  0  0  0  0  0  0
   -2.0549   -2.8131   -4.7836 C   0  0  0  0  0  0  0  0  0  0  0  0
   -3.7092   -2.5861   -0.6139 C   0  0  0  0  0  0  0  0  0  0  0  0
   -2.7801   -1.9199    0.1751 C   0  0  0  0  0  0  0  0  0  0  0  0
   -1.5151    1.7769    0.5561 H   0  0  0  0  0  0  0  0  0  0  0  0
    0.0911    2.0506    1.2374 H   0  0  0  0  0  0  0  0  0  0  0  0
   -1.0008    0.8995    2.0005 H   0  0  0  0  0  0  0  0  0  0  0  0
    0.3161   -2.0414    1.1832 H   0  0  0  0  0  0  0  0  0  0  0  0
   -0.0159   -3.7910   -0.5795 H   0  0  0  0  0  0  0  0  0  0  0  0
   -1.6764   -4.9360   -2.0179 H   0  0  0  0  0  0  0  0  0  0  0  0
   -3.7327   -6.0236   -2.6422 H   0  0  0  0  0  0  0  0  0  0  0  0
   -4.6631   -3.5726   -4.6295 H   0  0  0  0  0  0  0  0  0  0  0  0
   -5.1281   -2.2933   -3.4483 H   0  0  0  0  0  0  0  0  0  0  0  0
   -3.1244   -0.7606   -2.4251 H   0  0  0  0  0  0  0  0  0  0  0  0
    0.0327   -2.0204   -5.0131 H   0  0  0  0  0  0  0  0  0  0  0  0
   -2.1831   -3.6502   -5.4567 H   0  0  0  0  0  0  0  0  0  0  0  0
   -4.7603   -2.2984   -0.5700 H   0  0  0  0  0  0  0  0  0  0  0  0
   -3.0948   -1.1134    0.8371 H   0  0  0  0  0  0  0  0  0  0  0  0
  1  2  2  0  0  0  0
  1  5  1  0  0  0  0
  1  4  1  0  0  0  0
  3  1  2  0  0  0  0
  4 23  1  0  0  0  0
  4 24  1  0  0  0  0
  5 25  1  0  0  0  0
  6 21  1  0  0  0  0
  6  5  1  0  0  0  0
  7 26  1  0  0  0  0
  7  6  2  0  0  0  0
  8  7  1  0  0  0  0
  9  8  2  0  0  0  0
  9 20  1  0  0  0  0
 10 11  1  1  0  0  0
 10  9  1  0  0  0  0
 12 28  1  0  0  0  0
 12 10  1  0  0  0  0
 13 30  1  0  0  0  0
 13 10  1  0  0  0  0
 14 13  1  0  0  0  0
 14 15  1  0  0  0  0
 15 31  1  0  0  0  0
 16 15  1  0  0  0  0
 16 17  1  0  0  0  0
 18 16  1  0  0  0  0
 19 18  2  0  0  0  0
 19 14  1  0  0  0  0
 20 34  1  0  0  0  0
 20 21  2  0  0  0  0
 21 35  1  0  0  0  0
 22  4  1  0  0  0  0
 27  8  1  0  0  0  0
 29 13  1  0  0  0  0
 32 18  1  0  0  0  0
 33 19  1  0  0  0  0
M  END
$$$$
