rmsd149.gzmat
 OpenBabel08211713433D

 68 72  0  0  0  0  0  0  0  0999 V2000
    0.0000    0.0000    0.0000 C   0  0  0  0  0  0  0  0  0  0  0  0
    1.3967    0.0000    0.0000 C   0  0  0  0  0  0  0  0  0  0  0  0
    2.0906    0.0000    1.2082 C   0  0  0  0  0  0  0  0  0  0  0  0
    1.3943    0.0067    2.4152 C   0  0  0  0  0  0  0  0  0  0  0  0
    0.0020   -0.0072    2.4146 C   0  0  0  0  0  0  0  0  0  0  0  0
   -0.6977   -0.0177    1.2110 C   0  0  0  0  0  0  0  0  0  0  0  0
    2.3276    0.0791    3.9181 S   0  0  0  0  0  0  0  0  0  0  0  0
    3.4557   -0.8185    3.7662 O   0  0  0  0  0  0  0  0  0  0  0  0
    2.5652    1.4846    4.2015 O   0  0  0  0  0  0  0  0  0  0  0  0
    1.2784   -0.5560    5.2020 C   0  0  0  0  0  0  0  0  0  0  0  0
   -0.7303    0.0018   -1.2700 C   0  0  0  0  0  0  0  0  0  0  0  0
   -1.3563   -1.1972   -1.6966 C   0  0  0  0  0  0  0  0  0  0  0  0
   -2.0240   -1.2585   -2.8916 C   0  0  0  0  0  0  0  0  0  0  0  0
   -2.1108   -0.1157   -3.7353 C   0  0  0  0  0  0  0  0  0  0  0  0
   -2.7964   -0.1608   -4.9759 C   0  0  0  0  0  0  0  0  0  0  0  0
   -2.8584    0.9843   -5.7367 C   0  0  0  0  0  0  0  0  0  0  0  0
   -2.2683    2.2143   -5.3361 C   0  0  0  0  0  0  0  0  0  0  0  0
   -1.6003    2.2567   -4.1431 C   0  0  0  0  0  0  0  0  0  0  0  0
   -1.5076    1.0954   -3.3254 C   0  0  0  0  0  0  0  0  0  0  0  0
   -0.8186    1.1130   -2.0805 C   0  0  0  0  0  0  0  0  0  0  0  0
   -0.1759    2.2981   -1.8084 O   0  0  0  0  0  0  0  0  0  0  0  0
   -0.4599    2.8447   -0.5689 C   0  0  0  0  0  0  0  0  0  0  0  0
   -1.7778    3.0219   -0.1455 C   0  0  0  0  0  0  0  0  0  0  0  0
   -2.0026    3.6160    1.0876 C   0  0  0  0  0  0  0  0  0  0  0  0
   -0.9009    4.0110    1.8628 C   0  0  0  0  0  0  0  0  0  0  0  0
    0.4127    3.8774    1.4067 C   0  0  0  0  0  0  0  0  0  0  0  0
    0.6379    3.2815    0.1698 C   0  0  0  0  0  0  0  0  0  0  0  0
   -1.2569    4.5541    3.0601 O   0  0  0  0  0  0  0  0  0  0  0  0
   -0.3422    4.4271    4.1455 C   0  0  0  0  0  0  0  0  0  0  0  0
    0.0254    2.9693    4.4415 C   0  0  0  0  0  0  0  0  0  0  0  0
   -1.0137    2.1042    5.0296 N   0  0  0  0  0  0  0  0  0  0  0  0
   -2.2500    2.0872    4.2103 C   0  0  0  0  0  0  0  0  0  0  0  0
   -3.2161    1.0257    4.7652 C   0  0  0  0  0  0  0  0  0  0  0  0
   -3.5617    1.3461    6.2239 C   0  0  0  0  0  0  0  0  0  0  0  0
   -2.2687    1.4309    7.0433 C   0  0  0  0  0  0  0  0  0  0  0  0
   -1.3151    2.4767    6.4331 C   0  0  0  0  0  0  0  0  0  0  0  0
   -3.4887    1.0428   -6.9354 O   0  0  0  0  0  0  0  0  0  0  0  0
    1.9378    0.0056   -0.9448 H   0  0  0  0  0  0  0  0  0  0  0  0
    3.1859   -0.0082    1.1897 H   0  0  0  0  0  0  0  0  0  0  0  0
   -0.5703    0.0046    3.3484 H   0  0  0  0  0  0  0  0  0  0  0  0
   -1.7857   -0.0236    1.2081 H   0  0  0  0  0  0  0  0  0  0  0  0
    0.4191    0.1130    5.3996 H   0  0  0  0  0  0  0  0  0  0  0  0
    1.8226   -0.6344    6.1520 H   0  0  0  0  0  0  0  0  0  0  0  0
    0.8869   -1.5525    4.9797 H   0  0  0  0  0  0  0  0  0  0  0  0
   -1.2871   -2.0729   -1.0501 H   0  0  0  0  0  0  0  0  0  0  0  0
   -2.4987   -2.1823   -3.2149 H   0  0  0  0  0  0  0  0  0  0  0  0
   -3.2530   -1.0880   -5.2996 H   0  0  0  0  0  0  0  0  0  0  0  0
   -2.3610    3.0799   -5.9880 H   0  0  0  0  0  0  0  0  0  0  0  0
   -1.1269    3.1793   -3.7944 H   0  0  0  0  0  0  0  0  0  0  0  0
   -2.6070    2.6917   -0.7688 H   0  0  0  0  0  0  0  0  0  0  0  0
   -3.0106    3.7737    1.4641 H   0  0  0  0  0  0  0  0  0  0  0  0
    1.2536    4.2157    2.0090 H   0  0  0  0  0  0  0  0  0  0  0  0
    1.6475    3.1427   -0.2136 H   0  0  0  0  0  0  0  0  0  0  0  0
   -0.9286    4.8958    4.9578 H   0  0  0  0  0  0  0  0  0  0  0  0
    0.5533    5.0398    3.9418 H   0  0  0  0  0  0  0  0  0  0  0  0
    0.9267    2.9389    5.1046 H   0  0  0  0  0  0  0  0  0  0  0  0
    0.3641    2.4744    3.4973 H   0  0  0  0  0  0  0  0  0  0  0  0
   -1.9702    1.8403    3.1621 H   0  0  0  0  0  0  0  0  0  0  0  0
   -2.7536    3.0779    4.1762 H   0  0  0  0  0  0  0  0  0  0  0  0
   -4.1288    0.9907    4.1455 H   0  0  0  0  0  0  0  0  0  0  0  0
   -2.7515    0.0242    4.7000 H   0  0  0  0  0  0  0  0  0  0  0  0
   -4.1172    2.3006    6.2844 H   0  0  0  0  0  0  0  0  0  0  0  0
   -4.2331    0.5743    6.6403 H   0  0  0  0  0  0  0  0  0  0  0  0
   -2.4870    1.6912    8.0931 H   0  0  0  0  0  0  0  0  0  0  0  0
   -1.7715    0.4425    7.0626 H   0  0  0  0  0  0  0  0  0  0  0  0
   -1.7615    3.4892    6.5231 H   0  0  0  0  0  0  0  0  0  0  0  0
   -0.3595    2.4876    7.0005 H   0  0  0  0  0  0  0  0  0  0  0  0
   -3.8787    0.1745   -7.2007 H   0  0  0  0  0  0  0  0  0  0  0  0
  1  2  2  0  0  0  0
  1  6  1  0  0  0  0
  2  3  1  0  0  0  0
  3  4  2  0  0  0  0
  4  7  1  0  0  0  0
  5  4  1  0  0  0  0
  5 40  1  0  0  0  0
  6  5  2  0  0  0  0
  7  9  2  0  0  0  0
  7 10  1  0  0  0  0
  8  7  2  0  0  0  0
 10 42  1  0  0  0  0
 10 43  1  0  0  0  0
 11  1  1  0  0  0  0
 12 11  1  0  0  0  0
 12 45  1  0  0  0  0
 13 12  2  0  0  0  0
 14 19  1  0  0  0  0
 14 13  1  0  0  0  0
 15 14  2  0  0  0  0
 16 17  2  0  0  0  0
 16 15  1  0  0  0  0
 17 18  1  0  0  0  0
 18 49  1  0  0  0  0
 18 19  2  0  0  0  0
 19 20  1  0  0  0  0
 20 21  1  0  0  0  0
 20 11  2  0  0  0  0
 21 22  1  0  0  0  0
 22 23  2  0  0  0  0
 22 27  1  0  0  0  0
 23 24  1  0  0  0  0
 24 51  1  0  0  0  0
 24 25  2  0  0  0  0
 25 28  1  0  0  0  0
 26 25  1  0  0  0  0
 26 52  1  0  0  0  0
 27 26  2  0  0  0  0
 28 29  1  0  0  0  0
 29 30  1  0  0  0  0
 29 54  1  0  0  0  0
 30 31  1  0  0  0  0
 30 56  1  0  0  0  0
 31 36  1  0  0  0  0
 32 33  1  0  0  0  0
 32 31  1  0  0  0  0
 33 34  1  0  0  0  0
 34 62  1  0  0  0  0
 34 63  1  0  0  0  0
 34 35  1  0  0  0  0
 35 65  1  0  0  0  0
 35 64  1  0  0  0  0
 36 66  1  0  0  0  0
 36 67  1  0  0  0  0
 36 35  1  0  0  0  0
 37 16  1  0  0  0  0
 38  2  1  0  0  0  0
 39  3  1  0  0  0  0
 41  6  1  0  0  0  0
 44 10  1  0  0  0  0
 46 13  1  0  0  0  0
 47 15  1  0  0  0  0
 48 17  1  0  0  0  0
 50 23  1  0  0  0  0
 53 27  1  0  0  0  0
 55 29  1  0  0  0  0
 57 30  1  0  0  0  0
 58 32  1  0  0  0  0
 59 32  1  0  0  0  0
 60 33  1  0  0  0  0
 61 33  1  0  0  0  0
 68 37  1  0  0  0  0
M  END
$$$$
