68
rmsd75.gzmat
C          0.00000        0.00000        0.00000
C          1.39720        0.00000        0.00000
C          2.09030        0.00000        1.20790
C          1.39050        0.00130        2.41220
C         -0.00270        0.05000        2.41380
C         -0.69990        0.06440        1.20910
S          2.28190       -0.14870        3.92250
O          1.77410       -1.32350        4.61280
O          3.69470       -0.03670        3.62390
C          1.80680        1.26860        4.89180
C         -0.71720       -0.09930       -1.27370
C         -1.22280        1.07720       -1.88040
C         -1.85030        1.02920       -3.09810
C         -2.01030       -0.20690       -3.78520
C         -2.64660       -0.27490       -5.05080
C         -2.78050       -1.50380       -5.65570
C         -2.31250       -2.71200       -5.07030
C         -1.69430       -2.64670       -3.85180
C         -1.53050       -1.39670       -3.19160
C         -0.88780       -1.30380       -1.92440
O         -0.37850       -2.49740       -1.47960
C         -0.63650       -2.80240       -0.15280
C          0.45970       -3.18690        0.61460
C          0.24860       -3.55910        1.93960
C         -1.05190       -3.53460        2.44920
C         -2.15720       -3.18180        1.65270
C         -1.94510       -2.81140        0.33450
O         -1.40230       -3.84880        3.71900
C         -0.35000       -4.00880        4.67890
C         -1.11820       -4.14650        6.00490
N         -1.45080       -2.89210        6.70570
C         -2.26810       -1.99570        5.85180
C         -2.73040       -0.78370        6.68240
C         -1.51660       -0.02560        7.23350
C         -0.64920       -0.98910        8.05260
C         -0.23320       -2.19680        7.19230
O         -3.37440       -1.67360       -6.86260
H          1.93820       -0.02280       -0.94480
H          3.18740       -0.01690        1.19360
H         -0.56990        0.04960        3.34760
H         -1.78830        0.08790        1.20360
H          1.71530        2.18040        4.29280
H          2.55550        1.48040        5.66850
H          0.85500        1.11050        5.41420
H         -1.09390        2.02500       -1.35670
H         -2.23460        1.93550       -3.56030
H         -3.01200        0.63320       -5.51400
H         -2.45720       -3.64770       -5.60550
H         -1.31600       -3.54970       -3.36280
H          1.45960       -3.18090        0.18430
H          1.09350       -3.84330        2.56260
H         -3.15610       -3.20150        2.08200
H         -2.77380       -2.52440       -0.31060
H          0.32140       -3.12580        4.66130
H          0.21840       -4.91940        4.43260
H         -0.53780       -4.78730        6.70530
H         -2.07960       -4.68460        5.81720
H         -3.15030       -2.56970        5.49470
H         -1.72010       -1.65300        4.94740
H         -3.36020       -0.12310        6.06380
H         -3.36450       -1.13490        7.51980
H         -0.92920        0.40670        6.40430
H         -1.84400        0.82170        7.86090
H          0.24980       -0.47920        8.43770
H         -1.21570       -1.34440        8.93480
H          0.43490       -1.86280        6.36390
H          0.34980       -2.91160        7.81010
H         -3.69060       -0.82240       -7.25200
