68
rmsd149.gzmat
C          0.00000        0.00000        0.00000
C          1.39670        0.00000        0.00000
C          2.09060        0.00000        1.20820
C          1.39430        0.00670        2.41520
C          0.00200       -0.00720        2.41460
C         -0.69770       -0.01770        1.21100
S          2.32760        0.07910        3.91810
O          3.45570       -0.81850        3.76620
O          2.56520        1.48460        4.20150
C          1.27840       -0.55600        5.20200
C         -0.73030        0.00180       -1.27000
C         -1.35630       -1.19720       -1.69660
C         -2.02400       -1.25850       -2.89160
C         -2.11080       -0.11570       -3.73530
C         -2.79640       -0.16080       -4.97590
C         -2.85840        0.98430       -5.73670
C         -2.26830        2.21430       -5.33610
C         -1.60030        2.25670       -4.14310
C         -1.50760        1.09540       -3.32540
C         -0.81860        1.11300       -2.08050
O         -0.17590        2.29810       -1.80840
C         -0.45990        2.84470       -0.56890
C         -1.77780        3.02190       -0.14550
C         -2.00260        3.61600        1.08760
C         -0.90090        4.01100        1.86280
C          0.41270        3.87740        1.40670
C          0.63790        3.28150        0.16980
O         -1.25690        4.55410        3.06010
C         -0.34220        4.42710        4.14550
C          0.02540        2.96930        4.44150
N         -1.01370        2.10420        5.02960
C         -2.25000        2.08720        4.21030
C         -3.21610        1.02570        4.76520
C         -3.56170        1.34610        6.22390
C         -2.26870        1.43090        7.04330
C         -1.31510        2.47670        6.43310
O         -3.48870        1.04280       -6.93540
H          1.93780        0.00560       -0.94480
H          3.18590       -0.00820        1.18970
H         -0.57030        0.00460        3.34840
H         -1.78570       -0.02360        1.20810
H          0.41910        0.11300        5.39960
H          1.82260       -0.63440        6.15200
H          0.88690       -1.55250        4.97970
H         -1.28710       -2.07290       -1.05010
H         -2.49870       -2.18230       -3.21490
H         -3.25300       -1.08800       -5.29960
H         -2.36100        3.07990       -5.98800
H         -1.12690        3.17930       -3.79440
H         -2.60700        2.69170       -0.76880
H         -3.01060        3.77370        1.46410
H          1.25360        4.21570        2.00900
H          1.64750        3.14270       -0.21360
H         -0.92860        4.89580        4.95780
H          0.55330        5.03980        3.94180
H          0.92670        2.93890        5.10460
H          0.36410        2.47440        3.49730
H         -1.97020        1.84030        3.16210
H         -2.75360        3.07790        4.17620
H         -4.12880        0.99070        4.14550
H         -2.75150        0.02420        4.70000
H         -4.11720        2.30060        6.28440
H         -4.23310        0.57430        6.64030
H         -2.48700        1.69120        8.09310
H         -1.77150        0.44250        7.06260
H         -1.76150        3.48920        6.52310
H         -0.35950        2.48760        7.00050
H         -3.87870        0.17450       -7.20070
