68
rmsd161.gzmat
C          0.00000        0.00000        0.00000
C          1.39830        0.00000        0.00000
C          2.09370        0.00000        1.20640
C          1.39630        0.01050        2.41190
C          0.00420        0.04380        2.41480
C         -0.69670        0.04180        1.21120
S          2.28050       -0.11770        3.93850
O          1.40980       -0.78830        4.88500
O          3.58940       -0.66240        3.62720
C          2.51310        1.54770        4.49990
C         -0.72410       -0.09540       -1.26900
C         -1.60380       -1.19000       -1.47760
C         -2.26080       -1.35080       -2.66930
C         -2.07870       -0.42340       -3.73350
C         -2.74180       -0.58110       -4.97710
C         -2.52520        0.35440       -5.96250
C         -1.67160        1.47890       -5.79010
C         -1.03100        1.63190       -4.59160
C         -1.22070        0.68470       -3.54620
C         -0.56210        0.81230       -2.29310
O          0.32330        1.86550       -2.21380
C          0.09140        2.75470       -1.18500
C         -1.19370        3.05950       -0.73000
C         -1.33460        3.99220        0.28520
C         -0.18480        4.60210        0.81230
C          1.09110        4.32930        0.31820
C          1.23420        3.38270       -0.69270
O         -0.47020        5.49030        1.80610
C          0.55180        5.79970        2.74180
C          1.06140        4.56370        3.49890
N          0.12090        3.87080        4.39610
C         -1.05350        3.32470        3.67320
C         -1.86090        2.42820        4.62920
C         -2.32240        3.23990        5.84470
C         -1.09720        3.85210        6.53330
C         -0.30040        4.71750        5.53730
O         -3.10770        0.29070       -7.18470
H          1.93720       -0.01400       -0.94620
H          3.18880       -0.03690        1.19010
H         -0.55490        0.04620        3.35680
H         -1.78420        0.06250        1.21110
H          3.05860        2.16580        3.78230
H          3.07820        1.57560        5.44010
H          1.55370        2.05630        4.71530
H         -1.73720       -1.90720       -0.66570
H         -2.93140       -2.19410       -2.82330
H         -3.39810       -1.42950       -5.12790
H         -1.55240        2.17950       -6.61360
H         -0.36340        2.47950       -4.41290
H         -2.06610        2.56860       -1.16030
H         -2.31460        4.25680        0.67850
H          1.96510        4.84430        0.70440
H          2.21360        3.12990       -1.09430
H          0.01280        6.50690        3.40290
H          1.37090        6.33620        2.23260
H          1.95040        4.85460        4.10590
H          1.42500        3.80180        2.76660
H         -0.68720        2.72720        2.80910
H         -1.70830        4.12110        3.25880
H         -2.72450        1.99520        4.09570
H         -1.23480        1.57720        4.96530
H         -3.02630        4.03350        5.53400
H         -2.87730        2.59500        6.55000
H         -1.39820        4.46120        7.40230
H         -0.44550        3.04450        6.92210
H         -0.91200        5.58950        5.22370
H          0.61030        5.11440        6.03390
H         -3.69120       -0.50080       -7.28510
