rmsd142.gzmat
 OpenBabel08211713433D

 68 72  0  0  0  0  0  0  0  0999 V2000
    0.0000    0.0000    0.0000 C   0  0  0  0  0  0  0  0  0  0  0  0
    1.3975    0.0000    0.0000 C   0  0  0  0  0  0  0  0  0  0  0  0
    2.0905    0.0000    1.2081 C   0  0  0  0  0  0  0  0  0  0  0  0
    1.3908    0.0135    2.4122 C   0  0  0  0  0  0  0  0  0  0  0  0
   -0.0016    0.0356    2.4141 C   0  0  0  0  0  0  0  0  0  0  0  0
   -0.7001    0.0281    1.2093 C   0  0  0  0  0  0  0  0  0  0  0  0
    2.2683   -0.0793    3.9456 S   0  0  0  0  0  0  0  0  0  0  0  0
    1.3096   -0.4793    4.9598 O   0  0  0  0  0  0  0  0  0  0  0  0
    3.4646   -0.8658    3.7125 O   0  0  0  0  0  0  0  0  0  0  0  0
    2.7777    1.5826    4.2973 C   0  0  0  0  0  0  0  0  0  0  0  0
   -0.7264   -0.0701   -1.2700 C   0  0  0  0  0  0  0  0  0  0  0  0
   -1.4636   -1.2447   -1.5726 C   0  0  0  0  0  0  0  0  0  0  0  0
   -2.1324   -1.3705   -2.7618 C   0  0  0  0  0  0  0  0  0  0  0  0
   -2.1056   -0.3248   -3.7269 C   0  0  0  0  0  0  0  0  0  0  0  0
   -2.7932   -0.4386   -4.9620 C   0  0  0  0  0  0  0  0  0  0  0  0
   -2.7390    0.6152   -5.8453 C   0  0  0  0  0  0  0  0  0  0  0  0
   -2.0238    1.8152   -5.5783 C   0  0  0  0  0  0  0  0  0  0  0  0
   -1.3565    1.9240   -4.3893 C   0  0  0  0  0  0  0  0  0  0  0  0
   -1.3855    0.8592   -3.4458 C   0  0  0  0  0  0  0  0  0  0  0  0
   -0.7059    0.9459   -2.1993 C   0  0  0  0  0  0  0  0  0  0  0  0
    0.0519    2.0847   -2.0436 O   0  0  0  0  0  0  0  0  0  0  0  0
   -0.2099    2.8457   -0.9249 C   0  0  0  0  0  0  0  0  0  0  0  0
    0.8673    3.6235   -0.5022 C   0  0  0  0  0  0  0  0  0  0  0  0
    0.6894    4.4772    0.5829 C   0  0  0  0  0  0  0  0  0  0  0  0
   -0.5500    4.5089    1.2226 C   0  0  0  0  0  0  0  0  0  0  0  0
   -1.6375    3.7404    0.7761 C   0  0  0  0  0  0  0  0  0  0  0  0
   -1.4659    2.9045   -0.3162 C   0  0  0  0  0  0  0  0  0  0  0  0
   -0.8652    5.2855    2.2963 O   0  0  0  0  0  0  0  0  0  0  0  0
    0.1908    5.8076    3.0889 C   0  0  0  0  0  0  0  0  0  0  0  0
    1.0302    4.7054    3.7536 C   0  0  0  0  0  0  0  0  0  0  0  0
    0.3729    3.8690    4.7717 N   0  0  0  0  0  0  0  0  0  0  0  0
   -0.8034    3.1420    4.2336 C   0  0  0  0  0  0  0  0  0  0  0  0
   -1.2755    2.1145    5.2773 C   0  0  0  0  0  0  0  0  0  0  0  0
   -1.6514    2.8256    6.5816 C   0  0  0  0  0  0  0  0  0  0  0  0
   -0.4527    3.6436    7.0765 C   0  0  0  0  0  0  0  0  0  0  0  0
    0.0115    4.6329    5.9894 C   0  0  0  0  0  0  0  0  0  0  0  0
   -3.3640    0.6055   -7.0480 O   0  0  0  0  0  0  0  0  0  0  0  0
    1.9369   -0.0129   -0.9456 H   0  0  0  0  0  0  0  0  0  0  0  0
    3.1841   -0.0369    1.1916 H   0  0  0  0  0  0  0  0  0  0  0  0
   -0.5619    0.0379    3.3572 H   0  0  0  0  0  0  0  0  0  0  0  0
   -1.7879    0.0387    1.2058 H   0  0  0  0  0  0  0  0  0  0  0  0
    3.6260    1.6036    4.9930 H   0  0  0  0  0  0  0  0  0  0  0  0
    1.9696    2.1630    4.7878 H   0  0  0  0  0  0  0  0  0  0  0  0
    3.0795    2.1400    3.4077 H   0  0  0  0  0  0  0  0  0  0  0  0
   -1.4774   -2.0498   -0.8357 H   0  0  0  0  0  0  0  0  0  0  0  0
   -2.6948   -2.2742   -2.9891 H   0  0  0  0  0  0  0  0  0  0  0  0
   -3.3432   -1.3448   -5.1852 H   0  0  0  0  0  0  0  0  0  0  0  0
   -2.0268    2.6069   -6.3244 H   0  0  0  0  0  0  0  0  0  0  0  0
   -0.7921    2.8270   -4.1399 H   0  0  0  0  0  0  0  0  0  0  0  0
    1.8236    3.5589   -1.0175 H   0  0  0  0  0  0  0  0  0  0  0  0
    1.5081    5.1090    0.9118 H   0  0  0  0  0  0  0  0  0  0  0  0
   -2.5950    3.8122    1.2889 H   0  0  0  0  0  0  0  0  0  0  0  0
   -2.2917    2.3003   -0.6895 H   0  0  0  0  0  0  0  0  0  0  0  0
   -0.3862    6.3993    3.8272 H   0  0  0  0  0  0  0  0  0  0  0  0
    0.8107    6.4915    2.4845 H   0  0  0  0  0  0  0  0  0  0  0  0
    1.9289    5.1682    4.2231 H   0  0  0  0  0  0  0  0  0  0  0  0
    1.4177    4.0083    2.9713 H   0  0  0  0  0  0  0  0  0  0  0  0
   -0.5001    2.6259    3.2967 H   0  0  0  0  0  0  0  0  0  0  0  0
   -1.6402    3.8226    3.9663 H   0  0  0  0  0  0  0  0  0  0  0  0
   -2.1327    1.5435    4.8816 H   0  0  0  0  0  0  0  0  0  0  0  0
   -0.4686    1.3741    5.4736 H   0  0  0  0  0  0  0  0  0  0  0  0
   -2.5273    3.4805    6.4260 H   0  0  0  0  0  0  0  0  0  0  0  0
   -1.9493    2.0855    7.3467 H   0  0  0  0  0  0  0  0  0  0  0  0
   -0.7065    4.1917    7.9995 H   0  0  0  0  0  0  0  0  0  0  0  0
    0.3813    2.9597    7.3317 H   0  0  0  0  0  0  0  0  0  0  0  0
   -0.7809    5.3881    5.8048 H   0  0  0  0  0  0  0  0  0  0  0  0
    0.9111    5.1802    6.3424 H   0  0  0  0  0  0  0  0  0  0  0  0
   -3.8470   -0.2405   -7.2165 H   0  0  0  0  0  0  0  0  0  0  0  0
  1  2  2  0  0  0  0
  1  6  1  0  0  0  0
  2  3  1  0  0  0  0
  3  4  2  0  0  0  0
  4  5  1  0  0  0  0
  4  7  1  0  0  0  0
  5 40  1  0  0  0  0
  6  5  2  0  0  0  0
  7 10  1  0  0  0  0
  7  8  2  0  0  0  0
  9  7  2  0  0  0  0
 10 43  1  0  0  0  0
 10 42  1  0  0  0  0
 11  1  1  0  0  0  0
 12 11  1  0  0  0  0
 12 45  1  0  0  0  0
 13 12  2  0  0  0  0
 14 19  1  0  0  0  0
 14 13  1  0  0  0  0
 15 14  2  0  0  0  0
 16 17  2  0  0  0  0
 16 15  1  0  0  0  0
 17 18  1  0  0  0  0
 18 49  1  0  0  0  0
 18 19  2  0  0  0  0
 19 20  1  0  0  0  0
 20 21  1  0  0  0  0
 20 11  2  0  0  0  0
 21 22  1  0  0  0  0
 22 23  2  0  0  0  0
 22 27  1  0  0  0  0
 23 24  1  0  0  0  0
 24 51  1  0  0  0  0
 24 25  2  0  0  0  0
 25 28  1  0  0  0  0
 26 25  1  0  0  0  0
 26 52  1  0  0  0  0
 27 26  2  0  0  0  0
 28 29  1  0  0  0  0
 29 30  1  0  0  0  0
 29 54  1  0  0  0  0
 30 56  1  0  0  0  0
 30 31  1  0  0  0  0
 31 36  1  0  0  0  0
 32 31  1  0  0  0  0
 32 33  1  0  0  0  0
 33 61  1  0  0  0  0
 33 34  1  0  0  0  0
 34 35  1  0  0  0  0
 34 63  1  0  0  0  0
 35 65  1  0  0  0  0
 35 64  1  0  0  0  0
 36 67  1  0  0  0  0
 36 35  1  0  0  0  0
 37 16  1  0  0  0  0
 38  2  1  0  0  0  0
 39  3  1  0  0  0  0
 41  6  1  0  0  0  0
 44 10  1  0  0  0  0
 46 13  1  0  0  0  0
 47 15  1  0  0  0  0
 48 17  1  0  0  0  0
 50 23  1  0  0  0  0
 53 27  1  0  0  0  0
 55 29  1  0  0  0  0
 57 30  1  0  0  0  0
 58 32  1  0  0  0  0
 59 32  1  0  0  0  0
 60 33  1  0  0  0  0
 62 34  1  0  0  0  0
 66 36  1  0  0  0  0
 68 37  1  0  0  0  0
M  END
$$$$
