
     RDKit          3D

 68 72  0  0  0  0  0  0  0  0999 V2000
    0.0158    0.0685    0.0221 C   0  0  0  0  0  0  0  0  0  0  0  0
    1.4180   -0.0205   -0.0100 C   0  0  0  0  0  0  0  0  0  0  0  0
    2.1568   -0.0795    1.1679 C   0  0  0  0  0  0  0  0  0  0  0  0
    1.4860   -0.0664    2.3948 C   0  0  0  0  0  0  0  0  0  0  0  0
    0.0972    0.0499    2.4535 C   0  0  0  0  0  0  0  0  0  0  0  0
   -0.6301    0.1297    1.2648 C   0  0  0  0  0  0  0  0  0  0  0  0
    2.5056   -0.3396    3.8493 S   0  0  0  0  0  0  0  0  0  0  0  0
    2.6738   -1.7942    4.0208 O   0  0  0  0  0  0  0  0  0  0  0  0
    3.7014    0.5037    3.7166 O   0  0  0  0  0  0  0  0  0  0  0  0
    1.5320    0.2705    5.2329 C   0  0  0  0  0  0  0  0  0  0  0  0
   -0.7616    0.0511   -1.2454 C   0  0  0  0  0  0  0  0  0  0  0  0
   -1.5087    1.1838   -1.6639 C   0  0  0  0  0  0  0  0  0  0  0  0
   -2.1979    1.1934   -2.8572 C   0  0  0  0  0  0  0  0  0  0  0  0
   -2.1879    0.0554   -3.7086 C   0  0  0  0  0  0  0  0  0  0  0  0
   -2.8829    0.0245   -4.9467 C   0  0  0  0  0  0  0  0  0  0  0  0
   -2.8708   -1.1101   -5.7372 C   0  0  0  0  0  0  0  0  0  0  0  0
   -2.1616   -2.2684   -5.3151 C   0  0  0  0  0  0  0  0  0  0  0  0
   -1.4780   -2.2651   -4.1231 C   0  0  0  0  0  0  0  0  0  0  0  0
   -1.4645   -1.1100   -3.2925 C   0  0  0  0  0  0  0  0  0  0  0  0
   -0.7645   -1.0799   -2.0553 C   0  0  0  0  0  0  0  0  0  0  0  0
   -0.0891   -2.2207   -1.6837 O   0  0  0  0  0  0  0  0  0  0  0  0
   -0.4506   -2.7990   -0.4772 C   0  0  0  0  0  0  0  0  0  0  0  0
    0.5559   -3.2300    0.3832 C   0  0  0  0  0  0  0  0  0  0  0  0
    0.2322   -3.7654    1.6314 C   0  0  0  0  0  0  0  0  0  0  0  0
   -1.1115   -3.8712    2.0225 C   0  0  0  0  0  0  0  0  0  0  0  0
   -2.1187   -3.4706    1.1310 C   0  0  0  0  0  0  0  0  0  0  0  0
   -1.7936   -2.9402   -0.1145 C   0  0  0  0  0  0  0  0  0  0  0  0
   -1.5294   -4.3372    3.2321 O   0  0  0  0  0  0  0  0  0  0  0  0
   -0.6388   -4.2993    4.3424 C   0  0  0  0  0  0  0  0  0  0  0  0
   -0.1868   -2.8823    4.7081 C   0  0  0  0  0  0  0  0  0  0  0  0
   -1.1693   -1.9720    5.2771 N   0  0  0  0  0  0  0  0  0  0  0  0
   -1.5302   -2.2406    6.6631 C   0  0  0  0  0  0  0  0  0  0  0  0
   -2.2787   -1.0515    7.2676 C   0  0  0  0  0  0  0  0  0  0  0  0
   -3.5020   -0.6843    6.4231 C   0  0  0  0  0  0  0  0  0  0  0  0
   -3.1034   -0.4894    4.9576 C   0  0  0  0  0  0  0  0  0  0  0  0
   -2.3410   -1.7088    4.4427 C   0  0  0  0  0  0  0  0  0  0  0  0
   -3.5149   -1.1974   -6.9268 O   0  0  0  0  0  0  0  0  0  0  0  0
    1.9264   -0.0593   -0.9751 H   0  0  0  0  0  0  0  0  0  0  0  0
    3.2464   -0.1405    1.1487 H   0  0  0  0  0  0  0  0  0  0  0  0
   -0.4250    0.0591    3.4092 H   0  0  0  0  0  0  0  0  0  0  0  0
   -1.7195    0.1934    1.3001 H   0  0  0  0  0  0  0  0  0  0  0  0
    1.3461    1.3422    5.0880 H   0  0  0  0  0  0  0  0  0  0  0  0
    2.1843    0.1098    6.1021 H   0  0  0  0  0  0  0  0  0  0  0  0
    0.6001   -0.3079    5.3331 H   0  0  0  0  0  0  0  0  0  0  0  0
   -1.5089    2.0685   -1.0230 H   0  0  0  0  0  0  0  0  0  0  0  0
   -2.7555    2.0814   -3.1637 H   0  0  0  0  0  0  0  0  0  0  0  0
   -3.4339    0.9137   -5.2680 H   0  0  0  0  0  0  0  0  0  0  0  0
   -2.1783   -3.1471   -5.9622 H   0  0  0  0  0  0  0  0  0  0  0  0
   -0.9293   -3.1480   -3.7942 H   0  0  0  0  0  0  0  0  0  0  0  0
    1.5977   -3.1057    0.0869 H   0  0  0  0  0  0  0  0  0  0  0  0
    1.0408   -4.0528    2.3026 H   0  0  0  0  0  0  0  0  0  0  0  0
   -3.1591   -3.5727    1.4445 H   0  0  0  0  0  0  0  0  0  0  0  0
   -2.5778   -2.6087   -0.7971 H   0  0  0  0  0  0  0  0  0  0  0  0
    0.2503   -4.9266    4.1493 H   0  0  0  0  0  0  0  0  0  0  0  0
   -1.1964   -4.7698    5.1653 H   0  0  0  0  0  0  0  0  0  0  0  0
    0.2390   -2.4163    3.8112 H   0  0  0  0  0  0  0  0  0  0  0  0
    0.6563   -2.9657    5.4112 H   0  0  0  0  0  0  0  0  0  0  0  0
   -0.6069   -2.4386    7.2312 H   0  0  0  0  0  0  0  0  0  0  0  0
   -2.1658   -3.1518    6.7559 H   0  0  0  0  0  0  0  0  0  0  0  0
   -2.5747   -1.2874    8.3029 H   0  0  0  0  0  0  0  0  0  0  0  0
   -1.5906   -0.1894    7.3141 H   0  0  0  0  0  0  0  0  0  0  0  0
   -4.2439   -1.5012    6.4866 H   0  0  0  0  0  0  0  0  0  0  0  0
   -3.9932    0.2186    6.8212 H   0  0  0  0  0  0  0  0  0  0  0  0
   -3.9937   -0.3179    4.3303 H   0  0  0  0  0  0  0  0  0  0  0  0
   -2.4623    0.4053    4.8638 H   0  0  0  0  0  0  0  0  0  0  0  0
   -3.0261   -2.5829    4.4186 H   0  0  0  0  0  0  0  0  0  0  0  0
   -2.0078   -1.5569    3.4065 H   0  0  0  0  0  0  0  0  0  0  0  0
   -3.9586   -0.3599   -7.1158 H   0  0  0  0  0  0  0  0  0  0  0  0
  1  2  2  0
  1  6  1  0
  1 11  1  0
  2  3  1  0
  2 38  1  0
  3  4  2  0
  3 39  1  0
  4  5  1  0
  4  7  1  0
  5  6  2  0
  5 40  1  0
  6 41  1  0
  7  8  2  0
  7  9  2  0
  7 10  1  0
 10 42  1  0
 10 43  1  0
 10 44  1  0
 11 12  2  0
 11 20  1  0
 12 13  1  0
 12 45  1  0
 13 14  2  0
 13 46  1  0
 14 15  1  0
 14 19  1  0
 15 16  2  0
 15 47  1  0
 16 17  1  0
 16 37  1  0
 17 18  2  0
 17 48  1  0
 18 19  1  0
 18 49  1  0
 19 20  2  0
 20 21  1  0
 21 22  1  0
 22 23  2  0
 22 27  1  0
 23 24  1  0
 23 50  1  0
 24 25  2  0
 24 51  1  0
 25 26  1  0
 25 28  1  0
 26 27  2  0
 26 52  1  0
 27 53  1  0
 28 29  1  0
 29 30  1  0
 29 54  1  0
 29 55  1  0
 30 31  1  0
 30 56  1  0
 30 57  1  0
 31 32  1  0
 31 36  1  0
 32 33  1  0
 32 58  1  0
 32 59  1  0
 33 34  1  0
 33 60  1  0
 33 61  1  0
 34 35  1  0
 34 62  1  0
 34 63  1  0
 35 36  1  0
 35 64  1  0
 35 65  1  0
 36 66  1  0
 36 67  1  0
 37 68  1  0
M  END

