68

C          0.01580        0.06850        0.02210
C          1.41800       -0.02050       -0.01000
C          2.15680       -0.07950        1.16790
C          1.48600       -0.06640        2.39480
C          0.09720        0.04990        2.45350
C         -0.63010        0.12970        1.26480
S          2.50560       -0.33960        3.84930
O          2.67380       -1.79420        4.02080
O          3.70140        0.50370        3.71660
C          1.53200        0.27050        5.23290
C         -0.76160        0.05110       -1.24540
C         -1.50870        1.18380       -1.66390
C         -2.19790        1.19340       -2.85720
C         -2.18790        0.05540       -3.70860
C         -2.88290        0.02450       -4.94670
C         -2.87080       -1.11010       -5.73720
C         -2.16160       -2.26840       -5.31510
C         -1.47800       -2.26510       -4.12310
C         -1.46450       -1.11000       -3.29250
C         -0.76450       -1.07990       -2.05530
O         -0.08910       -2.22070       -1.68370
C         -0.45060       -2.79900       -0.47720
C          0.55590       -3.23000        0.38320
C          0.23220       -3.76540        1.63140
C         -1.11150       -3.87120        2.02250
C         -2.11870       -3.47060        1.13100
C         -1.79360       -2.94020       -0.11450
O         -1.52940       -4.33720        3.23210
C         -0.63880       -4.29930        4.34240
C         -0.18680       -2.88230        4.70810
N         -1.16930       -1.97200        5.27710
C         -1.53020       -2.24060        6.66310
C         -2.27870       -1.05150        7.26760
C         -3.50200       -0.68430        6.42310
C         -3.10340       -0.48940        4.95760
C         -2.34100       -1.70880        4.44270
O         -3.51490       -1.19740       -6.92680
H          1.92640       -0.05930       -0.97510
H          3.24640       -0.14050        1.14870
H         -0.42500        0.05910        3.40920
H         -1.71950        0.19340        1.30010
H          1.34610        1.34220        5.08800
H          2.18430        0.10980        6.10210
H          0.60010       -0.30790        5.33310
H         -1.50890        2.06850       -1.02300
H         -2.75550        2.08140       -3.16370
H         -3.43390        0.91370       -5.26800
H         -2.17830       -3.14710       -5.96220
H         -0.92930       -3.14800       -3.79420
H          1.59770       -3.10570        0.08690
H          1.04080       -4.05280        2.30260
H         -3.15910       -3.57270        1.44450
H         -2.57780       -2.60870       -0.79710
H          0.25030       -4.92660        4.14930
H         -1.19640       -4.76980        5.16530
H          0.23900       -2.41630        3.81120
H          0.65630       -2.96570        5.41120
H         -0.60690       -2.43860        7.23120
H         -2.16580       -3.15180        6.75590
H         -2.57470       -1.28740        8.30290
H         -1.59060       -0.18940        7.31410
H         -4.24390       -1.50120        6.48660
H         -3.99320        0.21860        6.82120
H         -3.99370       -0.31790        4.33030
H         -2.46230        0.40530        4.86380
H         -3.02610       -2.58290        4.41860
H         -2.00780       -1.55690        3.40650
H         -3.95860       -0.35990       -7.11580
