68

C          0.10430        0.15940       -0.31600
C          1.36770        0.73610       -0.54110
C          2.31260        0.82240        0.47990
C          1.98960        0.31760        1.73970
C          0.74300       -0.25930        1.99590
C         -0.19670       -0.32050        0.97280
S          3.20700        0.37590        3.04810
O          3.06080       -0.84100        3.86490
O          4.50480        0.74350        2.45750
C          2.68920        1.76600        4.07150
C         -0.87370        0.05220       -1.42440
C         -1.06970        1.15930       -2.29890
C         -1.97200        1.12400       -3.33640
C         -2.74340       -0.04380       -3.58360
C         -3.68310       -0.12510       -4.64380
C         -4.40130       -1.28660       -4.86450
C         -4.20210       -2.41880       -4.02780
C         -3.30060       -2.36460       -2.99220
C         -2.55170       -1.18190       -2.73560
C         -1.61440       -1.10540       -1.66630
O         -1.50350       -2.22840       -0.88510
C         -0.27230       -2.83520       -0.70930
C          0.74160       -2.77350       -1.66910
C          1.96750       -3.38040       -1.41290
C          2.19780       -4.05970       -0.20510
C          1.16360       -4.13570        0.74050
C         -0.06570       -3.52660        0.48180
O          3.42660       -4.61510       -0.05830
C          3.86500       -5.05960        1.22190
C          4.20780       -3.94300        2.20640
N          5.44770       -3.25230        1.89670
C          6.05850       -2.64860        3.08310
C          7.43570       -2.07270        2.76020
C          7.34690       -1.05230        1.62310
C          6.65400       -1.68480        0.41460
C          5.30520       -2.28590        0.80520
O         -5.31020       -1.42370       -5.85970
H          1.62550        1.08890       -1.54150
H          3.30380        1.24410        0.30700
H          0.52580       -0.67540        2.98120
H         -1.17280       -0.76760        1.16000
H          2.71700        2.67970        3.46470
H          3.42420        1.81510        4.88690
H          1.68370        1.57070        4.46480
H         -0.50100        2.07190       -2.10900
H         -2.10920        1.99860       -3.97630
H         -3.83080        0.74560       -5.28980
H         -4.78210       -3.32010       -4.23350
H         -3.14650       -3.22860       -2.34590
H          0.57760       -2.23690       -2.60480
H          2.77600       -3.33930       -2.14480
H          1.30780       -4.65040        1.68920
H         -0.87000       -3.56400        1.21840
H          4.77640       -5.63950        1.02050
H          3.11470       -5.74080        1.66180
H          4.32730       -4.42940        3.18890
H          3.35220       -3.24230        2.31790
H          6.15300       -3.43160        3.85420
H          5.41340       -1.85270        3.50920
H          7.86060       -1.61260        3.66800
H          8.10600       -2.89980        2.46610
H          6.75710       -0.18450        1.96100
H          8.35050       -0.68460        1.35010
H          6.50020       -0.93920       -0.38340
H          7.29010       -2.48500       -0.00350
H          4.61390       -1.46610        1.09540
H          4.86020       -2.79800       -0.05710
H         -5.36470       -0.60090       -6.36390
