68
rmsd142.gzmat
C          0.00000        0.00000        0.00000
C          1.39750        0.00000        0.00000
C          2.09050        0.00000        1.20810
C          1.39080        0.01350        2.41220
C         -0.00160        0.03560        2.41410
C         -0.70010        0.02810        1.20930
S          2.26830       -0.07930        3.94560
O          1.30960       -0.47930        4.95980
O          3.46460       -0.86580        3.71250
C          2.77770        1.58260        4.29730
C         -0.72640       -0.07010       -1.27000
C         -1.46360       -1.24470       -1.57260
C         -2.13240       -1.37050       -2.76180
C         -2.10560       -0.32480       -3.72690
C         -2.79320       -0.43860       -4.96200
C         -2.73900        0.61520       -5.84530
C         -2.02380        1.81520       -5.57830
C         -1.35650        1.92400       -4.38930
C         -1.38550        0.85920       -3.44580
C         -0.70590        0.94590       -2.19930
O          0.05190        2.08470       -2.04360
C         -0.20990        2.84570       -0.92490
C          0.86730        3.62350       -0.50220
C          0.68940        4.47720        0.58290
C         -0.55000        4.50890        1.22260
C         -1.63750        3.74040        0.77610
C         -1.46590        2.90450       -0.31620
O         -0.86520        5.28550        2.29630
C          0.19080        5.80760        3.08890
C          1.03020        4.70540        3.75360
N          0.37290        3.86900        4.77170
C         -0.80340        3.14200        4.23360
C         -1.27550        2.11450        5.27730
C         -1.65140        2.82560        6.58160
C         -0.45270        3.64360        7.07650
C          0.01150        4.63290        5.98940
O         -3.36400        0.60550       -7.04800
H          1.93690       -0.01290       -0.94560
H          3.18410       -0.03690        1.19160
H         -0.56190        0.03790        3.35720
H         -1.78790        0.03870        1.20580
H          3.62600        1.60360        4.99300
H          1.96960        2.16300        4.78780
H          3.07950        2.14000        3.40770
H         -1.47740       -2.04980       -0.83570
H         -2.69480       -2.27420       -2.98910
H         -3.34320       -1.34480       -5.18520
H         -2.02680        2.60690       -6.32440
H         -0.79210        2.82700       -4.13990
H          1.82360        3.55890       -1.01750
H          1.50810        5.10900        0.91180
H         -2.59500        3.81220        1.28890
H         -2.29170        2.30030       -0.68950
H         -0.38620        6.39930        3.82720
H          0.81070        6.49150        2.48450
H          1.92890        5.16820        4.22310
H          1.41770        4.00830        2.97130
H         -0.50010        2.62590        3.29670
H         -1.64020        3.82260        3.96630
H         -2.13270        1.54350        4.88160
H         -0.46860        1.37410        5.47360
H         -2.52730        3.48050        6.42600
H         -1.94930        2.08550        7.34670
H         -0.70650        4.19170        7.99950
H          0.38130        2.95970        7.33170
H         -0.78090        5.38810        5.80480
H          0.91110        5.18020        6.34240
H         -3.84700       -0.24050       -7.21650
