rmsd159.gzmat
 OpenBabel08211713433D

 68 72  0  0  0  0  0  0  0  0999 V2000
    0.0000    0.0000    0.0000 C   0  0  0  0  0  0  0  0  0  0  0  0
    1.3981    0.0000    0.0000 C   0  0  0  0  0  0  0  0  0  0  0  0
    2.0898    0.0000    1.2082 C   0  0  0  0  0  0  0  0  0  0  0  0
    1.3890    0.0244    2.4130 C   0  0  0  0  0  0  0  0  0  0  0  0
   -0.0039    0.0332    2.4150 C   0  0  0  0  0  0  0  0  0  0  0  0
   -0.7005    0.0232    1.2099 C   0  0  0  0  0  0  0  0  0  0  0  0
    2.2574    0.0039    3.9445 S   0  0  0  0  0  0  0  0  0  0  0  0
    1.3065   -0.2758    5.0005 O   0  0  0  0  0  0  0  0  0  0  0  0
    3.4262   -0.8413    3.7667 O   0  0  0  0  0  0  0  0  0  0  0  0
    2.8397    1.6746    4.1624 C   0  0  0  0  0  0  0  0  0  0  0  0
   -0.7487   -0.0369   -1.2580 C   0  0  0  0  0  0  0  0  0  0  0  0
   -0.7762    1.1119   -2.0878 C   0  0  0  0  0  0  0  0  0  0  0  0
   -1.5175    1.1304   -3.2404 C   0  0  0  0  0  0  0  0  0  0  0  0
   -2.2748   -0.0073   -3.6375 C   0  0  0  0  0  0  0  0  0  0  0  0
   -3.0510   -0.0047   -4.8244 C   0  0  0  0  0  0  0  0  0  0  0  0
   -3.7510   -1.1423   -5.1561 C   0  0  0  0  0  0  0  0  0  0  0  0
   -3.7310   -2.3246   -4.3660 C   0  0  0  0  0  0  0  0  0  0  0  0
   -2.9840   -2.3277   -3.2201 C   0  0  0  0  0  0  0  0  0  0  0  0
   -2.2475   -1.1721   -2.8364 C   0  0  0  0  0  0  0  0  0  0  0  0
   -1.4653   -1.1486   -1.6484 C   0  0  0  0  0  0  0  0  0  0  0  0
   -1.5589   -2.2866   -0.8836 O   0  0  0  0  0  0  0  0  0  0  0  0
   -0.3428   -2.8543   -0.5362 C   0  0  0  0  0  0  0  0  0  0  0  0
    0.6183   -3.1402   -1.5075 C   0  0  0  0  0  0  0  0  0  0  0  0
    1.7855   -3.7774   -1.1169 C   0  0  0  0  0  0  0  0  0  0  0  0
    1.9607   -4.1109    0.2376 C   0  0  0  0  0  0  0  0  0  0  0  0
    0.9838   -3.8354    1.1977 C   0  0  0  0  0  0  0  0  0  0  0  0
   -0.1903   -3.2003    0.8039 C   0  0  0  0  0  0  0  0  0  0  0  0
    3.1302   -4.7550    0.4804 O   0  0  0  0  0  0  0  0  0  0  0  0
    3.6638   -4.7089    1.8025 C   0  0  0  0  0  0  0  0  0  0  0  0
    4.0539   -3.2836    2.2075 C   0  0  0  0  0  0  0  0  0  0  0  0
    5.4256   -2.9920    1.7219 N   0  0  0  0  0  0  0  0  0  0  0  0
    5.9940   -1.8477    2.4823 C   0  0  0  0  0  0  0  0  0  0  0  0
    7.4467   -1.6025    2.0390 C   0  0  0  0  0  0  0  0  0  0  0  0
    7.4982   -1.3024    0.5363 C   0  0  0  0  0  0  0  0  0  0  0  0
    6.8529   -2.4644   -0.2277 C   0  0  0  0  0  0  0  0  0  0  0  0
    5.4135   -2.6952    0.2668 C   0  0  0  0  0  0  0  0  0  0  0  0
   -4.5216   -1.2384   -6.2670 O   0  0  0  0  0  0  0  0  0  0  0  0
    1.9391   -0.0241   -0.9443 H   0  0  0  0  0  0  0  0  0  0  0  0
    3.1832   -0.0400    1.1913 H   0  0  0  0  0  0  0  0  0  0  0  0
   -0.5661    0.0309    3.3568 H   0  0  0  0  0  0  0  0  0  0  0  0
   -1.7897    0.0181    1.2025 H   0  0  0  0  0  0  0  0  0  0  0  0
    2.9943    2.2023    3.2164 H   0  0  0  0  0  0  0  0  0  0  0  0
    3.8024    1.6906    4.6928 H   0  0  0  0  0  0  0  0  0  0  0  0
    2.1423    2.2712    4.7637 H   0  0  0  0  0  0  0  0  0  0  0  0
   -0.1980    1.9843   -1.7824 H   0  0  0  0  0  0  0  0  0  0  0  0
   -1.5408    2.0172   -3.8698 H   0  0  0  0  0  0  0  0  0  0  0  0
   -3.0796    0.8844   -5.4421 H   0  0  0  0  0  0  0  0  0  0  0  0
   -4.3079   -3.1868   -4.6936 H   0  0  0  0  0  0  0  0  0  0  0  0
   -2.9375   -3.2129   -2.5783 H   0  0  0  0  0  0  0  0  0  0  0  0
    0.4506   -2.8616   -2.5467 H   0  0  0  0  0  0  0  0  0  0  0  0
    2.5658   -4.0208   -1.8351 H   0  0  0  0  0  0  0  0  0  0  0  0
    1.1309   -4.1049    2.2402 H   0  0  0  0  0  0  0  0  0  0  0  0
   -0.9741   -2.9683    1.5229 H   0  0  0  0  0  0  0  0  0  0  0  0
    4.5551   -5.3616    1.6844 H   0  0  0  0  0  0  0  0  0  0  0  0
    2.9571   -5.1698    2.5102 H   0  0  0  0  0  0  0  0  0  0  0  0
    4.0399   -3.1911    3.3207 H   0  0  0  0  0  0  0  0  0  0  0  0
    3.2995   -2.5509    1.8459 H   0  0  0  0  0  0  0  0  0  0  0  0
    5.9651   -2.1053    3.5641 H   0  0  0  0  0  0  0  0  0  0  0  0
    5.3920   -0.9207    2.3680 H   0  0  0  0  0  0  0  0  0  0  0  0
    7.8805   -0.7731    2.6219 H   0  0  0  0  0  0  0  0  0  0  0  0
    8.0549   -2.5005    2.2627 H   0  0  0  0  0  0  0  0  0  0  0  0
    6.9697   -0.3578    0.3163 H   0  0  0  0  0  0  0  0  0  0  0  0
    8.5423   -1.1569    0.2079 H   0  0  0  0  0  0  0  0  0  0  0  0
    6.8503   -2.2690   -1.3133 H   0  0  0  0  0  0  0  0  0  0  0  0
    7.4436   -3.3886   -0.0726 H   0  0  0  0  0  0  0  0  0  0  0  0
    4.7805   -1.8182    0.0164 H   0  0  0  0  0  0  0  0  0  0  0  0
    4.9768   -3.5744   -0.2585 H   0  0  0  0  0  0  0  0  0  0  0  0
   -4.5149   -0.4097   -6.8052 H   0  0  0  0  0  0  0  0  0  0  0  0
  1  6  1  0  0  0  0
  2  1  2  0  0  0  0
  2  3  1  0  0  0  0
  3  4  2  0  0  0  0
  4  5  1  0  0  0  0
  4  7  1  0  0  0  0
  5 40  1  0  0  0  0
  6  5  2  0  0  0  0
  7 10  1  0  0  0  0
  7  8  2  0  0  0  0
  9  7  2  0  0  0  0
 10 43  1  0  0  0  0
 10 44  1  0  0  0  0
 11  1  1  0  0  0  0
 12 45  1  0  0  0  0
 12 11  2  0  0  0  0
 13 12  1  0  0  0  0
 14 13  2  0  0  0  0
 14 19  1  0  0  0  0
 15 14  1  0  0  0  0
 16 15  2  0  0  0  0
 16 17  1  0  0  0  0
 17 18  2  0  0  0  0
 18 19  1  0  0  0  0
 18 49  1  0  0  0  0
 19 20  2  0  0  0  0
 20 11  1  0  0  0  0
 20 21  1  0  0  0  0
 21 22  1  0  0  0  0
 22 27  2  0  0  0  0
 23 24  2  0  0  0  0
 23 22  1  0  0  0  0
 24 25  1  0  0  0  0
 25 28  1  0  0  0  0
 25 26  2  0  0  0  0
 26 52  1  0  0  0  0
 27 26  1  0  0  0  0
 27 53  1  0  0  0  0
 28 29  1  0  0  0  0
 29 30  1  0  0  0  0
 29 55  1  0  0  0  0
 30 56  1  0  0  0  0
 31 30  1  0  0  0  0
 31 32  1  0  0  0  0
 32 58  1  0  0  0  0
 33 61  1  0  0  0  0
 33 32  1  0  0  0  0
 33 60  1  0  0  0  0
 34 33  1  0  0  0  0
 35 65  1  0  0  0  0
 35 36  1  0  0  0  0
 35 34  1  0  0  0  0
 36 31  1  0  0  0  0
 37 16  1  0  0  0  0
 38  2  1  0  0  0  0
 39  3  1  0  0  0  0
 41  6  1  0  0  0  0
 42 10  1  0  0  0  0
 46 13  1  0  0  0  0
 47 15  1  0  0  0  0
 48 17  1  0  0  0  0
 50 23  1  0  0  0  0
 51 24  1  0  0  0  0
 54 29  1  0  0  0  0
 57 30  1  0  0  0  0
 59 32  1  0  0  0  0
 62 34  1  0  0  0  0
 63 34  1  0  0  0  0
 64 35  1  0  0  0  0
 66 36  1  0  0  0  0
 67 36  1  0  0  0  0
 68 37  1  0  0  0  0
M  END
$$$$
