68

C         -0.08580        0.08090        0.17030
C          1.30830        0.21870        0.10320
C          2.08610        0.16270        1.25950
C          1.45470       -0.04970        2.48420
C          0.06490       -0.16080        2.58300
C         -0.70140       -0.06480        1.42480
S          2.48510       -0.34310        3.91890
O          2.06770       -1.62230        4.52510
O          3.88630       -0.14230        3.52850
C          2.04660        0.96470        5.07680
C         -0.87690       -0.02080       -1.08700
C         -1.68770        1.04950       -1.54560
C         -2.38050        0.97070       -2.73460
C         -2.30690       -0.19870       -3.53870
C         -3.00310       -0.31950       -4.77090
C         -2.92600       -1.48120       -5.51690
C         -2.14720       -2.57770       -5.05450
C         -1.46150       -2.48720       -3.86720
C         -1.51480       -1.30230       -3.08150
C         -0.81260       -1.18350       -1.85000
O         -0.06080       -2.26400       -1.44910
C         -0.32560       -2.78350       -0.18930
C          0.73880       -3.05580        0.66500
C          0.50110       -3.49660        1.96990
C         -0.81750       -3.67030        2.41810
C         -1.88250       -3.44820        1.52760
C         -1.64080       -3.00830        0.23100
O         -1.16470       -4.03740        3.67420
C         -0.18340       -4.10530        4.70520
C         -0.91720       -4.04690        6.04750
N         -1.37570       -2.74280        6.49040
C         -2.32710       -2.08180        5.60930
C         -2.97480       -0.88380        6.30300
C         -1.90610        0.09290        6.79860
C         -0.89520       -0.64130        7.68250
C         -0.31650       -1.85590        6.95620
O         -3.56790       -1.65290       -6.69860
H          1.78600        0.33090       -0.87190
H          3.17360        0.24410        1.22570
H         -0.41430       -0.36610        3.54190
H         -1.78390       -0.18790        1.47940
H          2.28230        1.93100        4.61380
H          2.67610        0.78950        5.95990
H          0.98450        0.88480        5.34030
H         -1.73890        1.95690       -0.93930
H         -2.99080        1.81120       -3.07310
H         -3.60710        0.52220       -5.12340
H         -2.11370       -3.48050       -5.66680
H         -0.86020       -3.32230       -3.50700
H          1.75640       -2.87240        0.31860
H          1.34470       -3.64930        2.64140
H         -2.89990       -3.61200        1.88720
H         -2.46940       -2.80510       -0.44980
H          0.53550       -3.27620        4.61540
H          0.37840       -5.05460        4.61680
H         -0.24290       -4.44940        6.82160
H         -1.78200       -4.73060        5.98540
H         -3.08840       -2.81440        5.30100
H         -1.84690       -1.72890        4.66750
H         -3.67140       -0.38580        5.60820
H         -3.56690       -1.24540        7.16100
H         -1.38150        0.52590        5.92450
H         -2.36190        0.93870        7.33890
H         -0.07550        0.03150        7.98690
H         -1.39820       -0.98090        8.60400
H          0.33520       -1.51080        6.12600
H          0.33610       -2.42500        7.63840
H         -4.06310       -0.85190       -6.91610
