rmsd161.gzmat
 OpenBabel08211713433D

 68 72  0  0  0  0  0  0  0  0999 V2000
    0.0000    0.0000    0.0000 C   0  0  0  0  0  0  0  0  0  0  0  0
    1.3983    0.0000    0.0000 C   0  0  0  0  0  0  0  0  0  0  0  0
    2.0937    0.0000    1.2064 C   0  0  0  0  0  0  0  0  0  0  0  0
    1.3963    0.0105    2.4119 C   0  0  0  0  0  0  0  0  0  0  0  0
    0.0042    0.0438    2.4148 C   0  0  0  0  0  0  0  0  0  0  0  0
   -0.6967    0.0418    1.2112 C   0  0  0  0  0  0  0  0  0  0  0  0
    2.2805   -0.1177    3.9385 S   0  0  0  0  0  0  0  0  0  0  0  0
    1.4098   -0.7883    4.8850 O   0  0  0  0  0  0  0  0  0  0  0  0
    3.5894   -0.6624    3.6272 O   0  0  0  0  0  0  0  0  0  0  0  0
    2.5131    1.5477    4.4999 C   0  0  0  0  0  0  0  0  0  0  0  0
   -0.7241   -0.0954   -1.2690 C   0  0  0  0  0  0  0  0  0  0  0  0
   -1.6038   -1.1900   -1.4776 C   0  0  0  0  0  0  0  0  0  0  0  0
   -2.2608   -1.3508   -2.6693 C   0  0  0  0  0  0  0  0  0  0  0  0
   -2.0787   -0.4234   -3.7335 C   0  0  0  0  0  0  0  0  0  0  0  0
   -2.7418   -0.5811   -4.9771 C   0  0  0  0  0  0  0  0  0  0  0  0
   -2.5252    0.3544   -5.9625 C   0  0  0  0  0  0  0  0  0  0  0  0
   -1.6716    1.4789   -5.7901 C   0  0  0  0  0  0  0  0  0  0  0  0
   -1.0310    1.6319   -4.5916 C   0  0  0  0  0  0  0  0  0  0  0  0
   -1.2207    0.6847   -3.5462 C   0  0  0  0  0  0  0  0  0  0  0  0
   -0.5621    0.8123   -2.2931 C   0  0  0  0  0  0  0  0  0  0  0  0
    0.3233    1.8655   -2.2138 O   0  0  0  0  0  0  0  0  0  0  0  0
    0.0914    2.7547   -1.1850 C   0  0  0  0  0  0  0  0  0  0  0  0
   -1.1937    3.0595   -0.7300 C   0  0  0  0  0  0  0  0  0  0  0  0
   -1.3346    3.9922    0.2852 C   0  0  0  0  0  0  0  0  0  0  0  0
   -0.1848    4.6021    0.8123 C   0  0  0  0  0  0  0  0  0  0  0  0
    1.0911    4.3293    0.3182 C   0  0  0  0  0  0  0  0  0  0  0  0
    1.2342    3.3827   -0.6927 C   0  0  0  0  0  0  0  0  0  0  0  0
   -0.4702    5.4903    1.8061 O   0  0  0  0  0  0  0  0  0  0  0  0
    0.5518    5.7997    2.7418 C   0  0  0  0  0  0  0  0  0  0  0  0
    1.0614    4.5637    3.4989 C   0  0  0  0  0  0  0  0  0  0  0  0
    0.1209    3.8708    4.3961 N   0  0  0  0  0  0  0  0  0  0  0  0
   -1.0535    3.3247    3.6732 C   0  0  0  0  0  0  0  0  0  0  0  0
   -1.8609    2.4282    4.6292 C   0  0  0  0  0  0  0  0  0  0  0  0
   -2.3224    3.2399    5.8447 C   0  0  0  0  0  0  0  0  0  0  0  0
   -1.0972    3.8521    6.5333 C   0  0  0  0  0  0  0  0  0  0  0  0
   -0.3004    4.7175    5.5373 C   0  0  0  0  0  0  0  0  0  0  0  0
   -3.1077    0.2907   -7.1847 O   0  0  0  0  0  0  0  0  0  0  0  0
    1.9372   -0.0140   -0.9462 H   0  0  0  0  0  0  0  0  0  0  0  0
    3.1888   -0.0369    1.1901 H   0  0  0  0  0  0  0  0  0  0  0  0
   -0.5549    0.0462    3.3568 H   0  0  0  0  0  0  0  0  0  0  0  0
   -1.7842    0.0625    1.2111 H   0  0  0  0  0  0  0  0  0  0  0  0
    3.0586    2.1658    3.7823 H   0  0  0  0  0  0  0  0  0  0  0  0
    3.0782    1.5756    5.4401 H   0  0  0  0  0  0  0  0  0  0  0  0
    1.5537    2.0563    4.7153 H   0  0  0  0  0  0  0  0  0  0  0  0
   -1.7372   -1.9072   -0.6657 H   0  0  0  0  0  0  0  0  0  0  0  0
   -2.9314   -2.1941   -2.8233 H   0  0  0  0  0  0  0  0  0  0  0  0
   -3.3981   -1.4295   -5.1279 H   0  0  0  0  0  0  0  0  0  0  0  0
   -1.5524    2.1795   -6.6136 H   0  0  0  0  0  0  0  0  0  0  0  0
   -0.3634    2.4795   -4.4129 H   0  0  0  0  0  0  0  0  0  0  0  0
   -2.0661    2.5686   -1.1603 H   0  0  0  0  0  0  0  0  0  0  0  0
   -2.3146    4.2568    0.6785 H   0  0  0  0  0  0  0  0  0  0  0  0
    1.9651    4.8443    0.7044 H   0  0  0  0  0  0  0  0  0  0  0  0
    2.2136    3.1299   -1.0943 H   0  0  0  0  0  0  0  0  0  0  0  0
    0.0128    6.5069    3.4029 H   0  0  0  0  0  0  0  0  0  0  0  0
    1.3709    6.3362    2.2326 H   0  0  0  0  0  0  0  0  0  0  0  0
    1.9504    4.8546    4.1059 H   0  0  0  0  0  0  0  0  0  0  0  0
    1.4250    3.8018    2.7666 H   0  0  0  0  0  0  0  0  0  0  0  0
   -0.6872    2.7272    2.8091 H   0  0  0  0  0  0  0  0  0  0  0  0
   -1.7083    4.1211    3.2588 H   0  0  0  0  0  0  0  0  0  0  0  0
   -2.7245    1.9952    4.0957 H   0  0  0  0  0  0  0  0  0  0  0  0
   -1.2348    1.5772    4.9653 H   0  0  0  0  0  0  0  0  0  0  0  0
   -3.0263    4.0335    5.5340 H   0  0  0  0  0  0  0  0  0  0  0  0
   -2.8773    2.5950    6.5500 H   0  0  0  0  0  0  0  0  0  0  0  0
   -1.3982    4.4612    7.4023 H   0  0  0  0  0  0  0  0  0  0  0  0
   -0.4455    3.0445    6.9221 H   0  0  0  0  0  0  0  0  0  0  0  0
   -0.9120    5.5895    5.2237 H   0  0  0  0  0  0  0  0  0  0  0  0
    0.6103    5.1144    6.0339 H   0  0  0  0  0  0  0  0  0  0  0  0
   -3.6912   -0.5008   -7.2851 H   0  0  0  0  0  0  0  0  0  0  0  0
  1  2  2  0  0  0  0
  1  6  1  0  0  0  0
  2  3  1  0  0  0  0
  3  4  2  0  0  0  0
  4  5  1  0  0  0  0
  4  7  1  0  0  0  0
  5 40  1  0  0  0  0
  6  5  2  0  0  0  0
  7 10  1  0  0  0  0
  7  8  2  0  0  0  0
  9  7  2  0  0  0  0
 10 44  1  0  0  0  0
 10 43  1  0  0  0  0
 11  1  1  0  0  0  0
 12 11  1  0  0  0  0
 12 45  1  0  0  0  0
 13 12  2  0  0  0  0
 14 19  1  0  0  0  0
 14 13  1  0  0  0  0
 15 14  2  0  0  0  0
 16 17  2  0  0  0  0
 16 15  1  0  0  0  0
 17 18  1  0  0  0  0
 18 49  1  0  0  0  0
 18 19  2  0  0  0  0
 19 20  1  0  0  0  0
 20 21  1  0  0  0  0
 20 11  2  0  0  0  0
 21 22  1  0  0  0  0
 22 23  2  0  0  0  0
 22 27  1  0  0  0  0
 23 24  1  0  0  0  0
 24 51  1  0  0  0  0
 24 25  2  0  0  0  0
 25 28  1  0  0  0  0
 26 52  1  0  0  0  0
 26 25  1  0  0  0  0
 27 26  2  0  0  0  0
 28 29  1  0  0  0  0
 29 54  1  0  0  0  0
 29 30  1  0  0  0  0
 30 56  1  0  0  0  0
 30 31  1  0  0  0  0
 31 36  1  0  0  0  0
 32 31  1  0  0  0  0
 32 33  1  0  0  0  0
 33 61  1  0  0  0  0
 33 34  1  0  0  0  0
 34 35  1  0  0  0  0
 34 63  1  0  0  0  0
 35 65  1  0  0  0  0
 35 64  1  0  0  0  0
 36 67  1  0  0  0  0
 36 35  1  0  0  0  0
 37 16  1  0  0  0  0
 38  2  1  0  0  0  0
 39  3  1  0  0  0  0
 41  6  1  0  0  0  0
 42 10  1  0  0  0  0
 46 13  1  0  0  0  0
 47 15  1  0  0  0  0
 48 17  1  0  0  0  0
 50 23  1  0  0  0  0
 53 27  1  0  0  0  0
 55 29  1  0  0  0  0
 57 30  1  0  0  0  0
 58 32  1  0  0  0  0
 59 32  1  0  0  0  0
 60 33  1  0  0  0  0
 62 34  1  0  0  0  0
 66 36  1  0  0  0  0
 68 37  1  0  0  0  0
M  END
$$$$
