rmsd129.gzmat
 OpenBabel08211713433D

 68 72  0  0  0  0  0  0  0  0999 V2000
    0.0000    0.0000    0.0000 C   0  0  0  0  0  0  0  0  0  0  0  0
    1.3979    0.0000    0.0000 C   0  0  0  0  0  0  0  0  0  0  0  0
    2.0920    0.0000    1.2076 C   0  0  0  0  0  0  0  0  0  0  0  0
    1.3934   -0.0076    2.4123 C   0  0  0  0  0  0  0  0  0  0  0  0
    0.0010    0.0170    2.4148 C   0  0  0  0  0  0  0  0  0  0  0  0
   -0.6981    0.0294    1.2103 C   0  0  0  0  0  0  0  0  0  0  0  0
    2.2783   -0.1385    3.9390 S   0  0  0  0  0  0  0  0  0  0  0  0
    1.5034   -0.9963    4.8151 O   0  0  0  0  0  0  0  0  0  0  0  0
    3.6505   -0.4765    3.6043 O   0  0  0  0  0  0  0  0  0  0  0  0
    2.2662    1.4905    4.6371 C   0  0  0  0  0  0  0  0  0  0  0  0
   -0.7350   -0.0805   -1.2649 C   0  0  0  0  0  0  0  0  0  0  0  0
   -0.6273   -1.2677   -2.0362 C   0  0  0  0  0  0  0  0  0  0  0  0
   -1.3195   -1.4131   -3.2095 C   0  0  0  0  0  0  0  0  0  0  0  0
   -2.1653   -0.3741   -3.6902 C   0  0  0  0  0  0  0  0  0  0  0  0
   -2.8885   -0.5079   -4.9027 C   0  0  0  0  0  0  0  0  0  0  0  0
   -3.6795    0.5393   -5.3170 C   0  0  0  0  0  0  0  0  0  0  0  0
   -3.8062    1.7519   -4.5849 C   0  0  0  0  0  0  0  0  0  0  0  0
   -3.1119    1.8804   -3.4134 C   0  0  0  0  0  0  0  0  0  0  0  0
   -2.2824    0.8224   -2.9463 C   0  0  0  0  0  0  0  0  0  0  0  0
   -1.5481    0.9281   -1.7321 C   0  0  0  0  0  0  0  0  0  0  0  0
   -1.8034    2.0781   -1.0220 O   0  0  0  0  0  0  0  0  0  0  0  0
   -0.7130    2.8335   -0.6503 C   0  0  0  0  0  0  0  0  0  0  0  0
   -0.9410    3.6418    0.4632 C   0  0  0  0  0  0  0  0  0  0  0  0
    0.0769    4.4883    0.8926 C   0  0  0  0  0  0  0  0  0  0  0  0
    1.2939    4.4842    0.2096 C   0  0  0  0  0  0  0  0  0  0  0  0
    1.5050    3.6892   -0.9284 C   0  0  0  0  0  0  0  0  0  0  0  0
    0.4842    2.8606   -1.3682 C   0  0  0  0  0  0  0  0  0  0  0  0
    2.3766    5.2492    0.5239 O   0  0  0  0  0  0  0  0  0  0  0  0
    2.4667    5.7784    1.8390 C   0  0  0  0  0  0  0  0  0  0  0  0
    2.5406    4.6751    2.9056 C   0  0  0  0  0  0  0  0  0  0  0  0
    3.7825    3.8871    2.9758 N   0  0  0  0  0  0  0  0  0  0  0  0
    4.9289    4.6781    3.4826 C   0  0  0  0  0  0  0  0  0  0  0  0
    6.1074    3.7200    3.7447 C   0  0  0  0  0  0  0  0  0  0  0  0
    6.5000    2.9966    2.4511 C   0  0  0  0  0  0  0  0  0  0  0  0
    5.2795    2.2570    1.8924 C   0  0  0  0  0  0  0  0  0  0  0  0
    4.1115    3.2371    1.6829 C   0  0  0  0  0  0  0  0  0  0  0  0
   -4.4064    0.5108   -6.4608 O   0  0  0  0  0  0  0  0  0  0  0  0
    1.9396   -0.0067   -0.9435 H   0  0  0  0  0  0  0  0  0  0  0  0
    3.1888   -0.0154    1.1949 H   0  0  0  0  0  0  0  0  0  0  0  0
   -0.5617   -0.0010    3.3528 H   0  0  0  0  0  0  0  0  0  0  0  0
   -1.7864    0.0468    1.2058 H   0  0  0  0  0  0  0  0  0  0  0  0
    3.1309    2.0922    4.2865 H   0  0  0  0  0  0  0  0  0  0  0  0
    2.3396    1.4609    5.7311 H   0  0  0  0  0  0  0  0  0  0  0  0
    1.3696    2.0636    4.3893 H   0  0  0  0  0  0  0  0  0  0  0  0
    0.0167   -2.0669   -1.6642 H   0  0  0  0  0  0  0  0  0  0  0  0
   -1.2359   -2.3272   -3.7939 H   0  0  0  0  0  0  0  0  0  0  0  0
   -2.8062   -1.4239   -5.4747 H   0  0  0  0  0  0  0  0  0  0  0  0
   -4.4495    2.5374   -4.9754 H   0  0  0  0  0  0  0  0  0  0  0  0
   -3.1798    2.7938   -2.8159 H   0  0  0  0  0  0  0  0  0  0  0  0
   -1.8991    3.6056    0.9780 H   0  0  0  0  0  0  0  0  0  0  0  0
   -0.0892    5.1424    1.7429 H   0  0  0  0  0  0  0  0  0  0  0  0
    2.4600    3.7350   -1.4485 H   0  0  0  0  0  0  0  0  0  0  0  0
    0.6157    2.2376   -2.2520 H   0  0  0  0  0  0  0  0  0  0  0  0
    1.6326    6.4770    2.0189 H   0  0  0  0  0  0  0  0  0  0  0  0
    3.4104    6.3538    1.7616 H   0  0  0  0  0  0  0  0  0  0  0  0
    1.7116    3.9433    2.7424 H   0  0  0  0  0  0  0  0  0  0  0  0
    2.3594    5.1224    3.9090 H   0  0  0  0  0  0  0  0  0  0  0  0
    4.6269    5.1681    4.4322 H   0  0  0  0  0  0  0  0  0  0  0  0
    5.2433    5.4809    2.7839 H   0  0  0  0  0  0  0  0  0  0  0  0
    6.9632    4.2797    4.1579 H   0  0  0  0  0  0  0  0  0  0  0  0
    5.8139    2.9759    4.5118 H   0  0  0  0  0  0  0  0  0  0  0  0
    6.8876    3.7185    1.7101 H   0  0  0  0  0  0  0  0  0  0  0  0
    7.3213    2.2830    2.6467 H   0  0  0  0  0  0  0  0  0  0  0  0
    5.5261    1.7595    0.9389 H   0  0  0  0  0  0  0  0  0  0  0  0
    4.9774    1.4472    2.5931 H   0  0  0  0  0  0  0  0  0  0  0  0
    4.3698    3.9720    0.8908 H   0  0  0  0  0  0  0  0  0  0  0  0
    3.2112    2.6888    1.3277 H   0  0  0  0  0  0  0  0  0  0  0  0
   -4.3076   -0.3419   -6.9507 H   0  0  0  0  0  0  0  0  0  0  0  0
  1  2  2  0  0  0  0
  1  6  1  0  0  0  0
  2  3  1  0  0  0  0
  3  4  2  0  0  0  0
  4  5  1  0  0  0  0
  4  7  1  0  0  0  0
  5 40  1  0  0  0  0
  6  5  2  0  0  0  0
  7 10  1  0  0  0  0
  7  8  2  0  0  0  0
  9  7  2  0  0  0  0
 10 43  1  0  0  0  0
 11  1  1  0  0  0  0
 12 45  1  0  0  0  0
 12 11  2  0  0  0  0
 13 12  1  0  0  0  0
 14 13  2  0  0  0  0
 14 19  1  0  0  0  0
 15 14  1  0  0  0  0
 16 15  2  0  0  0  0
 16 17  1  0  0  0  0
 17 18  2  0  0  0  0
 18 19  1  0  0  0  0
 18 49  1  0  0  0  0
 19 20  2  0  0  0  0
 20 11  1  0  0  0  0
 20 21  1  0  0  0  0
 21 22  1  0  0  0  0
 22 23  2  0  0  0  0
 23 24  1  0  0  0  0
 23 50  1  0  0  0  0
 24 51  1  0  0  0  0
 25 28  1  0  0  0  0
 25 24  2  0  0  0  0
 26 25  1  0  0  0  0
 27 26  2  0  0  0  0
 27 22  1  0  0  0  0
 28 29  1  0  0  0  0
 29 54  1  0  0  0  0
 29 30  1  0  0  0  0
 30 31  1  0  0  0  0
 30 57  1  0  0  0  0
 31 32  1  0  0  0  0
 32 33  1  0  0  0  0
 32 58  1  0  0  0  0
 33 60  1  0  0  0  0
 33 61  1  0  0  0  0
 34 63  1  0  0  0  0
 34 33  1  0  0  0  0
 35 34  1  0  0  0  0
 35 65  1  0  0  0  0
 36 35  1  0  0  0  0
 36 31  1  0  0  0  0
 37 16  1  0  0  0  0
 38  2  1  0  0  0  0
 39  3  1  0  0  0  0
 41  6  1  0  0  0  0
 42 10  1  0  0  0  0
 44 10  1  0  0  0  0
 46 13  1  0  0  0  0
 47 15  1  0  0  0  0
 48 17  1  0  0  0  0
 52 26  1  0  0  0  0
 53 27  1  0  0  0  0
 55 29  1  0  0  0  0
 56 30  1  0  0  0  0
 59 32  1  0  0  0  0
 62 34  1  0  0  0  0
 64 35  1  0  0  0  0
 66 36  1  0  0  0  0
 67 36  1  0  0  0  0
 68 37  1  0  0  0  0
M  END
$$$$
