68
rmsd32.gzmat
C          0.00000        0.00000        0.00000
C          1.39830        0.00000        0.00000
C          2.09030        0.00000        1.20770
C          1.38930        0.02970        2.41250
C         -0.00290        0.08210        2.41270
C         -0.70060        0.06620        1.20750
S          2.24220       -0.07780        3.94870
O          1.29180        0.18710        5.00920
O          2.99630       -1.32120        3.94270
C          3.43120        1.25020        3.92500
C         -0.74490       -0.07740       -1.25870
C         -0.92130        1.10500       -2.02070
C         -1.65950        1.09730       -3.17470
C         -2.26980       -0.10230       -3.63760
C         -3.04860       -0.12510       -4.82230
C         -3.60640       -1.31840       -5.22140
C         -3.43820       -2.53190       -4.50050
C         -2.68760       -2.51010       -3.35650
C         -2.09480       -1.29840       -2.90470
C         -1.31530       -1.24840       -1.71240
O         -1.28110       -2.44010       -1.03580
C         -0.04640       -2.81210       -0.52660
C          1.05520       -2.95340       -1.37290
C          2.25240       -3.39680       -0.83380
C          2.31700       -3.68300        0.54270
C          1.19870       -3.57140        1.37270
C         -0.00480       -3.13170        0.82770
O          3.54990       -4.07890        0.93860
C          3.78350       -4.20750        2.34740
C          5.27790       -4.56580        2.41730
N          6.22680       -3.43800        2.45640
C          6.10270       -2.65620        3.71190
C          7.22540       -1.60290        3.76500
C          7.13800       -0.67210        2.54910
C          7.20040       -1.51240        1.26770
C          6.07430       -2.56260        1.26880
O         -4.36470       -1.44200       -6.33850
H          1.93870       -0.03260       -0.94460
H          3.18150       -0.04540        1.18520
H         -0.56490        0.12510        3.35410
H         -1.78950        0.08740        1.20050
H          4.41270        0.91200        3.56780
H          3.58900        1.65240        4.93610
H          3.12010        2.09380        3.30130
H         -0.45980        2.02500       -1.66030
H         -1.79410        2.00780       -3.75390
H         -3.19080        0.78950       -5.38450
H         -3.91050       -3.43730       -4.87460
H         -2.53050       -3.42000       -2.76890
H          0.96860       -2.71380       -2.43120
H          3.13890       -3.52390       -1.45050
H          1.25850       -3.80370        2.43320
H         -0.89520       -3.02420        1.44470
H          3.14750       -5.01470        2.74310
H          3.54510       -3.25050        2.85560
H          5.54560       -5.19120        1.53040
H          5.46530       -5.20160        3.31120
H          6.20730       -3.35660        4.56700
H          5.10950       -2.15980        3.81730
H          7.15540       -1.03070        4.70530
H          8.20800       -2.11350        3.77620
H          6.19890       -0.09140        2.57840
H          7.96210        0.06230        2.56850
H          7.11960       -0.87450        0.37240
H          8.17960       -2.02650        1.20450
H          5.08220       -2.06250        1.23270
H          6.14650       -3.19820        0.36010
H         -4.47340       -0.58480       -6.81840
