rmsd66.gzmat
 OpenBabel08211713373D

 32 33  0  0  0  0  0  0  0  0999 V2000
    0.0000    0.0000    0.0000 S   0  0  0  0  0  0  0  0  0  0  0  0
    1.6102    0.0000    0.0000 C   0  0  0  0  0  0  0  0  0  0  0  0
    2.3786    0.0000    1.2447 C   0  0  0  0  0  0  0  0  0  0  0  0
    2.0273   -0.8308    2.3201 C   0  0  0  0  0  0  0  0  0  0  0  0
    2.7600   -0.8068    3.4955 C   0  0  0  0  0  0  0  0  0  0  0  0
    3.8521    0.0714    3.5986 C   0  0  0  0  0  0  0  0  0  0  0  0
    4.4771   -0.0049    4.8000 O   0  0  0  0  0  0  0  0  0  0  0  0
    5.5807    0.8636    5.0195 C   0  0  0  0  0  0  0  0  0  0  0  0
    4.2180    0.9089    2.5434 C   0  0  0  0  0  0  0  0  0  0  0  0
    3.4763    0.8605    1.3682 C   0  0  0  0  0  0  0  0  0  0  0  0
    2.3848    0.0030   -1.2401 C   0  0  0  0  0  0  0  0  0  0  0  0
    2.0153    0.7960   -2.3303 C   0  0  0  0  0  0  0  0  0  0  0  0
    2.7599    0.7797   -3.5073 C   0  0  0  0  0  0  0  0  0  0  0  0
    3.8788   -0.0492   -3.5828 C   0  0  0  0  0  0  0  0  0  0  0  0
    4.7038   -0.1684   -4.6526 O   0  0  0  0  0  0  0  0  0  0  0  0
    4.3591    0.5539   -5.8277 C   0  0  0  0  0  0  0  0  0  0  0  0
    4.2686   -0.8595   -2.5010 C   0  0  0  0  0  0  0  0  0  0  0  0
    3.5187   -0.8239   -1.3395 C   0  0  0  0  0  0  0  0  0  0  0  0
    1.1750   -1.5098    2.2344 H   0  0  0  0  0  0  0  0  0  0  0  0
    2.5042   -1.4476    4.3356 H   0  0  0  0  0  0  0  0  0  0  0  0
    5.8756    0.6069    6.0465 H   0  0  0  0  0  0  0  0  0  0  0  0
    5.2711    1.9118    4.9618 H   0  0  0  0  0  0  0  0  0  0  0  0
    6.3948    0.6445    4.3219 H   0  0  0  0  0  0  0  0  0  0  0  0
    5.0610    1.5856    2.6232 H   0  0  0  0  0  0  0  0  0  0  0  0
    3.7515    1.5073    0.5319 H   0  0  0  0  0  0  0  0  0  0  0  0
    1.1385    1.4457   -2.2685 H   0  0  0  0  0  0  0  0  0  0  0  0
    2.4609    1.4042   -4.3415 H   0  0  0  0  0  0  0  0  0  0  0  0
    5.1556    0.2574   -6.5240 H   0  0  0  0  0  0  0  0  0  0  0  0
    4.3918    1.6325   -5.6476 H   0  0  0  0  0  0  0  0  0  0  0  0
    3.3824    0.2386   -6.2080 H   0  0  0  0  0  0  0  0  0  0  0  0
    5.1447   -1.4963   -2.5933 H   0  0  0  0  0  0  0  0  0  0  0  0
    3.8043   -1.4487   -0.4894 H   0  0  0  0  0  0  0  0  0  0  0  0
  1  2  2  0  0  0  0
  2  3  1  0  0  0  0
  3 10  2  0  0  0  0
  3  4  1  0  0  0  0
  4  5  2  0  0  0  0
  5  6  1  0  0  0  0
  5 20  1  0  0  0  0
  6  7  1  0  0  0  0
  7  8  1  0  0  0  0
  8 21  1  0  0  0  0
  9 24  1  0  0  0  0
  9  6  2  0  0  0  0
 10  9  1  0  0  0  0
 11  2  1  0  0  0  0
 12 26  1  0  0  0  0
 12 11  2  0  0  0  0
 13 12  1  0  0  0  0
 14 13  2  0  0  0  0
 14 17  1  0  0  0  0
 15 14  1  0  0  0  0
 16 29  1  0  0  0  0
 16 15  1  0  0  0  0
 17 18  2  0  0  0  0
 18 11  1  0  0  0  0
 18 32  1  0  0  0  0
 19  4  1  0  0  0  0
 22  8  1  0  0  0  0
 23  8  1  0  0  0  0
 25 10  1  0  0  0  0
 27 13  1  0  0  0  0
 28 16  1  0  0  0  0
 30 16  1  0  0  0  0
 31 17  1  0  0  0  0
M  END
$$$$
