rmsd51.gzmat
 OpenBabel08211713373D

 32 33  0  0  0  0  0  0  0  0999 V2000
    0.0000    0.0000    0.0000 S   0  0  0  0  0  0  0  0  0  0  0  0
    1.6111    0.0000    0.0000 C   0  0  0  0  0  0  0  0  0  0  0  0
    2.3693    0.0000    1.2524 C   0  0  0  0  0  0  0  0  0  0  0  0
    2.0558   -0.8793    2.2915 C   0  0  0  0  0  0  0  0  0  0  0  0
    2.7847   -0.8652    3.4788 C   0  0  0  0  0  0  0  0  0  0  0  0
    3.8253    0.0526    3.6160 C   0  0  0  0  0  0  0  0  0  0  0  0
    4.6221    0.1893    4.7054 O   0  0  0  0  0  0  0  0  0  0  0  0
    4.3803   -0.6774    5.8063 C   0  0  0  0  0  0  0  0  0  0  0  0
    4.1547    0.9523    2.5859 C   0  0  0  0  0  0  0  0  0  0  0  0
    3.4262    0.9137    1.4107 C   0  0  0  0  0  0  0  0  0  0  0  0
    2.3927   -0.0071   -1.2339 C   0  0  0  0  0  0  0  0  0  0  0  0
    1.9862    0.7099   -2.3635 C   0  0  0  0  0  0  0  0  0  0  0  0
    2.7306    0.6700   -3.5399 C   0  0  0  0  0  0  0  0  0  0  0  0
    3.8885   -0.1066   -3.5761 C   0  0  0  0  0  0  0  0  0  0  0  0
    4.7115   -0.2503   -4.6439 O   0  0  0  0  0  0  0  0  0  0  0  0
    4.3355    0.3986   -5.8512 C   0  0  0  0  0  0  0  0  0  0  0  0
    4.3224   -0.8328   -2.4522 C   0  0  0  0  0  0  0  0  0  0  0  0
    3.5723   -0.7727   -1.2922 C   0  0  0  0  0  0  0  0  0  0  0  0
    1.2388   -1.5961    2.1797 H   0  0  0  0  0  0  0  0  0  0  0  0
    2.5338   -1.5594    4.2727 H   0  0  0  0  0  0  0  0  0  0  0  0
    5.1619   -0.3723    6.5162 H   0  0  0  0  0  0  0  0  0  0  0  0
    4.5138   -1.7246    5.5194 H   0  0  0  0  0  0  0  0  0  0  0  0
    3.3876   -0.4991    6.2310 H   0  0  0  0  0  0  0  0  0  0  0  0
    4.9702    1.6576    2.7274 H   0  0  0  0  0  0  0  0  0  0  0  0
    3.6680    1.6022    0.5975 H   0  0  0  0  0  0  0  0  0  0  0  0
    1.0789    1.3182   -2.3340 H   0  0  0  0  0  0  0  0  0  0  0  0
    2.4013    1.2361   -4.4040 H   0  0  0  0  0  0  0  0  0  0  0  0
    5.1429    0.1009   -6.5348 H   0  0  0  0  0  0  0  0  0  0  0  0
    4.3241    1.4851   -5.7228 H   0  0  0  0  0  0  0  0  0  0  0  0
    3.3723    0.0253   -6.2125 H   0  0  0  0  0  0  0  0  0  0  0  0
    5.2318   -1.4255   -2.5120 H   0  0  0  0  0  0  0  0  0  0  0  0
    3.8938   -1.3319   -0.4097 H   0  0  0  0  0  0  0  0  0  0  0  0
  1  2  2  0  0  0  0
  2  3  1  0  0  0  0
  3 10  2  0  0  0  0
  3  4  1  0  0  0  0
  4  5  2  0  0  0  0
  5  6  1  0  0  0  0
  5 20  1  0  0  0  0
  6  7  1  0  0  0  0
  7  8  1  0  0  0  0
  8 23  1  0  0  0  0
  8 21  1  0  0  0  0
  9 24  1  0  0  0  0
  9  6  2  0  0  0  0
 10  9  1  0  0  0  0
 11  2  1  0  0  0  0
 12 26  1  0  0  0  0
 12 11  2  0  0  0  0
 13 12  1  0  0  0  0
 14 13  2  0  0  0  0
 14 17  1  0  0  0  0
 15 14  1  0  0  0  0
 16 29  1  0  0  0  0
 16 15  1  0  0  0  0
 17 18  2  0  0  0  0
 18 11  1  0  0  0  0
 18 32  1  0  0  0  0
 19  4  1  0  0  0  0
 22  8  1  0  0  0  0
 25 10  1  0  0  0  0
 27 13  1  0  0  0  0
 28 16  1  0  0  0  0
 30 16  1  0  0  0  0
 31 17  1  0  0  0  0
M  END
$$$$
