rmsd30.gzmat
 OpenBabel08211713373D

 32 33  0  0  0  0  0  0  0  0999 V2000
    0.0000    0.0000    0.0000 S   0  0  0  0  0  0  0  0  0  0  0  0
    1.6091    0.0000    0.0000 C   0  0  0  0  0  0  0  0  0  0  0  0
    2.3824    0.0000    1.2414 C   0  0  0  0  0  0  0  0  0  0  0  0
    2.0422   -0.8384    2.3145 C   0  0  0  0  0  0  0  0  0  0  0  0
    2.7783   -0.8116    3.4877 C   0  0  0  0  0  0  0  0  0  0  0  0
    3.8620    0.0766    3.5907 C   0  0  0  0  0  0  0  0  0  0  0  0
    4.4871    0.0060    4.7924 O   0  0  0  0  0  0  0  0  0  0  0  0
    5.6113    0.8519    4.9955 C   0  0  0  0  0  0  0  0  0  0  0  0
    4.2177    0.9203    2.5369 C   0  0  0  0  0  0  0  0  0  0  0  0
    3.4731    0.8685    1.3633 C   0  0  0  0  0  0  0  0  0  0  0  0
    2.3816    0.0013   -1.2421 C   0  0  0  0  0  0  0  0  0  0  0  0
    2.0472    0.8378   -2.3102 C   0  0  0  0  0  0  0  0  0  0  0  0
    2.7861    0.8132   -3.4909 C   0  0  0  0  0  0  0  0  0  0  0  0
    3.8587   -0.0721   -3.5926 C   0  0  0  0  0  0  0  0  0  0  0  0
    4.6653   -0.2174   -4.6734 O   0  0  0  0  0  0  0  0  0  0  0  0
    4.3620    0.5590   -5.8245 C   0  0  0  0  0  0  0  0  0  0  0  0
    4.2142   -0.9237   -2.5310 C   0  0  0  0  0  0  0  0  0  0  0  0
    3.4749   -0.8746   -1.3632 C   0  0  0  0  0  0  0  0  0  0  0  0
    1.1966   -1.5254    2.2286 H   0  0  0  0  0  0  0  0  0  0  0  0
    2.5315   -1.4586    4.3256 H   0  0  0  0  0  0  0  0  0  0  0  0
    5.9062    0.6017    6.0238 H   0  0  0  0  0  0  0  0  0  0  0  0
    5.3277    1.9059    4.9258 H   0  0  0  0  0  0  0  0  0  0  0  0
    6.4156    0.6037    4.2962 H   0  0  0  0  0  0  0  0  0  0  0  0
    5.0536    1.6058    2.6167 H   0  0  0  0  0  0  0  0  0  0  0  0
    3.7408    1.5196    0.5279 H   0  0  0  0  0  0  0  0  0  0  0  0
    1.2039    1.5276   -2.2277 H   0  0  0  0  0  0  0  0  0  0  0  0
    2.5172    1.4730   -4.3080 H   0  0  0  0  0  0  0  0  0  0  0  0
    5.1264    0.2210   -6.5378 H   0  0  0  0  0  0  0  0  0  0  0  0
    4.4783    1.6265   -5.6156 H   0  0  0  0  0  0  0  0  0  0  0  0
    3.3605    0.3291   -6.2012 H   0  0  0  0  0  0  0  0  0  0  0  0
    5.0561   -1.6023   -2.6441 H   0  0  0  0  0  0  0  0  0  0  0  0
    3.7358   -1.5273   -0.5264 H   0  0  0  0  0  0  0  0  0  0  0  0
  1  2  2  0  0  0  0
  2  3  1  0  0  0  0
  3 10  2  0  0  0  0
  3  4  1  0  0  0  0
  4  5  2  0  0  0  0
  5  6  1  0  0  0  0
  5 20  1  0  0  0  0
  6  7  1  0  0  0  0
  7  8  1  0  0  0  0
  8 21  1  0  0  0  0
  9 24  1  0  0  0  0
  9  6  2  0  0  0  0
 10  9  1  0  0  0  0
 11  2  1  0  0  0  0
 12 26  1  0  0  0  0
 12 11  2  0  0  0  0
 13 12  1  0  0  0  0
 14 13  2  0  0  0  0
 14 17  1  0  0  0  0
 15 14  1  0  0  0  0
 16 29  1  0  0  0  0
 16 15  1  0  0  0  0
 17 18  2  0  0  0  0
 18 11  1  0  0  0  0
 18 32  1  0  0  0  0
 19  4  1  0  0  0  0
 22  8  1  0  0  0  0
 23  8  1  0  0  0  0
 25 10  1  0  0  0  0
 27 13  1  0  0  0  0
 28 16  1  0  0  0  0
 30 16  1  0  0  0  0
 31 17  1  0  0  0  0
M  END
$$$$
