32

S          0.03570        0.04660        0.05170
C          1.69260        0.01290        0.01670
C          2.48020       -0.01750        1.26860
C          1.97790       -0.64510        2.42230
C          2.68520       -0.65060        3.62130
C          3.92600        0.00550        3.70230
O          4.68690        0.06500        4.81730
C          4.22290       -0.54490        6.00200
C          4.43690        0.65480        2.56460
C          3.73100        0.63340        1.37060
C          2.42710        0.00940       -1.26660
C          1.89090        0.63890       -2.41260
C          2.54990        0.60200       -3.62880
C          3.76930       -0.09180       -3.75660
O          4.33650       -0.07940       -4.98250
C          5.55960       -0.75310       -5.18270
C          4.31210       -0.74060       -2.63680
C          3.64730       -0.67590       -1.41130
H          1.00680       -1.13880        2.35960
H          2.26530       -1.16610        4.48440
H          4.98840       -0.36300        6.76750
H          4.09190       -1.63430        5.87640
H          3.26620       -0.10770        6.33820
H          5.39210        1.17570        2.65110
H          4.13630        1.15790        0.50430
H          0.93810        1.16170       -2.31640
H          2.14640        1.10310       -4.51040
H          5.82850       -0.60670       -6.23690
H          5.46700       -1.83520       -4.98200
H          6.36180       -0.34030       -4.54560
H          5.24340       -1.30140       -2.70750
H          4.07440       -1.19990       -0.55520
