
     RDKit          3D

 32 33  0  0  0  0  0  0  0  0999 V2000
    0.0977   -0.1922   -0.0106 S   0  0  0  0  0  0  0  0  0  0  0  0
    1.7540   -0.1201   -0.0035 C   0  0  0  0  0  0  0  0  0  0  0  0
    2.5111   -0.1122    1.2670 C   0  0  0  0  0  0  0  0  0  0  0  0
    2.0168   -0.7717    2.4064 C   0  0  0  0  0  0  0  0  0  0  0  0
    2.6938   -0.7422    3.6224 C   0  0  0  0  0  0  0  0  0  0  0  0
    3.8937   -0.0182    3.7354 C   0  0  0  0  0  0  0  0  0  0  0  0
    4.6225    0.0793    4.8687 O   0  0  0  0  0  0  0  0  0  0  0  0
    4.1661   -0.5629    6.0393 C   0  0  0  0  0  0  0  0  0  0  0  0
    4.3955    0.6627    2.6121 C   0  0  0  0  0  0  0  0  0  0  0  0
    3.7211    0.6066    1.4011 C   0  0  0  0  0  0  0  0  0  0  0  0
    2.5195   -0.0626   -1.2677 C   0  0  0  0  0  0  0  0  0  0  0  0
    1.9808    0.5544   -2.4108 C   0  0  0  0  0  0  0  0  0  0  0  0
    2.6681    0.5842   -3.6210 C   0  0  0  0  0  0  0  0  0  0  0  0
    3.9259   -0.0355   -3.7243 C   0  0  0  0  0  0  0  0  0  0  0  0
    4.6700   -0.0691   -4.8514 O   0  0  0  0  0  0  0  0  0  0  0  0
    4.1706    0.5337   -6.0254 C   0  0  0  0  0  0  0  0  0  0  0  0
    4.4740   -0.6733   -2.5973 C   0  0  0  0  0  0  0  0  0  0  0  0
    3.7871   -0.6762   -1.3921 C   0  0  0  0  0  0  0  0  0  0  0  0
    1.0768   -1.3189    2.3185 H   0  0  0  0  0  0  0  0  0  0  0  0
    2.2825   -1.2837    4.4737 H   0  0  0  0  0  0  0  0  0  0  0  0
    4.9020   -0.3425    6.8235 H   0  0  0  0  0  0  0  0  0  0  0  0
    4.1001   -1.6572    5.9054 H   0  0  0  0  0  0  0  0  0  0  0  0
    3.1785   -0.1826    6.3547 H   0  0  0  0  0  0  0  0  0  0  0  0
    5.3183    1.2348    2.7229 H   0  0  0  0  0  0  0  0  0  0  0  0
    4.1186    1.1555    0.5464 H   0  0  0  0  0  0  0  0  0  0  0  0
    0.9971    1.0199   -2.3305 H   0  0  0  0  0  0  0  0  0  0  0  0
    2.2197    1.0903   -4.4753 H   0  0  0  0  0  0  0  0  0  0  0  0
    4.9290    0.3773   -6.8035 H   0  0  0  0  0  0  0  0  0  0  0  0
    4.0112    1.6183   -5.8915 H   0  0  0  0  0  0  0  0  0  0  0  0
    3.2214    0.0716   -6.3493 H   0  0  0  0  0  0  0  0  0  0  0  0
    5.4428   -1.1650   -2.7007 H   0  0  0  0  0  0  0  0  0  0  0  0
    4.2224   -1.1908   -0.5344 H   0  0  0  0  0  0  0  0  0  0  0  0
  1  2  2  0
  2  3  1  0
  2 11  1  0
  3  4  2  0
  3 10  1  0
  4  5  1  0
  4 19  1  0
  5  6  2  0
  5 20  1  0
  6  7  1  0
  6  9  1  0
  7  8  1  0
  8 21  1  0
  8 22  1  0
  8 23  1  0
  9 10  2  0
  9 24  1  0
 10 25  1  0
 11 12  2  0
 11 18  1  0
 12 13  1  0
 12 26  1  0
 13 14  2  0
 13 27  1  0
 14 15  1  0
 14 17  1  0
 15 16  1  0
 16 28  1  0
 16 29  1  0
 16 30  1  0
 17 18  2  0
 17 31  1  0
 18 32  1  0
M  END

