32
rmsd17.gzmat
S          0.00000        0.00000        0.00000
C          1.61140        0.00000        0.00000
C          2.37810        0.00000        1.24480
C          2.01250       -0.80830        2.32510
C          2.73220       -0.77300        3.51720
C          3.81660        0.09780        3.62020
O          4.60010        0.26000        4.71540
C          4.26460       -0.48580        5.87790
C          4.20850        0.91560        2.54480
C          3.48930        0.85410        1.36480
C          2.37580        0.00020       -1.24650
C          2.01730        0.82000       -2.32060
C          2.73850        0.78830       -3.51190
C          3.81670       -0.08970       -3.62040
O          4.59840       -0.25050       -4.71700
C          4.28120        0.52330       -5.86650
C          4.20090       -0.91940       -2.55120
C          3.47900       -0.86280       -1.37240
H          1.15740       -1.48380        2.24330
H          2.44060       -1.41310        4.34210
H          5.00780       -0.12720        6.60390
H          4.38970       -1.55820        5.70040
H          3.25240       -0.24950        6.22060
H          5.06210        1.57940        2.65800
H          3.77790        1.48150        0.51810
H          1.16720        1.50170       -2.23500
H          2.45280        1.43730       -4.33200
H          5.01420        0.15870       -6.59950
H          4.43350        1.58890       -5.66930
H          3.26330        0.31970       -6.21320
H          5.05120       -1.58720       -2.66690
H          3.76210       -1.50000       -0.53090
