32
rmsd9.gzmat
S          0.00000        0.00000        0.00000
C          1.61000        0.00000        0.00000
C          2.38790        0.00000        1.23720
C          2.00880       -0.77040        2.34020
C          2.75050       -0.73920        3.51880
C          3.87550        0.08220        3.58330
O          4.69190        0.22330        4.65710
C          4.34950       -0.49170        5.83710
C          4.28010        0.86380        2.48600
C          3.53450        0.81150        1.32250
C          2.37490       -0.00260       -1.24770
C          2.05510        0.86710       -2.30180
C          2.77650        0.83280       -3.48400
C          3.82660       -0.09170       -3.61310
O          4.44580       -0.01780       -4.81780
C          5.49060       -0.94590       -5.07480
C          4.16330       -0.96490       -2.57740
C          3.43280       -0.90700       -1.39520
H          1.12640       -1.41330        2.28840
H          2.44320       -1.34500        4.36370
H          5.15290       -0.19710        6.52650
H          4.37220       -1.57190        5.66260
H          3.37700       -0.16740        6.22130
H          5.16310        1.49280        2.56900
H          3.83250        1.41280        0.45990
H          1.23790        1.58420       -2.19440
H          2.54330        1.50040       -4.30980
H          5.79140       -0.67560       -6.09670
H          5.11560       -1.97360       -5.04490
H          6.32350       -0.80170       -4.38030
H          4.97450       -1.67730       -2.67710
H          3.68630       -1.58090       -0.57360
