
     RDKit          3D

 32 33  0  0  0  0  0  0  0  0999 V2000
    0.0357    0.0466    0.0517 S   0  0  0  0  0  0  0  0  0  0  0  0
    1.6926    0.0129    0.0167 C   0  0  0  0  0  0  0  0  0  0  0  0
    2.4802   -0.0175    1.2686 C   0  0  0  0  0  0  0  0  0  0  0  0
    1.9779   -0.6451    2.4223 C   0  0  0  0  0  0  0  0  0  0  0  0
    2.6852   -0.6506    3.6213 C   0  0  0  0  0  0  0  0  0  0  0  0
    3.9260    0.0055    3.7023 C   0  0  0  0  0  0  0  0  0  0  0  0
    4.6869    0.0650    4.8173 O   0  0  0  0  0  0  0  0  0  0  0  0
    4.2229   -0.5449    6.0020 C   0  0  0  0  0  0  0  0  0  0  0  0
    4.4369    0.6548    2.5646 C   0  0  0  0  0  0  0  0  0  0  0  0
    3.7310    0.6334    1.3706 C   0  0  0  0  0  0  0  0  0  0  0  0
    2.4271    0.0094   -1.2666 C   0  0  0  0  0  0  0  0  0  0  0  0
    1.8909    0.6389   -2.4126 C   0  0  0  0  0  0  0  0  0  0  0  0
    2.5499    0.6020   -3.6288 C   0  0  0  0  0  0  0  0  0  0  0  0
    3.7693   -0.0918   -3.7566 C   0  0  0  0  0  0  0  0  0  0  0  0
    4.3365   -0.0794   -4.9825 O   0  0  0  0  0  0  0  0  0  0  0  0
    5.5596   -0.7531   -5.1827 C   0  0  0  0  0  0  0  0  0  0  0  0
    4.3121   -0.7406   -2.6368 C   0  0  0  0  0  0  0  0  0  0  0  0
    3.6473   -0.6759   -1.4113 C   0  0  0  0  0  0  0  0  0  0  0  0
    1.0068   -1.1388    2.3596 H   0  0  0  0  0  0  0  0  0  0  0  0
    2.2653   -1.1661    4.4844 H   0  0  0  0  0  0  0  0  0  0  0  0
    4.9884   -0.3630    6.7675 H   0  0  0  0  0  0  0  0  0  0  0  0
    4.0919   -1.6343    5.8764 H   0  0  0  0  0  0  0  0  0  0  0  0
    3.2662   -0.1077    6.3382 H   0  0  0  0  0  0  0  0  0  0  0  0
    5.3921    1.1757    2.6511 H   0  0  0  0  0  0  0  0  0  0  0  0
    4.1363    1.1579    0.5043 H   0  0  0  0  0  0  0  0  0  0  0  0
    0.9381    1.1617   -2.3164 H   0  0  0  0  0  0  0  0  0  0  0  0
    2.1464    1.1031   -4.5104 H   0  0  0  0  0  0  0  0  0  0  0  0
    5.8285   -0.6067   -6.2369 H   0  0  0  0  0  0  0  0  0  0  0  0
    5.4670   -1.8352   -4.9820 H   0  0  0  0  0  0  0  0  0  0  0  0
    6.3618   -0.3403   -4.5456 H   0  0  0  0  0  0  0  0  0  0  0  0
    5.2434   -1.3014   -2.7075 H   0  0  0  0  0  0  0  0  0  0  0  0
    4.0744   -1.1999   -0.5552 H   0  0  0  0  0  0  0  0  0  0  0  0
  1  2  2  0
  2  3  1  0
  2 11  1  0
  3  4  2  0
  3 10  1  0
  4  5  1  0
  4 19  1  0
  5  6  2  0
  5 20  1  0
  6  7  1  0
  6  9  1  0
  7  8  1  0
  8 21  1  0
  8 22  1  0
  8 23  1  0
  9 10  2  0
  9 24  1  0
 10 25  1  0
 11 12  2  0
 11 18  1  0
 12 13  1  0
 12 26  1  0
 13 14  2  0
 13 27  1  0
 14 15  1  0
 14 17  1  0
 15 16  1  0
 16 28  1  0
 16 29  1  0
 16 30  1  0
 17 18  2  0
 17 31  1  0
 18 32  1  0
M  END

