32
rmsd51.gzmat
S          0.00000        0.00000        0.00000
C          1.61110        0.00000        0.00000
C          2.36930        0.00000        1.25240
C          2.05580       -0.87930        2.29150
C          2.78470       -0.86520        3.47880
C          3.82530        0.05260        3.61600
O          4.62210        0.18930        4.70540
C          4.38030       -0.67740        5.80630
C          4.15470        0.95230        2.58590
C          3.42620        0.91370        1.41070
C          2.39270       -0.00710       -1.23390
C          1.98620        0.70990       -2.36350
C          2.73060        0.67000       -3.53990
C          3.88850       -0.10660       -3.57610
O          4.71150       -0.25030       -4.64390
C          4.33550        0.39860       -5.85120
C          4.32240       -0.83280       -2.45220
C          3.57230       -0.77270       -1.29220
H          1.23880       -1.59610        2.17970
H          2.53380       -1.55940        4.27270
H          5.16190       -0.37230        6.51620
H          4.51380       -1.72460        5.51940
H          3.38760       -0.49910        6.23100
H          4.97020        1.65760        2.72740
H          3.66800        1.60220        0.59750
H          1.07890        1.31820       -2.33400
H          2.40130        1.23610       -4.40400
H          5.14290        0.10090       -6.53480
H          4.32410        1.48510       -5.72280
H          3.37230        0.02530       -6.21250
H          5.23180       -1.42550       -2.51200
H          3.89380       -1.33190       -0.40970
