rmsd104.gzmat
 OpenBabel08211713373D

 33 34  0  0  0  0  0  0  0  0999 V2000
    0.0000    0.0000    0.0000 C   0  0  0  0  0  0  0  0  0  0  0  0
    1.4039    0.0000    0.0000 C   0  0  0  0  0  0  0  0  0  0  0  0
    2.1113    0.0000    1.1895 C   0  0  0  0  0  0  0  0  0  0  0  0
    1.4289   -0.0087    2.4166 C   0  0  0  0  0  0  0  0  0  0  0  0
    0.0481   -0.0451    2.4543 C   0  0  0  0  0  0  0  0  0  0  0  0
   -0.6633   -0.0626    1.2396 C   0  0  0  0  0  0  0  0  0  0  0  0
   -1.9965   -0.1315    1.3567 O   0  0  0  0  0  0  0  0  0  0  0  0
   -0.7929    0.0548   -1.2315 C   0  0  0  0  0  0  0  0  0  0  0  0
   -1.9551   -0.3070   -1.2962 O   0  0  0  0  0  0  0  0  0  0  0  0
   -0.1304    0.4655   -2.4294 N   0  0  0  0  0  0  0  0  0  0  0  0
    0.6509    1.6750   -2.4244 C   0  0  0  0  0  0  0  0  0  0  0  0
    1.8126    1.6683   -3.2037 C   0  0  0  0  0  0  0  0  0  0  0  0
    2.6461    2.7832   -3.1842 C   0  0  0  0  0  0  0  0  0  0  0  0
    2.3188    3.8909   -2.4033 C   0  0  0  0  0  0  0  0  0  0  0  0
    1.1465    3.8977   -1.6477 C   0  0  0  0  0  0  0  0  0  0  0  0
    0.3013    2.7927   -1.6596 C   0  0  0  0  0  0  0  0  0  0  0  0
   -0.9654    0.4031   -3.5465 O   0  0  0  0  0  0  0  0  0  0  0  0
   -2.0751    1.2324   -3.5558 C   0  0  0  0  0  0  0  0  0  0  0  0
   -2.2860    2.0576   -2.7105 O   0  0  0  0  0  0  0  0  0  0  0  0
   -2.8650    0.9182   -4.7761 C   0  0  0  0  0  0  0  0  0  0  0  0
    1.9436   -0.0046   -0.9515 H   0  0  0  0  0  0  0  0  0  0  0  0
    3.1978    0.0079    1.1793 H   0  0  0  0  0  0  0  0  0  0  0  0
    2.0008    0.0060    3.3455 H   0  0  0  0  0  0  0  0  0  0  0  0
   -0.5038   -0.0691    3.3908 H   0  0  0  0  0  0  0  0  0  0  0  0
   -2.4397   -0.2085    0.4484 H   0  0  0  0  0  0  0  0  0  0  0  0
    2.0555    0.7969   -3.8121 H   0  0  0  0  0  0  0  0  0  0  0  0
    3.5558    2.7872   -3.7819 H   0  0  0  0  0  0  0  0  0  0  0  0
    2.9775    4.7576   -2.3853 H   0  0  0  0  0  0  0  0  0  0  0  0
    0.8857    4.7713   -1.0509 H   0  0  0  0  0  0  0  0  0  0  0  0
   -0.6312    2.8036   -1.0900 H   0  0  0  0  0  0  0  0  0  0  0  0
   -3.2392    1.8415   -5.2467 H   0  0  0  0  0  0  0  0  0  0  0  0
   -3.7442    0.3043   -4.5103 H   0  0  0  0  0  0  0  0  0  0  0  0
   -2.2946    0.3557   -5.5310 H   0  0  0  0  0  0  0  0  0  0  0  0
  1  2  2  0  0  0  0
  1  6  1  0  0  0  0
  2  3  1  0  0  0  0
  3  4  2  0  0  0  0
  4  5  1  0  0  0  0
  4 23  1  0  0  0  0
  5 24  1  0  0  0  0
  6  7  1  0  0  0  0
  6  5  2  0  0  0  0
  8  1  1  0  0  0  0
  9  8  2  0  0  0  0
 10 11  1  0  0  0  0
 10  8  1  0  0  0  0
 11 16  2  0  0  0  0
 12 13  2  0  0  0  0
 12 11  1  0  0  0  0
 13 14  1  0  0  0  0
 14 28  1  0  0  0  0
 14 15  2  0  0  0  0
 15 29  1  0  0  0  0
 16 15  1  0  0  0  0
 16 30  1  0  0  0  0
 17 10  1  0  0  0  0
 18 17  1  0  0  0  0
 18 19  2  0  0  0  0
 20 32  1  0  0  0  0
 20 18  1  0  0  0  0
 21  2  1  0  0  0  0
 22  3  1  0  0  0  0
 25  7  1  0  0  0  0
 26 12  1  0  0  0  0
 27 13  1  0  0  0  0
 31 20  1  0  0  0  0
 33 20  1  0  0  0  0
M  END
$$$$
