rmsd176.gzmat
 OpenBabel08211713373D

 33 34  0  0  0  0  0  0  0  0999 V2000
    0.0000    0.0000    0.0000 C   0  0  0  0  0  0  0  0  0  0  0  0
    1.4046    0.0000    0.0000 C   0  0  0  0  0  0  0  0  0  0  0  0
    2.1141    0.0000    1.1878 C   0  0  0  0  0  0  0  0  0  0  0  0
    1.4347   -0.0146    2.4172 C   0  0  0  0  0  0  0  0  0  0  0  0
    0.0547   -0.0517    2.4569 C   0  0  0  0  0  0  0  0  0  0  0  0
   -0.6602   -0.0606    1.2427 C   0  0  0  0  0  0  0  0  0  0  0  0
   -1.9915   -0.1236    1.3669 O   0  0  0  0  0  0  0  0  0  0  0  0
   -0.7971    0.0386   -1.2278 C   0  0  0  0  0  0  0  0  0  0  0  0
   -1.9857   -0.2369   -1.2576 O   0  0  0  0  0  0  0  0  0  0  0  0
   -0.1265    0.2967   -2.4632 N   0  0  0  0  0  0  0  0  0  0  0  0
    0.7113    1.4580   -2.6040 C   0  0  0  0  0  0  0  0  0  0  0  0
    1.7953    1.3370   -3.4809 C   0  0  0  0  0  0  0  0  0  0  0  0
    2.6703    2.4097   -3.6271 C   0  0  0  0  0  0  0  0  0  0  0  0
    2.4621    3.5878   -2.9113 C   0  0  0  0  0  0  0  0  0  0  0  0
    1.3711    3.7043   -2.0503 C   0  0  0  0  0  0  0  0  0  0  0  0
    0.4836    2.6436   -1.8975 C   0  0  0  0  0  0  0  0  0  0  0  0
   -0.9813    0.1616   -3.5605 O   0  0  0  0  0  0  0  0  0  0  0  0
   -2.0282    1.0649   -3.6568 C   0  0  0  0  0  0  0  0  0  0  0  0
   -2.1573    1.9988   -2.9150 O   0  0  0  0  0  0  0  0  0  0  0  0
   -2.8656    0.6666   -4.8197 C   0  0  0  0  0  0  0  0  0  0  0  0
    1.9439   -0.0078   -0.9517 H   0  0  0  0  0  0  0  0  0  0  0  0
    3.2004    0.0108    1.1752 H   0  0  0  0  0  0  0  0  0  0  0  0
    2.0079   -0.0020    3.3454 H   0  0  0  0  0  0  0  0  0  0  0  0
   -0.4966   -0.0804    3.3937 H   0  0  0  0  0  0  0  0  0  0  0  0
   -2.4426   -0.1762    0.4581 H   0  0  0  0  0  0  0  0  0  0  0  0
    1.9435    0.4112   -4.0379 H   0  0  0  0  0  0  0  0  0  0  0  0
    3.5171    2.3276   -4.3059 H   0  0  0  0  0  0  0  0  0  0  0  0
    3.1505    4.4228   -3.0306 H   0  0  0  0  0  0  0  0  0  0  0  0
    1.2036    4.6307   -1.5022 H   0  0  0  0  0  0  0  0  0  0  0  0
   -0.3902    2.7426   -1.2498 H   0  0  0  0  0  0  0  0  0  0  0  0
   -3.5743   -0.1290   -4.5289 H   0  0  0  0  0  0  0  0  0  0  0  0
   -2.2715    0.2794   -5.6609 H   0  0  0  0  0  0  0  0  0  0  0  0
   -3.4593    1.5211   -5.1829 H   0  0  0  0  0  0  0  0  0  0  0  0
  1  6  1  0  0  0  0
  2  1  2  0  0  0  0
  2  3  1  0  0  0  0
  3  4  2  0  0  0  0
  4  5  1  0  0  0  0
  4 23  1  0  0  0  0
  5 24  1  0  0  0  0
  6  7  1  0  0  0  0
  6  5  2  0  0  0  0
  8  1  1  0  0  0  0
  9  8  2  0  0  0  0
 10  8  1  0  0  0  0
 11 10  1  0  0  0  0
 11 16  2  0  0  0  0
 12 11  1  0  0  0  0
 13 12  2  0  0  0  0
 13 14  1  0  0  0  0
 14 15  2  0  0  0  0
 15 16  1  0  0  0  0
 15 29  1  0  0  0  0
 16 30  1  0  0  0  0
 17 10  1  0  0  0  0
 18 17  1  0  0  0  0
 18 19  2  0  0  0  0
 20 31  1  0  0  0  0
 20 18  1  0  0  0  0
 21  2  1  0  0  0  0
 22  3  1  0  0  0  0
 25  7  1  0  0  0  0
 26 12  1  0  0  0  0
 27 13  1  0  0  0  0
 28 14  1  0  0  0  0
 32 20  1  0  0  0  0
 33 20  1  0  0  0  0
M  END
$$$$
