33
rmsd171.gzmat
C          0.00000        0.00000        0.00000
C          1.40370        0.00000        0.00000
C          2.11020        0.00000        1.19040
C          1.42740        0.00230        2.41720
C          0.04640        0.02910        2.45440
C         -0.66430        0.05280        1.23940
O         -1.99790        0.11730        1.35620
C         -0.79310       -0.03940       -1.23190
O         -1.94830        0.34340       -1.29530
N         -0.13960       -0.46030       -2.43150
C          0.60800       -1.69010       -2.44060
C          0.28140       -2.77560       -1.62070
C          1.08970       -3.90790       -1.64190
C          2.19820       -3.96260       -2.48630
C          2.50450       -2.88440       -3.31530
C          1.70930       -1.74200       -3.30110
O         -0.97790       -0.37370       -3.54610
C         -2.10010       -1.18670       -3.55070
O         -2.31280       -2.01210       -2.70620
C         -2.89500       -0.85790       -4.76370
H          1.94240        0.00660       -0.95210
H          3.19670       -0.00160        1.18090
H          1.99730       -0.01010        3.34730
H         -0.50560        0.04200        3.39080
H         -2.44110        0.20590        0.44970
H         -0.60630       -2.74190       -0.98510
H          0.85010       -4.75570       -1.00090
H          2.82310       -4.85380       -2.50140
H          3.36750       -2.93440       -3.97660
H          1.93250       -0.89370       -3.94840
H         -2.26940       -0.55780       -5.61770
H         -3.58320       -0.01960       -4.55460
H         -3.50750       -1.72030       -5.07270
