33
rmsd176.gzmat
C          0.00000        0.00000        0.00000
C          1.40460        0.00000        0.00000
C          2.11410        0.00000        1.18780
C          1.43470       -0.01460        2.41720
C          0.05470       -0.05170        2.45690
C         -0.66020       -0.06060        1.24270
O         -1.99150       -0.12360        1.36690
C         -0.79710        0.03860       -1.22780
O         -1.98570       -0.23690       -1.25760
N         -0.12650        0.29670       -2.46320
C          0.71130        1.45800       -2.60400
C          1.79530        1.33700       -3.48090
C          2.67030        2.40970       -3.62710
C          2.46210        3.58780       -2.91130
C          1.37110        3.70430       -2.05030
C          0.48360        2.64360       -1.89750
O         -0.98130        0.16160       -3.56050
C         -2.02820        1.06490       -3.65680
O         -2.15730        1.99880       -2.91500
C         -2.86560        0.66660       -4.81970
H          1.94390       -0.00780       -0.95170
H          3.20040        0.01080        1.17520
H          2.00790       -0.00200        3.34540
H         -0.49660       -0.08040        3.39370
H         -2.44260       -0.17620        0.45810
H          1.94350        0.41120       -4.03790
H          3.51710        2.32760       -4.30590
H          3.15050        4.42280       -3.03060
H          1.20360        4.63070       -1.50220
H         -0.39020        2.74260       -1.24980
H         -3.57430       -0.12900       -4.52890
H         -2.27150        0.27940       -5.66090
H         -3.45930        1.52110       -5.18290
