rmsd118.gzmat
 OpenBabel08211713373D

 33 34  0  0  0  0  0  0  0  0999 V2000
    0.0000    0.0000    0.0000 C   0  0  0  0  0  0  0  0  0  0  0  0
    1.4040    0.0000    0.0000 C   0  0  0  0  0  0  0  0  0  0  0  0
    2.1122    0.0000    1.1889 C   0  0  0  0  0  0  0  0  0  0  0  0
    1.4308    0.0015    2.4166 C   0  0  0  0  0  0  0  0  0  0  0  0
    0.0501    0.0289    2.4553 C   0  0  0  0  0  0  0  0  0  0  0  0
   -0.6629    0.0501    1.2410 C   0  0  0  0  0  0  0  0  0  0  0  0
   -1.9954    0.1141    1.3606 O   0  0  0  0  0  0  0  0  0  0  0  0
   -0.7931   -0.0292   -1.2313 C   0  0  0  0  0  0  0  0  0  0  0  0
   -1.9637    0.3098   -1.2777 O   0  0  0  0  0  0  0  0  0  0  0  0
   -0.1306   -0.3693   -2.4516 N   0  0  0  0  0  0  0  0  0  0  0  0
    0.6659   -1.5650   -2.5314 C   0  0  0  0  0  0  0  0  0  0  0  0
    0.3933   -2.7062   -1.7700 C   0  0  0  0  0  0  0  0  0  0  0  0
    1.2451   -3.8026   -1.8637 C   0  0  0  0  0  0  0  0  0  0  0  0
    2.3448   -3.7652   -2.7205 C   0  0  0  0  0  0  0  0  0  0  0  0
    2.5972   -2.6313   -3.4916 C   0  0  0  0  0  0  0  0  0  0  0  0
    1.7579   -1.5244   -3.4054 C   0  0  0  0  0  0  0  0  0  0  0  0
   -0.9806   -0.2611   -3.5558 O   0  0  0  0  0  0  0  0  0  0  0  0
   -2.0665   -1.1220   -3.5943 C   0  0  0  0  0  0  0  0  0  0  0  0
   -2.2312   -2.0008   -2.7943 O   0  0  0  0  0  0  0  0  0  0  0  0
   -2.8911   -0.7625   -4.7786 C   0  0  0  0  0  0  0  0  0  0  0  0
    1.9432    0.0058   -0.9518 H   0  0  0  0  0  0  0  0  0  0  0  0
    3.1985   -0.0007    1.1769 H   0  0  0  0  0  0  0  0  0  0  0  0
    2.0030   -0.0115    3.3453 H   0  0  0  0  0  0  0  0  0  0  0  0
   -0.5004    0.0472    3.3926 H   0  0  0  0  0  0  0  0  0  0  0  0
   -2.4415    0.1936    0.4530 H   0  0  0  0  0  0  0  0  0  0  0  0
   -0.4867   -2.7439   -1.1240 H   0  0  0  0  0  0  0  0  0  0  0  0
    1.0442   -4.6945   -1.2705 H   0  0  0  0  0  0  0  0  0  0  0  0
    3.0053   -4.6278   -2.7915 H   0  0  0  0  0  0  0  0  0  0  0  0
    3.4525   -2.6102   -4.1643 H   0  0  0  0  0  0  0  0  0  0  0  0
    1.9403   -0.6329   -4.0057 H   0  0  0  0  0  0  0  0  0  0  0  0
   -3.5755   -1.5857   -5.0417 H   0  0  0  0  0  0  0  0  0  0  0  0
   -2.2817   -0.5286   -5.6645 H   0  0  0  0  0  0  0  0  0  0  0  0
   -3.5089    0.1273   -4.5636 H   0  0  0  0  0  0  0  0  0  0  0  0
  1  2  2  0  0  0  0
  1  6  1  0  0  0  0
  2  3  1  0  0  0  0
  3  4  2  0  0  0  0
  4  5  1  0  0  0  0
  4 23  1  0  0  0  0
  5 24  1  0  0  0  0
  6  7  1  0  0  0  0
  6  5  2  0  0  0  0
  8  1  1  0  0  0  0
  9  8  2  0  0  0  0
 10  8  1  0  0  0  0
 11 10  1  0  0  0  0
 11 12  2  0  0  0  0
 12 26  1  0  0  0  0
 13 12  1  0  0  0  0
 13 27  1  0  0  0  0
 14 13  2  0  0  0  0
 15 16  2  0  0  0  0
 15 14  1  0  0  0  0
 16 11  1  0  0  0  0
 17 10  1  0  0  0  0
 18 17  1  0  0  0  0
 18 19  2  0  0  0  0
 20 33  1  0  0  0  0
 20 18  1  0  0  0  0
 21  2  1  0  0  0  0
 22  3  1  0  0  0  0
 25  7  1  0  0  0  0
 28 14  1  0  0  0  0
 29 15  1  0  0  0  0
 30 16  1  0  0  0  0
 31 20  1  0  0  0  0
 32 20  1  0  0  0  0
M  END
$$$$
