rmsd106.gzmat
 OpenBabel08211713373D

 33 34  0  0  0  0  0  0  0  0999 V2000
    0.0000    0.0000    0.0000 C   0  0  0  0  0  0  0  0  0  0  0  0
    1.4025    0.0000    0.0000 C   0  0  0  0  0  0  0  0  0  0  0  0
    2.1059    0.0000    1.1931 C   0  0  0  0  0  0  0  0  0  0  0  0
    1.4207    0.0110    2.4182 C   0  0  0  0  0  0  0  0  0  0  0  0
    0.0400    0.0626    2.4533 C   0  0  0  0  0  0  0  0  0  0  0  0
   -0.6664    0.0886    1.2361 C   0  0  0  0  0  0  0  0  0  0  0  0
   -1.9976    0.1990    1.3463 O   0  0  0  0  0  0  0  0  0  0  0  0
   -0.7966   -0.0821   -1.2267 C   0  0  0  0  0  0  0  0  0  0  0  0
   -1.9219    0.3765   -1.3218 O   0  0  0  0  0  0  0  0  0  0  0  0
   -0.2042   -0.6342   -2.4016 N   0  0  0  0  0  0  0  0  0  0  0  0
   -1.0506   -1.0708   -3.4807 C   0  0  0  0  0  0  0  0  0  0  0  0
   -0.5530   -0.8640   -4.7722 C   0  0  0  0  0  0  0  0  0  0  0  0
   -1.3257   -1.2484   -5.8642 C   0  0  0  0  0  0  0  0  0  0  0  0
   -2.5760   -1.8334   -5.6673 C   0  0  0  0  0  0  0  0  0  0  0  0
   -3.0631   -2.0356   -4.3765 C   0  0  0  0  0  0  0  0  0  0  0  0
   -2.3014   -1.6607   -3.2735 C   0  0  0  0  0  0  0  0  0  0  0  0
    0.7945   -1.5831   -2.1556 O   0  0  0  0  0  0  0  0  0  0  0  0
    0.4121   -2.7442   -1.5032 C   0  0  0  0  0  0  0  0  0  0  0  0
   -0.7015   -2.9134   -1.0896 O   0  0  0  0  0  0  0  0  0  0  0  0
    1.5895   -3.6455   -1.4228 C   0  0  0  0  0  0  0  0  0  0  0  0
    1.9424    0.0125   -0.9519 H   0  0  0  0  0  0  0  0  0  0  0  0
    3.1916   -0.0029    1.1878 H   0  0  0  0  0  0  0  0  0  0  0  0
    1.9897   -0.0086    3.3487 H   0  0  0  0  0  0  0  0  0  0  0  0
   -0.5135    0.0944    3.3887 H   0  0  0  0  0  0  0  0  0  0  0  0
   -2.4340    0.3102    0.4403 H   0  0  0  0  0  0  0  0  0  0  0  0
    0.4239   -0.4019   -4.9109 H   0  0  0  0  0  0  0  0  0  0  0  0
   -0.9528   -1.0888   -6.8739 H   0  0  0  0  0  0  0  0  0  0  0  0
   -3.1755   -2.1326   -6.5255 H   0  0  0  0  0  0  0  0  0  0  0  0
   -4.0420   -2.4896   -4.2275 H   0  0  0  0  0  0  0  0  0  0  0  0
   -2.6740   -1.8240   -2.2594 H   0  0  0  0  0  0  0  0  0  0  0  0
    1.6956   -4.0504   -0.4017 H   0  0  0  0  0  0  0  0  0  0  0  0
    2.5364   -3.1523   -1.6901 H   0  0  0  0  0  0  0  0  0  0  0  0
    1.4633   -4.5070   -2.1006 H   0  0  0  0  0  0  0  0  0  0  0  0
  1  2  2  0  0  0  0
  1  6  1  0  0  0  0
  2  3  1  0  0  0  0
  3  4  2  0  0  0  0
  4  5  1  0  0  0  0
  4 23  1  0  0  0  0
  5 24  1  0  0  0  0
  6  7  1  0  0  0  0
  6  5  2  0  0  0  0
  8  1  1  0  0  0  0
  9  8  2  0  0  0  0
 10 17  1  0  0  0  0
 10  8  1  0  0  0  0
 11 16  1  0  0  0  0
 11 10  1  0  0  0  0
 12 11  2  0  0  0  0
 13 14  2  0  0  0  0
 13 12  1  0  0  0  0
 14 15  1  0  0  0  0
 15 29  1  0  0  0  0
 15 16  2  0  0  0  0
 16 30  1  0  0  0  0
 17 18  1  0  0  0  0
 18 20  1  0  0  0  0
 18 19  2  0  0  0  0
 20 31  1  0  0  0  0
 21  2  1  0  0  0  0
 22  3  1  0  0  0  0
 25  7  1  0  0  0  0
 26 12  1  0  0  0  0
 27 13  1  0  0  0  0
 28 14  1  0  0  0  0
 32 20  1  0  0  0  0
 33 20  1  0  0  0  0
M  END
$$$$
