33

C         -0.00100       -0.09520        0.04120
C          1.40890       -0.15500        0.05010
C          2.12960       -0.02400        1.23000
C          1.44280        0.16700        2.44000
C          0.05960        0.26840        2.45850
C         -0.68200        0.17580        1.26460
O         -2.00100        0.34910        1.33190
C         -0.84260       -0.24200       -1.17020
O         -1.99020        0.21140       -1.21710
N         -0.35020       -0.87910       -2.29470
C         -1.14250       -1.13630       -3.45880
C         -0.66840       -0.68550       -4.69420
C         -1.39660       -0.95510       -5.85450
C         -2.60120       -1.65920       -5.77330
C         -3.07310       -2.10120       -4.53280
C         -2.34330       -1.84950       -3.37070
O          0.75290       -1.73630       -2.16640
C          0.48040       -2.91220       -1.48370
O         -0.60130       -3.17930       -1.05050
C          1.74570       -3.70820       -1.35420
H          1.94010       -0.29630       -0.88920
H          3.22050       -0.06320        1.21300
H          2.00070        0.25720        3.37560
H         -0.49090        0.44850        3.38340
H         -2.33130        0.38230        0.39720
H          0.26830       -0.12640       -4.73260
H         -1.02760       -0.60630       -6.82170
H         -3.17600       -1.86340       -6.67970
H         -4.01460       -2.65150       -4.47000
H         -2.68800       -2.19700       -2.39820
H          2.34760       -3.26370       -0.54480
H          2.33630       -3.66480       -2.27930
H          1.49890       -4.74380       -1.09190
