33

C          0.00420        0.01390       -0.00260
C          1.40770        0.14620        0.03220
C          2.10400        0.12180        1.23210
C          1.39640       -0.03150        2.43580
C          0.01880       -0.19670        2.43170
C         -0.69640       -0.20910        1.21850
O         -2.00940       -0.43270        1.26360
C         -0.80170        0.04820       -1.24340
O         -1.93830       -0.43200       -1.29250
N         -0.25730        0.61690       -2.38060
C          0.69300        1.67430       -2.47840
C          1.72570        1.56680       -3.41690
C          2.66310        2.59450       -3.53060
C          2.57770        3.71600       -2.69950
C          1.53880        3.81870       -1.76890
C          0.58270        2.80840       -1.66670
O         -1.04070        0.44410       -3.52350
C         -2.13860        1.28970       -3.57980
O         -2.31930        2.18120       -2.80510
C         -3.00870        0.87990       -4.73170
H          1.95820        0.26050       -0.90010
H          3.19090        0.22070        1.23700
H          1.93490       -0.03860        3.38700
H         -0.54480       -0.34580        3.35410
H         -2.31390       -0.52570        0.32420
H          1.78450        0.67620       -4.04470
H          3.46980        2.51400       -4.26270
H          3.31840        4.51460       -2.78190
H          1.46130        4.70060       -1.12910
H         -0.25140        2.88850       -0.97040
H         -3.71500        1.68640       -4.96110
H         -3.56490       -0.02290       -4.43340
H         -2.40210        0.62490       -5.61170
