rmsd171.gzmat
 OpenBabel08211713373D

 33 34  0  0  0  0  0  0  0  0999 V2000
    0.0000    0.0000    0.0000 C   0  0  0  0  0  0  0  0  0  0  0  0
    1.4037    0.0000    0.0000 C   0  0  0  0  0  0  0  0  0  0  0  0
    2.1102    0.0000    1.1904 C   0  0  0  0  0  0  0  0  0  0  0  0
    1.4274    0.0023    2.4172 C   0  0  0  0  0  0  0  0  0  0  0  0
    0.0464    0.0291    2.4544 C   0  0  0  0  0  0  0  0  0  0  0  0
   -0.6643    0.0528    1.2394 C   0  0  0  0  0  0  0  0  0  0  0  0
   -1.9979    0.1173    1.3562 O   0  0  0  0  0  0  0  0  0  0  0  0
   -0.7931   -0.0394   -1.2319 C   0  0  0  0  0  0  0  0  0  0  0  0
   -1.9483    0.3434   -1.2953 O   0  0  0  0  0  0  0  0  0  0  0  0
   -0.1396   -0.4603   -2.4315 N   0  0  0  0  0  0  0  0  0  0  0  0
    0.6080   -1.6901   -2.4406 C   0  0  0  0  0  0  0  0  0  0  0  0
    0.2814   -2.7756   -1.6207 C   0  0  0  0  0  0  0  0  0  0  0  0
    1.0897   -3.9079   -1.6419 C   0  0  0  0  0  0  0  0  0  0  0  0
    2.1982   -3.9626   -2.4863 C   0  0  0  0  0  0  0  0  0  0  0  0
    2.5045   -2.8844   -3.3153 C   0  0  0  0  0  0  0  0  0  0  0  0
    1.7093   -1.7420   -3.3011 C   0  0  0  0  0  0  0  0  0  0  0  0
   -0.9779   -0.3737   -3.5461 O   0  0  0  0  0  0  0  0  0  0  0  0
   -2.1001   -1.1867   -3.5507 C   0  0  0  0  0  0  0  0  0  0  0  0
   -2.3128   -2.0121   -2.7062 O   0  0  0  0  0  0  0  0  0  0  0  0
   -2.8950   -0.8579   -4.7637 C   0  0  0  0  0  0  0  0  0  0  0  0
    1.9424    0.0066   -0.9521 H   0  0  0  0  0  0  0  0  0  0  0  0
    3.1967   -0.0016    1.1809 H   0  0  0  0  0  0  0  0  0  0  0  0
    1.9973   -0.0101    3.3473 H   0  0  0  0  0  0  0  0  0  0  0  0
   -0.5056    0.0420    3.3908 H   0  0  0  0  0  0  0  0  0  0  0  0
   -2.4411    0.2059    0.4497 H   0  0  0  0  0  0  0  0  0  0  0  0
   -0.6063   -2.7419   -0.9851 H   0  0  0  0  0  0  0  0  0  0  0  0
    0.8501   -4.7557   -1.0009 H   0  0  0  0  0  0  0  0  0  0  0  0
    2.8231   -4.8538   -2.5014 H   0  0  0  0  0  0  0  0  0  0  0  0
    3.3675   -2.9344   -3.9766 H   0  0  0  0  0  0  0  0  0  0  0  0
    1.9325   -0.8937   -3.9484 H   0  0  0  0  0  0  0  0  0  0  0  0
   -2.2694   -0.5578   -5.6177 H   0  0  0  0  0  0  0  0  0  0  0  0
   -3.5832   -0.0196   -4.5546 H   0  0  0  0  0  0  0  0  0  0  0  0
   -3.5075   -1.7203   -5.0727 H   0  0  0  0  0  0  0  0  0  0  0  0
  1  2  2  0  0  0  0
  1  6  1  0  0  0  0
  2  3  1  0  0  0  0
  3  4  2  0  0  0  0
  4  5  1  0  0  0  0
  4 23  1  0  0  0  0
  5 24  1  0  0  0  0
  6  7  1  0  0  0  0
  6  5  2  0  0  0  0
  8  1  1  0  0  0  0
  9  8  2  0  0  0  0
 10  8  1  0  0  0  0
 11 10  1  0  0  0  0
 11 12  2  0  0  0  0
 12 26  1  0  0  0  0
 13 12  1  0  0  0  0
 13 27  1  0  0  0  0
 14 13  2  0  0  0  0
 15 16  2  0  0  0  0
 15 14  1  0  0  0  0
 16 11  1  0  0  0  0
 17 10  1  0  0  0  0
 18 17  1  0  0  0  0
 18 19  2  0  0  0  0
 20 32  1  0  0  0  0
 20 18  1  0  0  0  0
 21  2  1  0  0  0  0
 22  3  1  0  0  0  0
 25  7  1  0  0  0  0
 28 14  1  0  0  0  0
 29 15  1  0  0  0  0
 30 16  1  0  0  0  0
 31 20  1  0  0  0  0
 33 20  1  0  0  0  0
M  END
$$$$
