
     RDKit          3D

 33 34  0  0  0  0  0  0  0  0999 V2000
   -0.0219   -0.0401    0.0195 C   0  0  0  0  0  0  0  0  0  0  0  0
    1.3719   -0.2452    0.0801 C   0  0  0  0  0  0  0  0  0  0  0  0
    2.0491   -0.2382    1.2911 C   0  0  0  0  0  0  0  0  0  0  0  0
    1.3312   -0.0289    2.4802 C   0  0  0  0  0  0  0  0  0  0  0  0
   -0.0355    0.2081    2.4503 C   0  0  0  0  0  0  0  0  0  0  0  0
   -0.7294    0.2386    1.2251 C   0  0  0  0  0  0  0  0  0  0  0  0
   -2.0294    0.5313    1.2445 O   0  0  0  0  0  0  0  0  0  0  0  0
   -0.8084   -0.0517   -1.2341 C   0  0  0  0  0  0  0  0  0  0  0  0
   -1.9170    0.4868   -1.3097 O   0  0  0  0  0  0  0  0  0  0  0  0
   -0.2766   -0.6664   -2.3532 N   0  0  0  0  0  0  0  0  0  0  0  0
    0.6181   -1.7736   -2.4190 C   0  0  0  0  0  0  0  0  0  0  0  0
    0.4347   -2.8875   -1.5927 C   0  0  0  0  0  0  0  0  0  0  0  0
    1.3375   -3.9482   -1.6635 C   0  0  0  0  0  0  0  0  0  0  0  0
    2.3955   -3.9148   -2.5776 C   0  0  0  0  0  0  0  0  0  0  0  0
    2.5537   -2.8125   -3.4235 C   0  0  0  0  0  0  0  0  0  0  0  0
    1.6702   -1.7353   -3.3410 C   0  0  0  0  0  0  0  0  0  0  0  0
   -1.0315   -0.4712   -3.5116 O   0  0  0  0  0  0  0  0  0  0  0  0
   -2.1714   -1.2588   -3.5734 C   0  0  0  0  0  0  0  0  0  0  0  0
   -2.4113   -2.1270   -2.7883 O   0  0  0  0  0  0  0  0  0  0  0  0
   -3.0001   -0.8225   -4.7459 C   0  0  0  0  0  0  0  0  0  0  0  0
    1.9306   -0.4030   -0.8410 H   0  0  0  0  0  0  0  0  0  0  0  0
    3.1291   -0.3939    1.3158 H   0  0  0  0  0  0  0  0  0  0  0  0
    1.8539   -0.0349    3.4401 H   0  0  0  0  0  0  0  0  0  0  0  0
   -0.6053    0.4012    3.3607 H   0  0  0  0  0  0  0  0  0  0  0  0
   -2.3133    0.6256    0.2988 H   0  0  0  0  0  0  0  0  0  0  0  0
   -0.4138   -2.9127   -0.9097 H   0  0  0  0  0  0  0  0  0  0  0  0
    1.2031   -4.8147   -1.0123 H   0  0  0  0  0  0  0  0  0  0  0  0
    3.0942   -4.7525   -2.6355 H   0  0  0  0  0  0  0  0  0  0  0  0
    3.3754   -2.7860   -4.1428 H   0  0  0  0  0  0  0  0  0  0  0  0
    1.7861   -0.8589   -3.9809 H   0  0  0  0  0  0  0  0  0  0  0  0
   -2.3668   -0.6138   -5.6193 H   0  0  0  0  0  0  0  0  0  0  0  0
   -3.5125    0.1130   -4.4708 H   0  0  0  0  0  0  0  0  0  0  0  0
   -3.7442   -1.5943   -4.9750 H   0  0  0  0  0  0  0  0  0  0  0  0
  1  2  2  0
  1  6  1  0
  1  8  1  0
  2  3  1  0
  2 21  1  0
  3  4  2  0
  3 22  1  0
  4  5  1  0
  4 23  1  0
  5  6  2  0
  5 24  1  0
  6  7  1  0
  7 25  1  0
  8  9  2  0
  8 10  1  0
 10 11  1  0
 10 17  1  0
 11 12  2  0
 11 16  1  0
 12 13  1  0
 12 26  1  0
 13 14  2  0
 13 27  1  0
 14 15  1  0
 14 28  1  0
 15 16  2  0
 15 29  1  0
 16 30  1  0
 17 18  1  0
 18 19  2  0
 18 20  1  0
 20 31  1  0
 20 32  1  0
 20 33  1  0
M  END

