32

N          0.17860        0.18710        0.53080
S          1.75110       -0.07260       -0.03710
O          2.57100       -0.24790        1.16400
O          1.71000       -1.06920       -1.10990
C          2.17290        1.49420       -0.77660
C          2.61210        2.53830        0.04180
C          2.93770        3.75730       -0.53720
C          2.83210        3.94530       -1.93080
C          2.39830        2.88150       -2.74270
C          2.07420        1.65780       -2.15790
N          3.18750        5.20470       -2.43130
C          3.12540        5.67540       -3.72500
O          2.66330        5.01010       -4.64440
C          3.66030        7.06620       -3.89650
C          4.74530        7.48930       -3.10290
C          5.26630        8.77570       -3.19320
C          4.69340        9.67740       -4.09630
C          3.64070        9.27540       -4.91120
C          3.11640        7.97030       -4.84580
S          1.77930        7.62080       -5.95340
H         -0.50290       -0.24110       -0.09600
H          0.10920       -0.19320        1.47540
H          2.70700        2.38420        1.11750
H          3.28670        4.57950        0.09360
H          2.32040        3.02570       -3.81620
H          1.75260        0.81770       -2.77500
H          3.47270        5.87930       -1.73240
H          5.21330        6.77770       -2.41850
H          6.11510        9.06980       -2.57300
H          5.08210       10.69490       -4.18080
H          3.21470        9.97440       -5.63460
H          1.85600        6.27320       -5.81940
