rmsd48.gzmat
 OpenBabel08211713433D

 32 33  0  0  0  0  0  0  0  0999 V2000
    0.0000    0.0000    0.0000 N   0  0  0  0  0  0  0  0  0  0  0  0
    1.7398    0.0000    0.0000 S   0  0  0  0  0  0  0  0  0  0  0  0
    2.1266    0.0000    1.3920 O   0  0  0  0  0  0  0  0  0  0  0  0
    2.1195   -1.0604   -0.9057 O   0  0  0  0  0  0  0  0  0  0  0  0
    2.1809    1.5332   -0.7133 C   0  0  0  0  0  0  0  0  0  0  0  0
    2.4154    2.6423    0.0987 C   0  0  0  0  0  0  0  0  0  0  0  0
    2.7733    3.8655   -0.4585 C   0  0  0  0  0  0  0  0  0  0  0  0
    2.8940    3.9815   -1.8501 C   0  0  0  0  0  0  0  0  0  0  0  0
    2.6725    2.8575   -2.6721 C   0  0  0  0  0  0  0  0  0  0  0  0
    2.3191    1.6442   -2.0982 C   0  0  0  0  0  0  0  0  0  0  0  0
    3.2511    5.1828   -2.4966 N   0  0  0  0  0  0  0  0  0  0  0  0
    3.2863    6.4430   -1.8945 C   0  0  0  0  0  0  0  0  0  0  0  0
    3.0279    6.6082   -0.7245 O   0  0  0  0  0  0  0  0  0  0  0  0
    3.6557    7.5469   -2.8225 C   0  0  0  0  0  0  0  0  0  0  0  0
    4.9187    7.5249   -3.4190 C   0  0  0  0  0  0  0  0  0  0  0  0
    5.2913    8.5426   -4.2905 C   0  0  0  0  0  0  0  0  0  0  0  0
    4.4014    9.5828   -4.5633 C   0  0  0  0  0  0  0  0  0  0  0  0
    3.1496    9.6157   -3.9557 C   0  0  0  0  0  0  0  0  0  0  0  0
    2.7749    8.5988   -3.0731 C   0  0  0  0  0  0  0  0  0  0  0  0
    1.1565    8.7132   -2.3695 S   0  0  0  0  0  0  0  0  0  0  0  0
   -0.4480   -0.6703   -0.6019 H   0  0  0  0  0  0  0  0  0  0  0  0
   -0.4505    0.0203    0.8997 H   0  0  0  0  0  0  0  0  0  0  0  0
    2.3311    2.5665    1.1916 H   0  0  0  0  0  0  0  0  0  0  0  0
    2.9607    4.7179    0.1976 H   0  0  0  0  0  0  0  0  0  0  0  0
    2.7729    2.9346   -3.7509 H   0  0  0  0  0  0  0  0  0  0  0  0
    2.1587    0.7757   -2.7496 H   0  0  0  0  0  0  0  0  0  0  0  0
    3.4257    5.1269   -3.4990 H   0  0  0  0  0  0  0  0  0  0  0  0
    5.6163    6.7160   -3.1951 H   0  0  0  0  0  0  0  0  0  0  0  0
    6.2754    8.5304   -4.7572 H   0  0  0  0  0  0  0  0  0  0  0  0
    4.6911   10.3789   -5.2499 H   0  0  0  0  0  0  0  0  0  0  0  0
    2.4739   10.4470   -4.1714 H   0  0  0  0  0  0  0  0  0  0  0  0
    1.3309    8.0652   -1.2023 H   0  0  0  0  0  0  0  0  0  0  0  0
  1 22  1  0  0  0  0
  2  1  1  0  0  0  0
  2  3  2  0  0  0  0
  4  2  2  0  0  0  0
  5  2  1  0  0  0  0
  5  6  2  0  0  0  0
  6 23  1  0  0  0  0
  7  6  1  0  0  0  0
  7 24  1  0  0  0  0
  8  7  2  0  0  0  0
  9 10  2  0  0  0  0
  9  8  1  0  0  0  0
 10  5  1  0  0  0  0
 11 12  1  0  0  0  0
 11  8  1  0  0  0  0
 12 13  2  0  0  0  0
 14 12  1  0  0  0  0
 15 28  1  0  0  0  0
 15 14  2  0  0  0  0
 16 15  1  0  0  0  0
 17 16  2  0  0  0  0
 17 18  1  0  0  0  0
 18 19  2  0  0  0  0
 19 14  1  0  0  0  0
 19 20  1  0  0  0  0
 20 32  1  0  0  0  0
 21  1  1  0  0  0  0
 25  9  1  0  0  0  0
 26 10  1  0  0  0  0
 27 11  1  0  0  0  0
 29 16  1  0  0  0  0
 30 17  1  0  0  0  0
 31 18  1  0  0  0  0
M  END
$$$$
