32
rmsd147.gzmat
N          0.00000        0.00000        0.00000
S          1.73970        0.00000        0.00000
O          2.12330        0.00000        1.39280
O          2.12280       -1.05970       -0.90540
C          2.17550        1.53450       -0.71390
C          2.35860        1.63180       -2.09410
C          2.69450        2.84830       -2.67220
C          2.85240        3.98870       -1.85880
C          2.68960        3.88670       -0.47060
C          2.35200        2.65980        0.09110
N          3.19570        5.19250       -2.50800
C          3.15600        6.46230       -1.92660
O          2.82690        6.63900       -0.77660
C          3.54300        7.55960       -2.85580
C          4.85920        7.60560       -3.31970
C          5.24980        8.61380       -4.19460
C          4.32330        9.57320       -4.60480
C          3.01660        9.54140       -4.12570
C          2.62420        8.53670       -3.23700
S          0.94360        8.56330       -2.68690
H         -0.45020       -0.67230       -0.59750
H         -0.44840        0.02780        0.90050
H          2.24790        0.74980       -2.73820
H          2.82880        2.91590       -3.74770
H          2.82710        4.75380        0.17840
H          2.23880        2.59480        1.18160
H          3.42460        5.12740       -3.49890
H          5.58210        6.85790       -2.98970
H          6.27580        8.65610       -4.55780
H          4.62630       10.35840       -5.29840
H          2.31280       10.31360       -4.44550
H          1.05380        7.95830       -1.48940
