32
rmsd45.gzmat
N          0.00000        0.00000        0.00000
S          1.73950        0.00000        0.00000
O          2.12170        0.00000        1.39410
O          2.12450       -1.05890       -0.90380
C          2.17880        1.53910       -0.70140
C          2.38200        2.64630        0.12360
C          2.73960        3.87090       -0.42300
C          2.89810        3.99390       -1.81840
C          2.70210        2.88010       -2.64610
C          2.34480        1.66070       -2.08040
N          3.28300        5.25990       -2.30530
C          3.28730        5.64310       -3.64880
O          2.93790        4.89750       -4.53500
C          3.75790        7.03700       -3.87710
C          5.05410        7.37350       -3.47840
C          5.52730        8.66610       -3.67530
C          4.70410        9.62130       -4.27390
C          3.41940        9.28320       -4.68890
C          2.94320        7.98280       -4.49850
S          1.28920        7.65180       -5.03120
H         -0.44970       -0.68060       -0.58900
H         -0.44860        0.03740        0.89970
H          2.27140        2.56260        1.21250
H          2.89270        4.72750        0.22690
H          2.83090        2.95200       -3.72790
H          2.20900        0.79390       -2.74080
H          3.52110        5.96290       -1.60690
H          5.69950        6.62080       -3.02180
H          6.53720        8.93240       -3.36540
H          5.07280       10.63660       -4.42410
H          2.79800       10.04240       -5.17030
H          1.37380        6.34320       -5.34030
