32
rmsd46.gzmat
N          0.00000        0.00000        0.00000
S          1.73960        0.00000        0.00000
O          2.12250        0.00000        1.39380
O          2.12320       -1.05930       -0.90410
C          2.17900        1.53900       -0.70260
C          2.39480        2.64470        0.12100
C          2.74780        3.87010       -0.42820
C          2.88530        3.99500       -1.82520
C          2.68410        2.88090       -2.65170
C          2.33120        1.66140       -2.08370
N          3.25170        5.26310       -2.32290
C          3.14690        5.65910       -3.65820
O          2.72940        4.91950       -4.51970
C          3.58770        7.05750       -3.91480
C          4.92110        7.39140       -3.66690
C          5.36730        8.68630       -3.90840
C          4.47980        9.64620       -4.39730
C          3.15410        9.31140       -4.65840
C          2.70490        8.00860       -4.42560
S          1.00010        7.67700       -4.76160
H         -0.44920       -0.67680       -0.59400
H         -0.44840        0.02970        0.90040
H          2.29470        2.55980        1.21080
H          2.90970        4.72590        0.22050
H          2.80290        2.95400       -3.73450
H          2.18530        0.79620       -2.74420
H          3.53730        5.95920       -1.63650
H          5.61520        6.63540       -3.29530
H          6.40710        8.94960       -3.71930
H          4.82790       10.66300       -4.58330
H          2.47930       10.07450       -5.05350
H          1.05260        6.37390       -5.09720
