
     RDKit          3D

 32 33  0  0  0  0  0  0  0  0999 V2000
    0.1786    0.1871    0.5308 N   0  0  0  0  0  0  0  0  0  0  0  0
    1.7511   -0.0726   -0.0371 S   0  0  0  0  0  0  0  0  0  0  0  0
    2.5710   -0.2479    1.1640 O   0  0  0  0  0  0  0  0  0  0  0  0
    1.7100   -1.0692   -1.1099 O   0  0  0  0  0  0  0  0  0  0  0  0
    2.1729    1.4942   -0.7766 C   0  0  0  0  0  0  0  0  0  0  0  0
    2.6121    2.5383    0.0418 C   0  0  0  0  0  0  0  0  0  0  0  0
    2.9377    3.7573   -0.5372 C   0  0  0  0  0  0  0  0  0  0  0  0
    2.8321    3.9453   -1.9308 C   0  0  0  0  0  0  0  0  0  0  0  0
    2.3983    2.8815   -2.7427 C   0  0  0  0  0  0  0  0  0  0  0  0
    2.0742    1.6578   -2.1579 C   0  0  0  0  0  0  0  0  0  0  0  0
    3.1875    5.2047   -2.4313 N   0  0  0  0  0  0  0  0  0  0  0  0
    3.1254    5.6754   -3.7250 C   0  0  0  0  0  0  0  0  0  0  0  0
    2.6633    5.0101   -4.6444 O   0  0  0  0  0  0  0  0  0  0  0  0
    3.6603    7.0662   -3.8965 C   0  0  0  0  0  0  0  0  0  0  0  0
    4.7453    7.4893   -3.1029 C   0  0  0  0  0  0  0  0  0  0  0  0
    5.2663    8.7757   -3.1932 C   0  0  0  0  0  0  0  0  0  0  0  0
    4.6934    9.6774   -4.0963 C   0  0  0  0  0  0  0  0  0  0  0  0
    3.6407    9.2754   -4.9112 C   0  0  0  0  0  0  0  0  0  0  0  0
    3.1164    7.9703   -4.8458 C   0  0  0  0  0  0  0  0  0  0  0  0
    1.7793    7.6208   -5.9534 S   0  0  0  0  0  0  0  0  0  0  0  0
   -0.5029   -0.2411   -0.0960 H   0  0  0  0  0  0  0  0  0  0  0  0
    0.1092   -0.1932    1.4754 H   0  0  0  0  0  0  0  0  0  0  0  0
    2.7070    2.3842    1.1175 H   0  0  0  0  0  0  0  0  0  0  0  0
    3.2867    4.5795    0.0936 H   0  0  0  0  0  0  0  0  0  0  0  0
    2.3204    3.0257   -3.8162 H   0  0  0  0  0  0  0  0  0  0  0  0
    1.7526    0.8177   -2.7750 H   0  0  0  0  0  0  0  0  0  0  0  0
    3.4727    5.8793   -1.7324 H   0  0  0  0  0  0  0  0  0  0  0  0
    5.2133    6.7777   -2.4185 H   0  0  0  0  0  0  0  0  0  0  0  0
    6.1151    9.0698   -2.5730 H   0  0  0  0  0  0  0  0  0  0  0  0
    5.0821   10.6949   -4.1808 H   0  0  0  0  0  0  0  0  0  0  0  0
    3.2147    9.9744   -5.6346 H   0  0  0  0  0  0  0  0  0  0  0  0
    1.8560    6.2732   -5.8194 H   0  0  0  0  0  0  0  0  0  0  0  0
  2  1  1  0
  1 21  1  0
  1 22  1  0
  2  3  2  0
  2  4  2  0
  2  5  1  0
  5  6  2  0
  5 10  1  0
  6  7  1  0
  6 23  1  0
  7  8  2  0
  7 24  1  0
  8  9  1  0
  8 11  1  0
  9 10  2  0
  9 25  1  0
 10 26  1  0
 11 12  1  0
 11 27  1  0
 12 13  2  0
 12 14  1  0
 14 15  2  0
 14 19  1  0
 15 16  1  0
 15 28  1  0
 16 17  2  0
 16 29  1  0
 17 18  1  0
 17 30  1  0
 18 19  2  0
 18 31  1  0
 19 20  1  0
 20 32  1  0
M  END

