
     RDKit          3D

 32 33  0  0  0  0  0  0  0  0999 V2000
   -0.1493    0.0966   -0.1862 N   0  0  0  0  0  0  0  0  0  0  0  0
    1.5352   -0.0388   -0.0924 S   0  0  0  0  0  0  0  0  0  0  0  0
    1.9303   -0.0929    1.3170 O   0  0  0  0  0  0  0  0  0  0  0  0
    1.8900   -1.0922   -1.0463 O   0  0  0  0  0  0  0  0  0  0  0  0
    2.0974    1.5212   -0.7479 C   0  0  0  0  0  0  0  0  0  0  0  0
    2.1589    1.6963   -2.1331 C   0  0  0  0  0  0  0  0  0  0  0  0
    2.5952    2.9128   -2.6398 C   0  0  0  0  0  0  0  0  0  0  0  0
    2.9778    3.9592   -1.7753 C   0  0  0  0  0  0  0  0  0  0  0  0
    2.9235    3.7630   -0.3834 C   0  0  0  0  0  0  0  0  0  0  0  0
    2.4834    2.5401    0.1221 C   0  0  0  0  0  0  0  0  0  0  0  0
    3.3988    5.1549   -2.3723 N   0  0  0  0  0  0  0  0  0  0  0  0
    3.8551    6.3111   -1.7772 C   0  0  0  0  0  0  0  0  0  0  0  0
    4.0098    6.4093   -0.5656 O   0  0  0  0  0  0  0  0  0  0  0  0
    4.1502    7.4210   -2.7420 C   0  0  0  0  0  0  0  0  0  0  0  0
    3.3597    7.5547   -3.9012 C   0  0  0  0  0  0  0  0  0  0  0  0
    3.6024    8.5435   -4.8485 C   0  0  0  0  0  0  0  0  0  0  0  0
    4.6658    9.4298   -4.6462 C   0  0  0  0  0  0  0  0  0  0  0  0
    5.4427    9.3371   -3.4966 C   0  0  0  0  0  0  0  0  0  0  0  0
    5.1959    8.3543   -2.5187 C   0  0  0  0  0  0  0  0  0  0  0  0
    6.2759    8.3773   -1.1155 S   0  0  0  0  0  0  0  0  0  0  0  0
   -0.5226   -0.7790   -0.5546 H   0  0  0  0  0  0  0  0  0  0  0  0
   -0.5414    0.3129    0.7304 H   0  0  0  0  0  0  0  0  0  0  0  0
    1.8774    0.8790   -2.7984 H   0  0  0  0  0  0  0  0  0  0  0  0
    2.6486    3.0599   -3.7221 H   0  0  0  0  0  0  0  0  0  0  0  0
    3.2355    4.5630    0.2815 H   0  0  0  0  0  0  0  0  0  0  0  0
    2.4511    2.3660    1.1986 H   0  0  0  0  0  0  0  0  0  0  0  0
    3.4221    5.1438   -3.3843 H   0  0  0  0  0  0  0  0  0  0  0  0
    2.5106    6.8826   -4.0465 H   0  0  0  0  0  0  0  0  0  0  0  0
    2.9649    8.6283   -5.7305 H   0  0  0  0  0  0  0  0  0  0  0  0
    4.8795   10.2110   -5.3794 H   0  0  0  0  0  0  0  0  0  0  0  0
    6.2547   10.0485   -3.3297 H   0  0  0  0  0  0  0  0  0  0  0  0
    5.4947    7.5810   -0.3438 H   0  0  0  0  0  0  0  0  0  0  0  0
  2  1  1  0
  1 21  1  0
  1 22  1  0
  2  3  2  0
  2  4  2  0
  2  5  1  0
  5  6  2  0
  5 10  1  0
  6  7  1  0
  6 23  1  0
  7  8  2  0
  7 24  1  0
  8  9  1  0
  8 11  1  0
  9 10  2  0
  9 25  1  0
 10 26  1  0
 11 12  1  0
 11 27  1  0
 12 13  2  0
 12 14  1  0
 14 15  2  0
 14 19  1  0
 15 16  1  0
 15 28  1  0
 16 17  2  0
 16 29  1  0
 17 18  1  0
 17 30  1  0
 18 19  2  0
 18 31  1  0
 19 20  1  0
 20 32  1  0
M  END

