rmsd147.gzmat
 OpenBabel08211713433D

 32 33  0  0  0  0  0  0  0  0999 V2000
    0.0000    0.0000    0.0000 N   0  0  0  0  0  0  0  0  0  0  0  0
    1.7397    0.0000    0.0000 S   0  0  0  0  0  0  0  0  0  0  0  0
    2.1233    0.0000    1.3928 O   0  0  0  0  0  0  0  0  0  0  0  0
    2.1228   -1.0597   -0.9054 O   0  0  0  0  0  0  0  0  0  0  0  0
    2.1755    1.5345   -0.7139 C   0  0  0  0  0  0  0  0  0  0  0  0
    2.3586    1.6318   -2.0941 C   0  0  0  0  0  0  0  0  0  0  0  0
    2.6945    2.8483   -2.6722 C   0  0  0  0  0  0  0  0  0  0  0  0
    2.8524    3.9887   -1.8588 C   0  0  0  0  0  0  0  0  0  0  0  0
    2.6896    3.8867   -0.4706 C   0  0  0  0  0  0  0  0  0  0  0  0
    2.3520    2.6598    0.0911 C   0  0  0  0  0  0  0  0  0  0  0  0
    3.1957    5.1925   -2.5080 N   0  0  0  0  0  0  0  0  0  0  0  0
    3.1560    6.4623   -1.9266 C   0  0  0  0  0  0  0  0  0  0  0  0
    2.8269    6.6390   -0.7766 O   0  0  0  0  0  0  0  0  0  0  0  0
    3.5430    7.5596   -2.8558 C   0  0  0  0  0  0  0  0  0  0  0  0
    4.8592    7.6056   -3.3197 C   0  0  0  0  0  0  0  0  0  0  0  0
    5.2498    8.6138   -4.1946 C   0  0  0  0  0  0  0  0  0  0  0  0
    4.3233    9.5732   -4.6048 C   0  0  0  0  0  0  0  0  0  0  0  0
    3.0166    9.5414   -4.1257 C   0  0  0  0  0  0  0  0  0  0  0  0
    2.6242    8.5367   -3.2370 C   0  0  0  0  0  0  0  0  0  0  0  0
    0.9436    8.5633   -2.6869 S   0  0  0  0  0  0  0  0  0  0  0  0
   -0.4502   -0.6723   -0.5975 H   0  0  0  0  0  0  0  0  0  0  0  0
   -0.4484    0.0278    0.9005 H   0  0  0  0  0  0  0  0  0  0  0  0
    2.2479    0.7498   -2.7382 H   0  0  0  0  0  0  0  0  0  0  0  0
    2.8288    2.9159   -3.7477 H   0  0  0  0  0  0  0  0  0  0  0  0
    2.8271    4.7538    0.1784 H   0  0  0  0  0  0  0  0  0  0  0  0
    2.2388    2.5948    1.1816 H   0  0  0  0  0  0  0  0  0  0  0  0
    3.4246    5.1274   -3.4989 H   0  0  0  0  0  0  0  0  0  0  0  0
    5.5821    6.8579   -2.9897 H   0  0  0  0  0  0  0  0  0  0  0  0
    6.2758    8.6561   -4.5578 H   0  0  0  0  0  0  0  0  0  0  0  0
    4.6263   10.3584   -5.2984 H   0  0  0  0  0  0  0  0  0  0  0  0
    2.3128   10.3136   -4.4455 H   0  0  0  0  0  0  0  0  0  0  0  0
    1.0538    7.9583   -1.4894 H   0  0  0  0  0  0  0  0  0  0  0  0
  1 22  1  0  0  0  0
  2  1  1  0  0  0  0
  2  3  2  0  0  0  0
  4  2  2  0  0  0  0
  5  2  1  0  0  0  0
  5 10  2  0  0  0  0
  6  5  1  0  0  0  0
  7  6  2  0  0  0  0
  7  8  1  0  0  0  0
  8  9  2  0  0  0  0
  9 10  1  0  0  0  0
  9 25  1  0  0  0  0
 10 26  1  0  0  0  0
 11 12  1  0  0  0  0
 11  8  1  0  0  0  0
 12 13  2  0  0  0  0
 14 12  1  0  0  0  0
 15 28  1  0  0  0  0
 15 14  2  0  0  0  0
 16 15  1  0  0  0  0
 17 16  2  0  0  0  0
 17 18  1  0  0  0  0
 18 19  2  0  0  0  0
 19 14  1  0  0  0  0
 19 20  1  0  0  0  0
 20 32  1  0  0  0  0
 21  1  1  0  0  0  0
 23  6  1  0  0  0  0
 24  7  1  0  0  0  0
 27 11  1  0  0  0  0
 29 16  1  0  0  0  0
 30 17  1  0  0  0  0
 31 18  1  0  0  0  0
M  END
$$$$
