rmsd38.gzmat
 OpenBabel08211713373D

 32 33  0  0  0  0  0  0  0  0999 V2000
    0.0000    0.0000    0.0000 C   0  0  0  0  0  0  0  0  0  0  0  0
    1.3948    0.0000    0.0000 C   0  0  0  0  0  0  0  0  0  0  0  0
    2.0793    0.0000    1.2132 C   0  0  0  0  0  0  0  0  0  0  0  0
    1.3703    0.0124    2.4140 C   0  0  0  0  0  0  0  0  0  0  0  0
   -0.0239    0.0386    2.4074 C   0  0  0  0  0  0  0  0  0  0  0  0
   -0.7143    0.0338    1.1975 C   0  0  0  0  0  0  0  0  0  0  0  0
   -0.7032   -0.0400   -1.3021 C   0  0  0  0  0  0  0  0  0  0  0  0
   -0.5105    0.7175   -2.2230 O   0  0  0  0  0  0  0  0  0  0  0  0
   -1.7425   -0.9980   -1.4439 N   0  0  0  0  0  0  0  0  0  0  0  0
   -1.7214   -2.0127   -0.4991 O   0  0  0  0  0  0  0  0  0  0  0  0
   -0.8422   -3.0593   -0.7568 C   0  0  0  0  0  0  0  0  0  0  0  0
   -0.2518   -3.1398   -1.8008 O   0  0  0  0  0  0  0  0  0  0  0  0
   -0.8071   -3.9643    0.3946 C   0  0  0  0  0  0  0  0  0  0  0  0
   -0.4950   -5.3095    0.1786 C   0  0  0  0  0  0  0  0  0  0  0  0
   -0.4398   -6.1841    1.2572 C   0  0  0  0  0  0  0  0  0  0  0  0
   -0.6857   -5.7182    2.5541 C   0  0  0  0  0  0  0  0  0  0  0  0
   -0.9882   -4.3692    2.7637 C   0  0  0  0  0  0  0  0  0  0  0  0
   -1.0505   -3.4925    1.6861 C   0  0  0  0  0  0  0  0  0  0  0  0
   -0.6260   -6.6652    3.7023 C   0  0  0  0  0  0  0  0  0  0  0  0
    1.9422   -0.0025   -0.9447 H   0  0  0  0  0  0  0  0  0  0  0  0
    3.1678   -0.0092    1.2224 H   0  0  0  0  0  0  0  0  0  0  0  0
    1.9081    0.0055    3.3608 H   0  0  0  0  0  0  0  0  0  0  0  0
   -0.5722    0.0649    3.3464 H   0  0  0  0  0  0  0  0  0  0  0  0
   -1.8056    0.0563    1.1818 H   0  0  0  0  0  0  0  0  0  0  0  0
   -1.9754   -1.3453   -2.3682 H   0  0  0  0  0  0  0  0  0  0  0  0
   -0.2917   -5.6644   -0.8353 H   0  0  0  0  0  0  0  0  0  0  0  0
   -0.2015   -7.2335    1.0942 H   0  0  0  0  0  0  0  0  0  0  0  0
   -1.1748   -4.0013    3.7702 H   0  0  0  0  0  0  0  0  0  0  0  0
   -1.2798   -2.4369    1.8542 H   0  0  0  0  0  0  0  0  0  0  0  0
   -0.6854   -6.1617    4.6770 H   0  0  0  0  0  0  0  0  0  0  0  0
    0.3070   -7.2490    3.7025 H   0  0  0  0  0  0  0  0  0  0  0  0
   -1.4563   -7.3881    3.6640 H   0  0  0  0  0  0  0  0  0  0  0  0
  1  6  1  0  0  0  0
  2  1  2  0  0  0  0
  2  3  1  0  0  0  0
  3 21  1  0  0  0  0
  3  4  2  0  0  0  0
  4 22  1  0  0  0  0
  5  4  1  0  0  0  0
  5 23  1  0  0  0  0
  6  5  2  0  0  0  0
  7  1  1  0  0  0  0
  8  7  2  0  0  0  0
  9  7  1  0  0  0  0
  9 10  1  0  0  0  0
 11 10  1  0  0  0  0
 11 13  1  0  0  0  0
 12 11  2  0  0  0  0
 13 18  1  0  0  0  0
 14 13  2  0  0  0  0
 14 15  1  0  0  0  0
 15 16  2  0  0  0  0
 16 17  1  0  0  0  0
 16 19  1  0  0  0  0
 17 28  1  0  0  0  0
 18 29  1  0  0  0  0
 18 17  2  0  0  0  0
 19 31  1  0  0  0  0
 19 30  1  0  0  0  0
 20  2  1  0  0  0  0
 24  6  1  0  0  0  0
 25  9  1  0  0  0  0
 26 14  1  0  0  0  0
 27 15  1  0  0  0  0
 32 19  1  0  0  0  0
M  END
$$$$
