32
rmsd38.gzmat
C          0.00000        0.00000        0.00000
C          1.39480        0.00000        0.00000
C          2.07930        0.00000        1.21320
C          1.37030        0.01240        2.41400
C         -0.02390        0.03860        2.40740
C         -0.71430        0.03380        1.19750
C         -0.70320       -0.04000       -1.30210
O         -0.51050        0.71750       -2.22300
N         -1.74250       -0.99800       -1.44390
O         -1.72140       -2.01270       -0.49910
C         -0.84220       -3.05930       -0.75680
O         -0.25180       -3.13980       -1.80080
C         -0.80710       -3.96430        0.39460
C         -0.49500       -5.30950        0.17860
C         -0.43980       -6.18410        1.25720
C         -0.68570       -5.71820        2.55410
C         -0.98820       -4.36920        2.76370
C         -1.05050       -3.49250        1.68610
C         -0.62600       -6.66520        3.70230
H          1.94220       -0.00250       -0.94470
H          3.16780       -0.00920        1.22240
H          1.90810        0.00550        3.36080
H         -0.57220        0.06490        3.34640
H         -1.80560        0.05630        1.18180
H         -1.97540       -1.34530       -2.36820
H         -0.29170       -5.66440       -0.83530
H         -0.20150       -7.23350        1.09420
H         -1.17480       -4.00130        3.77020
H         -1.27980       -2.43690        1.85420
H         -0.68540       -6.16170        4.67700
H          0.30700       -7.24900        3.70250
H         -1.45630       -7.38810        3.66400
