32
rmsd242.gzmat
C          0.00000        0.00000        0.00000
C          1.39490        0.00000        0.00000
C          2.08040        0.00000        1.21260
C          1.37170        0.00130        2.41380
C         -0.02260        0.01490        2.40750
C         -0.71420        0.02170        1.19800
C         -0.75530       -0.02380       -1.27340
O         -1.61600        0.76190       -1.59050
N         -0.37250       -1.00380       -2.22850
O          0.39130       -2.04120       -1.71510
C         -0.31480       -3.03420       -1.04450
O         -1.51700       -3.05440       -1.03990
C          0.62400       -3.96920       -0.42010
C          0.21670       -5.29170       -0.22590
C          1.08040       -6.19590        0.38200
C          2.34900       -5.78180        0.80080
C          2.74680       -4.45320        0.61210
C          1.88650       -3.54680        0.00340
C          3.28220       -6.75290        1.43640
H          1.94140        0.00080       -0.94510
H          3.16810        0.00160        1.22170
H          1.90930       -0.00570        3.36070
H         -0.57220        0.02100        3.34730
H         -1.80580        0.04110        1.18490
H         -1.05580       -1.33620       -2.90040
H         -0.77930       -5.60710       -0.54870
H          0.76720       -7.22740        0.53180
H          3.73150       -4.12850        0.94090
H          2.19530       -2.50700       -0.13350
H          3.88020       -6.29440        2.23700
H          3.99180       -7.15460        0.69500
H          2.76230       -7.61360        1.88060
