32

C          0.10580       -0.00830       -0.00350
C          1.49440        0.18740       -0.05260
C          2.22440        0.34170        1.12460
C          1.56980        0.32200        2.36070
C          0.18360        0.15060        2.41420
C         -0.54890       -0.01870        1.23810
C         -0.60150       -0.13850       -1.31470
O         -0.19950        0.36960       -2.34060
N         -1.82170       -0.82530       -1.34140
O         -2.05920       -1.83140       -0.40300
C         -1.23300       -2.93310       -0.51580
O         -0.41840       -3.03600       -1.39390
C         -1.49100       -3.91010        0.56580
C         -0.71980       -5.08270        0.58560
C         -0.91110       -6.02820        1.58790
C         -1.87410       -5.83310        2.59270
C         -2.63730       -4.65470        2.56380
C         -2.45410       -3.70100        1.56490
C         -2.09860       -6.87520        3.65620
H          1.98160        0.21400       -1.02860
H          3.30690        0.48160        1.08000
H          2.14080        0.44610        3.28410
H         -0.33120        0.14990        3.37780
H         -1.63000       -0.14670        1.28440
H         -2.06730       -1.12760       -2.28440
H          0.03010       -5.22930       -0.19360
H         -0.30180       -6.93570        1.59710
H         -3.38690       -4.48250        3.34040
H         -3.05350       -2.79080        1.55560
H         -2.52220       -6.43570        4.57130
H         -1.16290       -7.39110        3.91910
H         -2.80670       -7.64490        3.30270
