32
rmsd120.gzmat
C          0.00000        0.00000        0.00000
C          1.39500        0.00000        0.00000
C          2.08060        0.00000        1.21240
C          1.37220        0.00150        2.41360
C         -0.02210        0.01750        2.40780
C         -0.71380        0.02280        1.19860
C         -0.75740       -0.03040       -1.27170
O         -1.63090        0.74280       -1.58470
N         -0.36330       -1.00260       -2.23080
O          0.41870       -2.02800       -1.72100
C         -0.26970       -3.03560       -1.05320
O         -1.47200       -3.07830       -1.05470
C          0.68060       -3.95500       -0.42380
C          0.24340       -5.24470       -0.10800
C          1.11490       -6.13630        0.50670
C          2.42070       -5.74140        0.81680
C          2.84900       -4.44610        0.50640
C          1.98240       -3.55380       -0.11480
C          3.35720       -6.70260        1.46260
H          1.94130       -0.00160       -0.94520
H          3.16840        0.00030        1.22180
H          1.91040       -0.00840        3.36000
H         -0.57180        0.02650        3.34750
H         -1.80550        0.04150        1.18580
H         -1.04560       -1.34570       -2.89840
H         -0.78250       -5.54290       -0.34180
H          0.77940       -7.14350        0.74780
H          3.86220       -4.13480        0.75160
H          2.31990       -2.54170       -0.35140
H          4.10260       -6.20370        2.09780
H          3.91430       -7.27410        0.70250
H          2.83760       -7.43520        2.09690
