32

C          0.13180       -0.07370       -0.04520
C          1.47890       -0.44250       -0.18020
C          2.24650       -0.72550        0.94820
C          1.66870       -0.66200        2.22050
C          0.32110       -0.31760        2.35920
C         -0.44700       -0.01940        1.23240
C         -0.62360        0.18620       -1.30960
O         -0.34560       -0.33520       -2.36940
N         -1.74670        1.02040       -1.24860
O         -1.80450        2.01780       -0.27340
C         -0.85200        3.01010       -0.40500
O         -0.07780        3.03750       -1.32430
C         -0.92600        3.97650        0.71370
C         -1.85930        3.86310        1.75550
C         -1.86910        4.80210        2.78480
C         -0.95630        5.86880        2.80440
C         -0.02970        5.97260        1.75260
C         -0.01080        5.04080        0.72010
C         -0.94900        6.86280        3.93560
H          1.90430       -0.50000       -1.18340
H          3.29790       -1.00030        0.83700
H          2.26880       -0.88690        3.10570
H         -0.13570       -0.28210        3.35100
H         -1.49830        0.24380        1.34500
H         -2.00300        1.38080       -2.16810
H         -2.57560        3.04170        1.75220
H         -2.60140        4.70860        3.59080
H          0.68580        6.79890        1.74710
H          0.70840        5.11770       -0.09710
H         -0.70120        7.87470        3.58090
H         -0.19080        6.58810        4.68950
H         -1.92200        6.90250        4.44680
