32
rmsd112.gzmat
C          0.00000        0.00000        0.00000
C          1.39520        0.00000        0.00000
C          2.08020        0.00000        1.21280
C          1.37210       -0.01580        2.41370
C         -0.02210       -0.04030        2.40750
C         -0.71340       -0.03220        1.19840
C         -0.70080        0.04870       -1.30290
O         -0.49080       -0.68580       -2.23850
N         -1.75640        0.99280       -1.43390
O         -1.77390        1.98010       -0.46100
C         -0.82930        2.99070       -0.60780
O         -0.14610        3.06470       -1.59560
C         -0.83110        3.86150        0.56920
C         -1.55140        3.53650        1.72190
C         -1.50150        4.37950        2.82550
C         -0.73420        5.54980        2.78420
C         -0.01160        5.86750        1.63030
C         -0.05850        5.02590        0.52420
C         -0.68590        6.44320        3.97480
H          1.94260        0.00330       -0.94470
H          3.16880        0.01220        1.22160
H          1.91050       -0.01080        3.36000
H         -0.57030       -0.06210        3.34640
H         -1.80440       -0.04810        1.18560
H         -1.97190        1.36820       -2.35130
H         -2.14910        2.62300        1.76270
H         -2.05980        4.12850        3.72490
H          0.59040        6.77360        1.59590
H          0.50770        5.26580       -0.38110
H         -0.22010        7.41550        3.76220
H         -0.10720        5.98300        4.79160
H         -1.69070        6.65140        4.37180
