
     RDKit          3D

 32 33  0  0  0  0  0  0  0  0999 V2000
   -0.1338    0.0567    0.1027 C   0  0  0  0  0  0  0  0  0  0  0  0
    1.2390   -0.0770    0.3631 C   0  0  0  0  0  0  0  0  0  0  0  0
    1.7295    0.1452    1.6509 C   0  0  0  0  0  0  0  0  0  0  0  0
    0.8563    0.4923    2.6857 C   0  0  0  0  0  0  0  0  0  0  0  0
   -0.5112    0.6348    2.4280 C   0  0  0  0  0  0  0  0  0  0  0  0
   -1.0025    0.4278    1.1402 C   0  0  0  0  0  0  0  0  0  0  0  0
   -0.7416   -0.1183   -1.2525 C   0  0  0  0  0  0  0  0  0  0  0  0
   -1.7396    0.4691   -1.6146 O   0  0  0  0  0  0  0  0  0  0  0  0
   -0.0857   -0.9506   -2.1681 N   0  0  0  0  0  0  0  0  0  0  0  0
    0.6918   -2.0087   -1.6935 O   0  0  0  0  0  0  0  0  0  0  0  0
   -0.0160   -2.9945   -1.0331 C   0  0  0  0  0  0  0  0  0  0  0  0
   -1.2137   -2.9661   -0.9336 O   0  0  0  0  0  0  0  0  0  0  0  0
    0.8891   -4.0313   -0.4884 C   0  0  0  0  0  0  0  0  0  0  0  0
    0.3116   -5.0984    0.2174 C   0  0  0  0  0  0  0  0  0  0  0  0
    1.1169   -6.0929    0.7626 C   0  0  0  0  0  0  0  0  0  0  0  0
    2.5144   -6.0532    0.6178 C   0  0  0  0  0  0  0  0  0  0  0  0
    3.0803   -4.9792   -0.0878 C   0  0  0  0  0  0  0  0  0  0  0  0
    2.2835   -3.9775   -0.6379 C   0  0  0  0  0  0  0  0  0  0  0  0
    3.3774   -7.1499    1.1833 C   0  0  0  0  0  0  0  0  0  0  0  0
    1.9242   -0.3423   -0.4416 H   0  0  0  0  0  0  0  0  0  0  0  0
    2.7998    0.0481    1.8471 H   0  0  0  0  0  0  0  0  0  0  0  0
    1.2430    0.6575    3.6943 H   0  0  0  0  0  0  0  0  0  0  0  0
   -1.1947    0.9118    3.2339 H   0  0  0  0  0  0  0  0  0  0  0  0
   -2.0630    0.5477    0.9127 H   0  0  0  0  0  0  0  0  0  0  0  0
   -0.7055   -1.2501   -2.9212 H   0  0  0  0  0  0  0  0  0  0  0  0
   -0.7734   -5.1242    0.3316 H   0  0  0  0  0  0  0  0  0  0  0  0
    0.6576   -6.9170    1.3146 H   0  0  0  0  0  0  0  0  0  0  0  0
    4.1658   -4.9280   -0.2055 H   0  0  0  0  0  0  0  0  0  0  0  0
    2.7369   -3.1496   -1.1826 H   0  0  0  0  0  0  0  0  0  0  0  0
    4.4065   -6.8050    1.3613 H   0  0  0  0  0  0  0  0  0  0  0  0
    3.4316   -8.0018    0.4833 H   0  0  0  0  0  0  0  0  0  0  0  0
    2.9708   -7.5344    2.1309 H   0  0  0  0  0  0  0  0  0  0  0  0
  1  2  2  0
  1  6  1  0
  1  7  1  0
  2  3  1  0
  2 20  1  0
  3  4  2  0
  3 21  1  0
  4  5  1  0
  4 22  1  0
  5  6  2  0
  5 23  1  0
  6 24  1  0
  7  8  2  0
  7  9  1  0
  9 10  1  0
  9 25  1  0
 10 11  1  0
 11 12  2  0
 11 13  1  0
 13 14  2  0
 13 18  1  0
 14 15  1  0
 14 26  1  0
 15 16  2  0
 15 27  1  0
 16 17  1  0
 16 19  1  0
 17 18  2  0
 17 28  1  0
 18 29  1  0
 19 30  1  0
 19 31  1  0
 19 32  1  0
M  END

