32
rmsd117.gzmat
C          0.00000        0.00000        0.00000
C          1.39570        0.00000        0.00000
C          2.08280        0.00000        1.21140
C          1.37500        0.00720        2.41260
C         -0.01950        0.02630        2.40770
C         -0.71240        0.02540        1.19950
C         -0.68930       -0.02330       -1.30820
O         -0.40110        0.67040       -2.25560
N         -1.82430       -0.86680       -1.44890
O         -1.96970       -1.84440       -0.47920
C         -1.10360       -2.92860       -0.57050
O         -0.31110       -3.02000       -1.47110
C         -1.34220       -3.85650        0.53720
C         -0.66860       -5.08170        0.52270
C         -0.87840       -5.99760        1.54720
C         -1.75860       -5.69360        2.59080
C         -2.41790       -4.45930        2.60850
C         -2.21200       -3.54160        1.58480
C         -2.01020       -6.69110        3.66740
H          1.94150        0.00030       -0.94620
H          3.17160       -0.00400        1.21870
H          1.91320       -0.00040        3.35910
H         -0.56680        0.04040        3.34780
H         -1.80340        0.04560        1.18910
H         -2.05580       -1.22450       -2.36970
H          0.01880       -5.31320       -0.29670
H         -0.35910       -6.95390        1.53470
H         -3.09640       -4.21770        3.42390
H         -2.73130       -2.58050        1.60370
H         -2.32720       -6.22540        4.61080
H         -1.12320       -7.29970        3.89410
H         -2.80970       -7.38950        3.36930
