32
rmsd47.gzmat
C          0.00000        0.00000        0.00000
C          1.39530        0.00000        0.00000
C          2.08120        0.00000        1.21230
C          1.37270        0.00860        2.41330
C         -0.02200        0.01560        2.40690
C         -0.71360        0.01080        1.19790
C         -0.69820        0.00660       -1.30380
O         -0.48430        0.78620       -2.20210
N         -1.76490       -0.91560       -1.48840
O         -1.80270       -1.97980       -0.60200
C         -0.82190       -2.94870       -0.78070
O          0.00460       -2.84340       -1.64950
C         -0.97910       -4.02660        0.19720
C         -0.02110       -5.04570        0.19860
C         -0.13940       -6.10480        1.09120
C         -1.21300       -6.15100        1.98640
C         -2.16080       -5.12140        1.99010
C         -2.04600       -4.06060        1.09880
C         -1.36130       -7.30260        2.91870
H          1.94180       -0.00210       -0.94510
H          3.16960       -0.00330        1.22050
H          1.91090        0.01270        3.35990
H         -0.57060        0.02370        3.34620
H         -1.80510        0.01460        1.18550
H         -1.98560       -1.21970       -2.43120
H          0.81440       -5.00460       -0.50720
H          0.60310       -6.90040        1.08970
H         -2.99360       -5.15220        2.68960
H         -2.79330       -3.26410        1.10600
H         -1.85660       -7.02200        3.85890
H         -0.39700       -7.75600        3.18850
H         -1.97160       -8.09830        2.46010
