32

C         -0.13380        0.05670        0.10270
C          1.23900       -0.07700        0.36310
C          1.72950        0.14520        1.65090
C          0.85630        0.49230        2.68570
C         -0.51120        0.63480        2.42800
C         -1.00250        0.42780        1.14020
C         -0.74160       -0.11830       -1.25250
O         -1.73960        0.46910       -1.61460
N         -0.08570       -0.95060       -2.16810
O          0.69180       -2.00870       -1.69350
C         -0.01600       -2.99450       -1.03310
O         -1.21370       -2.96610       -0.93360
C          0.88910       -4.03130       -0.48840
C          0.31160       -5.09840        0.21740
C          1.11690       -6.09290        0.76260
C          2.51440       -6.05320        0.61780
C          3.08030       -4.97920       -0.08780
C          2.28350       -3.97750       -0.63790
C          3.37740       -7.14990        1.18330
H          1.92420       -0.34230       -0.44160
H          2.79980        0.04810        1.84710
H          1.24300        0.65750        3.69430
H         -1.19470        0.91180        3.23390
H         -2.06300        0.54770        0.91270
H         -0.70550       -1.25010       -2.92120
H         -0.77340       -5.12420        0.33160
H          0.65760       -6.91700        1.31460
H          4.16580       -4.92800       -0.20550
H          2.73690       -3.14960       -1.18260
H          4.40650       -6.80500        1.36130
H          3.43160       -8.00180        0.48330
H          2.97080       -7.53440        2.13090
