32

C          0.15600        0.05560       -0.06030
C          1.47260        0.49190       -0.27260
C          2.32550        0.70460        0.80900
C          1.86350        0.50240        2.11380
C          0.54600        0.08990        2.33200
C         -0.30680       -0.13780        1.25070
C         -0.69740       -0.12100       -1.27580
O         -0.52930        0.50330       -2.30260
N         -1.78340       -1.00160       -1.19860
O         -1.72440       -2.08320       -0.31780
C         -0.75810       -3.02300       -0.62140
O         -0.06860       -2.93930       -1.60260
C         -0.70300       -4.08700        0.40620
C         -1.54230       -4.10140        1.53090
C         -1.43220       -5.12760        2.46680
C         -0.48990       -6.15670        2.30990
C          0.34150       -6.13200        1.17700
C          0.24020       -5.11250        0.23610
C         -0.35180       -7.24490        3.34150
H          1.80660        0.65740       -1.29810
H          3.35300        1.03270        0.63620
H          2.53040        0.67200        2.96270
H          0.17890       -0.05400        3.35090
H         -1.33470       -0.45420        1.42600
H         -2.10640       -1.28880       -2.12290
H         -2.28010       -3.31050        1.66470
H         -2.09200       -5.13340        3.33820
H          1.07790       -6.92700        1.03400
H          0.88540       -5.08960       -0.64370
H         -0.08440       -8.20700        2.87900
H         -1.28090       -7.38100        3.91410
H          0.44670       -6.99770        4.06260
