35

O         -0.15540       -0.15800        0.31820
C          1.25120       -0.10010        0.12710
C          2.00110       -0.09340        1.42740
C          2.84270       -1.15660        1.77200
C          3.56060       -1.14010        2.96930
C          3.44760       -0.04560        3.83170
C          2.62100        1.02280        3.49010
C          1.88100        1.00510        2.29700
C          1.03320        2.21090        2.00940
O          1.37180        3.28130        2.49210
C         -0.27450        2.11170        1.27410
C         -0.81680        0.98660        0.60910
C         -2.15420        1.01300        0.17160
C         -2.93910        2.14200        0.33340
C         -2.40570        3.29960        0.93470
C         -1.09770        3.25640        1.39410
C         -3.25390        4.54570        1.10040
C         -4.48190        4.25780        1.94240
O         -5.45140        3.64920        1.55730
O         -4.35150        4.72910        3.19270
C         -5.43310        4.45330        4.08350
H          1.50710       -0.99200       -0.46080
H          1.49700        0.79390       -0.47540
H          2.93860       -2.00470        1.08900
H          4.21000       -1.97990        3.22730
H          4.00780       -0.02450        4.76930
H          2.53110        1.89670        4.13680
H         -2.53810        0.11960       -0.32360
H         -3.97700        2.14230       -0.00630
H         -0.65820        4.11520        1.90330
H         -3.61460        4.88980        0.11800
H         -2.66550        5.34790        1.56260
H         -6.37000        4.89050        3.70700
H         -5.15970        4.90380        5.04510
H         -5.57680        3.36800        4.19520
