35
rmsd207.gzmat
O          0.00000        0.00000        0.00000
C          1.42300        0.00000        0.00000
C          1.95450        0.00000        1.39630
C          2.54010       -1.13310        1.95530
C          3.01120       -1.09170        3.26790
C          2.90410        0.07850        4.01660
C          2.32620        1.21700        3.45540
C          1.84600        1.16900        2.14970
C          1.21210        2.37690        1.56030
O          1.77630        3.44540        1.57670
C         -0.16230        2.23040        1.04900
C         -0.67090        1.10560        0.39980
C         -2.04110        1.01210        0.07580
C         -2.88050        2.06780        0.37110
C         -2.37210        3.23340        0.96990
C         -1.02820        3.30640        1.30280
C         -3.28740        4.38240        1.24990
C         -4.32760        3.95950        2.25070
O         -5.11990        3.05990        2.15430
O         -4.27190        4.77720        3.33220
C         -5.19250        4.49380        4.38110
H          1.62690       -0.94270       -0.55060
H          1.80170        0.85100       -0.59950
H          2.62580       -2.05050        1.37650
H          3.46250       -1.97940        3.70820
H          3.27340        0.10680        5.04030
H          2.25320        2.14130        4.03020
H         -2.41260        0.10660       -0.40030
H         -3.94990        2.00080        0.14910
H         -0.62090        4.20480        1.77820
H         -3.79810        4.71460        0.31600
H         -2.73010        5.27710        1.60970
H         -6.22120        4.53080        4.00740
H         -5.00020        5.29600        5.10230
H         -4.97750        3.50920        4.81030
