rmsd144.gzmat
 OpenBabel08211713393D

 35 37  0  0  0  0  0  0  0  0999 V2000
    0.0000    0.0000    0.0000 O   0  0  0  0  0  0  0  0  0  0  0  0
    1.4230    0.0000    0.0000 C   0  0  0  0  0  0  0  0  0  0  0  0
    1.9471    0.0000    1.3987 C   0  0  0  0  0  0  0  0  0  0  0  0
    2.5430   -1.1306    1.9515 C   0  0  0  0  0  0  0  0  0  0  0  0
    3.0082   -1.0934    3.2660 C   0  0  0  0  0  0  0  0  0  0  0  0
    2.8818    0.0693    4.0236 C   0  0  0  0  0  0  0  0  0  0  0  0
    2.2919    1.2045    3.4689 C   0  0  0  0  0  0  0  0  0  0  0  0
    1.8213    1.1624    2.1592 C   0  0  0  0  0  0  0  0  0  0  0  0
    1.1971    2.3765    1.5726 C   0  0  0  0  0  0  0  0  0  0  0  0
    1.7613    3.4446    1.6300 O   0  0  0  0  0  0  0  0  0  0  0  0
   -0.1562    2.2504    1.0020 C   0  0  0  0  0  0  0  0  0  0  0  0
   -0.6627    1.1296    0.3443 C   0  0  0  0  0  0  0  0  0  0  0  0
   -2.0151    1.0677   -0.0536 C   0  0  0  0  0  0  0  0  0  0  0  0
   -2.8352    2.1575    0.1622 C   0  0  0  0  0  0  0  0  0  0  0  0
   -2.3256    3.3208    0.7642 C   0  0  0  0  0  0  0  0  0  0  0  0
   -1.0044    3.3561    1.1845 C   0  0  0  0  0  0  0  0  0  0  0  0
   -3.2020    4.5215    0.9284 C   0  0  0  0  0  0  0  0  0  0  0  0
   -4.4193    4.1693    1.7381 C   0  0  0  0  0  0  0  0  0  0  0  0
   -5.3057    3.4116    1.4430 O   0  0  0  0  0  0  0  0  0  0  0  0
   -4.4033    4.8671    2.9011 O   0  0  0  0  0  0  0  0  0  0  0  0
   -5.5031    4.6530    3.7799 C   0  0  0  0  0  0  0  0  0  0  0  0
    1.6282   -0.9424   -0.5503 H   0  0  0  0  0  0  0  0  0  0  0  0
    1.8039    0.8512   -0.5982 H   0  0  0  0  0  0  0  0  0  0  0  0
    2.6425   -2.0425    1.3655 H   0  0  0  0  0  0  0  0  0  0  0  0
    3.4724   -1.9781    3.6997 H   0  0  0  0  0  0  0  0  0  0  0  0
    3.2464    0.0949    5.0488 H   0  0  0  0  0  0  0  0  0  0  0  0
    2.2028    2.1230    4.0509 H   0  0  0  0  0  0  0  0  0  0  0  0
   -2.3876    0.1631   -0.5306 H   0  0  0  0  0  0  0  0  0  0  0  0
   -3.8889    2.1211   -0.1338 H   0  0  0  0  0  0  0  0  0  0  0  0
   -0.5986    4.2512    1.6681 H   0  0  0  0  0  0  0  0  0  0  0  0
   -3.5310    4.8975   -0.0693 H   0  0  0  0  0  0  0  0  0  0  0  0
   -2.6512    5.3704    1.3947 H   0  0  0  0  0  0  0  0  0  0  0  0
   -6.4085    5.0909    3.3477 H   0  0  0  0  0  0  0  0  0  0  0  0
   -5.1981    5.1785    4.6924 H   0  0  0  0  0  0  0  0  0  0  0  0
   -5.6487    3.5832    3.9673 H   0  0  0  0  0  0  0  0  0  0  0  0
  1 12  1  0  0  0  0
  2  1  1  0  0  0  0
  2  3  1  0  0  0  0
  3  4  2  0  0  0  0
  3  8  1  0  0  0  0
  4  5  1  0  0  0  0
  5 25  1  0  0  0  0
  5  6  2  0  0  0  0
  6 26  1  0  0  0  0
  7  6  1  0  0  0  0
  7 27  1  0  0  0  0
  8  7  2  0  0  0  0
  9 10  2  0  0  0  0
  9  8  1  0  0  0  0
 11 16  1  0  0  0  0
 11  9  1  0  0  0  0
 12 11  2  0  0  0  0
 13 14  2  0  0  0  0
 13 12  1  0  0  0  0
 14 15  1  0  0  0  0
 15 17  1  0  0  0  0
 15 16  2  0  0  0  0
 16 30  1  0  0  0  0
 17 32  1  0  0  0  0
 17 18  1  0  0  0  0
 18 20  1  0  0  0  0
 19 18  2  0  0  0  0
 20 21  1  0  0  0  0
 21 35  1  0  0  0  0
 21 34  1  0  0  0  0
 22  2  1  0  0  0  0
 23  2  1  0  0  0  0
 24  4  1  0  0  0  0
 28 13  1  0  0  0  0
 29 14  1  0  0  0  0
 31 17  1  0  0  0  0
 33 21  1  0  0  0  0
M  END
$$$$
