35
rmsd248.gzmat
O          0.00000        0.00000        0.00000
C          1.42280        0.00000        0.00000
C          1.95060        0.00000        1.39770
C          2.54860       -1.12860        1.95270
C          3.02270       -1.08460        3.26400
C          2.90330        0.08200        4.01700
C          2.30940        1.21440        3.46070
C          1.83030        1.16560        2.15420
C          1.20370        2.37750        1.56540
O          1.77010        3.44490        1.61430
C         -0.15390        2.24870        1.00630
C         -0.66290        1.12650        0.35370
C         -2.01940        1.05930       -0.02820
C         -2.84130        2.14540        0.19870
C         -2.32960        3.31130        0.79410
C         -1.00350        3.35180        1.19800
C         -3.20890        4.50840        0.96870
C         -4.41130        4.16530        1.80370
O         -5.21190        3.28620        1.62370
O         -4.50660        5.04500        2.83330
C         -5.60600        4.86090        3.71940
H          1.62840       -0.94150       -0.55150
H          1.80150        0.85370       -0.59660
H          2.64380       -2.04360        1.37090
H          3.48910       -1.96630        3.70120
H          3.27820        0.11170        5.03860
H          2.22470        2.13590        4.03860
H         -2.39340        0.15250       -0.50000
H         -3.89860        2.10310       -0.08150
H         -0.59480        4.24840        1.67630
H         -3.55950        4.87840       -0.02440
H         -2.65100        5.36390        1.41540
H         -6.55160        4.87330        3.16640
H         -5.52620        5.72010        4.39530
H         -5.49230        3.91520        4.26050
