rmsd164.gzmat
 OpenBabel08211713393D

 35 37  0  0  0  0  0  0  0  0999 V2000
    0.0000    0.0000    0.0000 O   0  0  0  0  0  0  0  0  0  0  0  0
    1.4231    0.0000    0.0000 C   0  0  0  0  0  0  0  0  0  0  0  0
    1.9509    0.0000    1.3976 C   0  0  0  0  0  0  0  0  0  0  0  0
    2.5745   -1.1239    1.9348 C   0  0  0  0  0  0  0  0  0  0  0  0
    3.0525   -1.0907    3.2446 C   0  0  0  0  0  0  0  0  0  0  0  0
    2.9079    0.0612    4.0155 C   0  0  0  0  0  0  0  0  0  0  0  0
    2.2904    1.1892    3.4766 C   0  0  0  0  0  0  0  0  0  0  0  0
    1.8102    1.1530    2.1692 C   0  0  0  0  0  0  0  0  0  0  0  0
    1.1759    2.3709    1.6012 C   0  0  0  0  0  0  0  0  0  0  0  0
    1.7269    3.4437    1.7008 O   0  0  0  0  0  0  0  0  0  0  0  0
   -0.1635    2.2517    0.9979 C   0  0  0  0  0  0  0  0  0  0  0  0
   -0.6619    1.1365    0.3244 C   0  0  0  0  0  0  0  0  0  0  0  0
   -2.0037    1.0869   -0.1091 C   0  0  0  0  0  0  0  0  0  0  0  0
   -2.8221    2.1813    0.0903 C   0  0  0  0  0  0  0  0  0  0  0  0
   -2.3204    3.3382    0.7108 C   0  0  0  0  0  0  0  0  0  0  0  0
   -1.0096    3.3621    1.1632 C   0  0  0  0  0  0  0  0  0  0  0  0
   -3.1910    4.5448    0.8612 C   0  0  0  0  0  0  0  0  0  0  0  0
   -4.4462    4.2007    1.6140 C   0  0  0  0  0  0  0  0  0  0  0  0
   -5.2589    3.3542    1.3505 O   0  0  0  0  0  0  0  0  0  0  0  0
   -4.5720    5.0334    2.6786 O   0  0  0  0  0  0  0  0  0  0  0  0
   -5.7306    4.8516    3.4867 C   0  0  0  0  0  0  0  0  0  0  0  0
    1.6280   -0.9438   -0.5489 H   0  0  0  0  0  0  0  0  0  0  0  0
    1.8058    0.8505   -0.5977 H   0  0  0  0  0  0  0  0  0  0  0  0
    2.6865   -2.0274    1.3382 H   0  0  0  0  0  0  0  0  0  0  0  0
    3.5407   -1.9689    3.6653 H   0  0  0  0  0  0  0  0  0  0  0  0
    3.2821    0.0833    5.0376 H   0  0  0  0  0  0  0  0  0  0  0  0
    2.1902    2.1004    4.0685 H   0  0  0  0  0  0  0  0  0  0  0  0
   -2.3712    0.1876   -0.6001 H   0  0  0  0  0  0  0  0  0  0  0  0
   -3.8683    2.1525   -0.2325 H   0  0  0  0  0  0  0  0  0  0  0  0
   -0.6102    4.2533    1.6593 H   0  0  0  0  0  0  0  0  0  0  0  0
   -3.4747    4.9434   -0.1423 H   0  0  0  0  0  0  0  0  0  0  0  0
   -2.6488    5.3806    1.3619 H   0  0  0  0  0  0  0  0  0  0  0  0
   -6.6305    5.0835    2.9079 H   0  0  0  0  0  0  0  0  0  0  0  0
   -5.5803    5.5714    4.2992 H   0  0  0  0  0  0  0  0  0  0  0  0
   -5.7744    3.8253    3.8661 H   0  0  0  0  0  0  0  0  0  0  0  0
  1 12  1  0  0  0  0
  2  1  1  0  0  0  0
  2  3  1  0  0  0  0
  3  4  2  0  0  0  0
  3  8  1  0  0  0  0
  4  5  1  0  0  0  0
  5 25  1  0  0  0  0
  5  6  2  0  0  0  0
  6 26  1  0  0  0  0
  7  6  1  0  0  0  0
  7 27  1  0  0  0  0
  8  7  2  0  0  0  0
  9 10  2  0  0  0  0
  9  8  1  0  0  0  0
 11 16  1  0  0  0  0
 11  9  1  0  0  0  0
 12 11  2  0  0  0  0
 13 14  2  0  0  0  0
 13 12  1  0  0  0  0
 14 15  1  0  0  0  0
 15 17  1  0  0  0  0
 15 16  2  0  0  0  0
 16 30  1  0  0  0  0
 17 32  1  0  0  0  0
 17 18  1  0  0  0  0
 18 20  1  0  0  0  0
 19 18  2  0  0  0  0
 20 21  1  0  0  0  0
 21 35  1  0  0  0  0
 21 34  1  0  0  0  0
 22  2  1  0  0  0  0
 23  2  1  0  0  0  0
 24  4  1  0  0  0  0
 28 13  1  0  0  0  0
 29 14  1  0  0  0  0
 31 17  1  0  0  0  0
 33 21  1  0  0  0  0
M  END
$$$$
