35
rmsd249.gzmat
O          0.00000        0.00000        0.00000
C          1.42290        0.00000        0.00000
C          1.95400        0.00000        1.39650
C          2.55170       -1.13030        1.94810
C          3.03060       -1.08970        3.25790
C          2.91860        0.07660        4.01200
C          2.32480        1.21110        3.45960
C          1.83790        1.16450        2.15590
C          1.20270        2.37540        1.57440
O          1.76410        3.44530        1.61870
C         -0.16100        2.23870        1.03140
C         -0.66650        1.11940        0.36890
C         -2.02580        1.04680       -0.00380
C         -2.85770        2.11780        0.25460
C         -2.35340        3.27510        0.87220
C         -1.02110        3.32660        1.25370
C         -3.25210        4.44810        1.10580
C         -4.43140        4.02310        1.93710
O         -5.34510        3.31490        1.60490
O         -4.33750        4.57370        3.17260
C         -5.37690        4.24350        4.08890
H          1.62730       -0.94300       -0.55060
H          1.80140        0.85230       -0.59880
H          2.64170       -2.04480        1.36490
H          3.49260       -1.97510        3.69170
H          3.29600        0.10560        5.03270
H          2.24560        2.13180        4.03970
H         -2.39490        0.14710       -0.49300
H         -3.91740        2.07050       -0.01770
H         -0.61590        4.21990        1.74070
H         -3.61960        4.85370        0.13410
H         -2.71030        5.29120        1.59170
H         -6.32230        4.67980        3.75150
H         -5.03460        4.69910        5.02510
H         -5.47170        3.15650        4.18710
