46

O          0.35840        1.08470       -0.21270
C          1.46230        0.55380       -0.20910
C          2.25420        0.49320        1.02180
C          3.21460       -0.41460        1.39560
N          3.60590       -1.47200        0.60900
H          3.15670       -1.55850       -0.29630
C          4.61810       -2.37350        0.89390
C          5.00510       -3.37130       -0.00850
C          6.02570       -4.25830        0.33490
C          6.66460       -4.15230        1.57720
C          6.28550       -3.15810        2.47890
C          5.26130       -2.26380        2.14220
N          4.84360       -1.25930        2.99320
H          5.26610       -1.11360        3.93420
C          3.88490       -0.33470        2.72360
C          3.57980        0.63410        3.66540
C          4.24640        0.70160        4.94270
O          5.14900       -0.09990        5.26740
C          3.85970        1.77270        5.91930
C          2.77110        2.64110        5.73220
C          2.46670        3.61240        6.68720
C          3.24650        3.73160        7.84100
C          4.33090        2.87000        8.03850
C          4.63180        1.89770        7.08700
C          2.00040       -0.01030       -1.50200
C          1.11860       -0.67420       -2.36840
C          1.57440       -1.17820       -3.58720
C          2.90890       -0.99570       -3.96610
C          3.78640       -0.30580       -3.12330
C          3.33570        0.18160       -1.89460
H          1.90560        1.20010        1.77090
H          4.50230       -3.44160       -0.97630
H          6.32430       -5.03570       -0.37110
H          7.46290       -4.84740        1.84430
H          6.77570       -3.06300        3.45020
H          2.82640        1.37150        3.42010
H          2.14150        2.56060        4.84570
H          1.61480        4.27810        6.53010
H          3.00770        4.49400        8.58660
H          4.94220        2.95800        8.93990
H          5.46860        1.21100        7.22060
H          0.07460       -0.78210       -2.06810
H          0.88590       -1.70820       -4.24970
H          3.26370       -1.38420       -4.92370
H          4.82340       -0.14300       -3.42600
H          4.01830        0.72040       -1.23320
