
     RDKit          3D

 46 49  0  0  0  0  0  0  0  0999 V2000
   -0.0501    0.1557    0.0462 O   0  0  0  0  0  0  0  0  0  0  0  0
    1.1887    0.0081   -0.0327 C   0  0  0  0  0  0  0  0  0  0  0  0
    2.0232   -0.1061    1.1369 C   0  0  0  0  0  0  0  0  0  0  0  0
    1.5000   -0.0718    2.4197 C   0  0  0  0  0  0  0  0  0  0  0  0
    0.1620    0.0710    2.6108 N   0  0  0  0  0  0  0  0  0  0  0  0
   -0.3514    0.1495    1.7086 H   0  0  0  0  0  0  0  0  0  0  0  0
   -0.4747    0.1152    3.8347 C   0  0  0  0  0  0  0  0  0  0  0  0
   -1.8637    0.2626    3.9515 C   0  0  0  0  0  0  0  0  0  0  0  0
   -2.4520    0.3017    5.2140 C   0  0  0  0  0  0  0  0  0  0  0  0
   -1.6609    0.1942    6.3672 C   0  0  0  0  0  0  0  0  0  0  0  0
   -0.2793    0.0475    6.2608 C   0  0  0  0  0  0  0  0  0  0  0  0
    0.3214    0.0071    4.9951 C   0  0  0  0  0  0  0  0  0  0  0  0
    1.6843   -0.1358    4.8297 N   0  0  0  0  0  0  0  0  0  0  0  0
    2.3411   -0.2168    5.6333 H   0  0  0  0  0  0  0  0  0  0  0  0
    2.3357   -0.1859    3.6379 C   0  0  0  0  0  0  0  0  0  0  0  0
    3.7126   -0.3376    3.5998 C   0  0  0  0  0  0  0  0  0  0  0  0
    4.5036   -0.4456    4.7998 C   0  0  0  0  0  0  0  0  0  0  0  0
    3.9929   -0.3958    5.9396 O   0  0  0  0  0  0  0  0  0  0  0  0
    5.9910   -0.6134    4.6920 C   0  0  0  0  0  0  0  0  0  0  0  0
    6.6660   -0.8211    3.4774 C   0  0  0  0  0  0  0  0  0  0  0  0
    8.0532   -0.9732    3.4534 C   0  0  0  0  0  0  0  0  0  0  0  0
    8.7863   -0.9177    4.6421 C   0  0  0  0  0  0  0  0  0  0  0  0
    8.1239   -0.7143    5.8574 C   0  0  0  0  0  0  0  0  0  0  0  0
    6.7386   -0.5667    5.8810 C   0  0  0  0  0  0  0  0  0  0  0  0
    1.8153   -0.0396   -1.3954 C   0  0  0  0  0  0  0  0  0  0  0  0
    0.9877    0.2202   -2.5011 C   0  0  0  0  0  0  0  0  0  0  0  0
    1.5008    0.1942   -3.7963 C   0  0  0  0  0  0  0  0  0  0  0  0
    2.8520   -0.0987   -4.0090 C   0  0  0  0  0  0  0  0  0  0  0  0
    3.6838   -0.3659   -2.9180 C   0  0  0  0  0  0  0  0  0  0  0  0
    3.1701   -0.3356   -1.6206 C   0  0  0  0  0  0  0  0  0  0  0  0
    3.0952   -0.2077    1.0226 H   0  0  0  0  0  0  0  0  0  0  0  0
   -2.4682    0.3451    3.0456 H   0  0  0  0  0  0  0  0  0  0  0  0
   -3.5342    0.4165    5.3015 H   0  0  0  0  0  0  0  0  0  0  0  0
   -2.1257    0.2252    7.3545 H   0  0  0  0  0  0  0  0  0  0  0  0
    0.3482   -0.0374    7.1507 H   0  0  0  0  0  0  0  0  0  0  0  0
    4.1998   -0.3603    2.6330 H   0  0  0  0  0  0  0  0  0  0  0  0
    6.1145   -0.8788    2.5386 H   0  0  0  0  0  0  0  0  0  0  0  0
    8.5642   -1.1380    2.5019 H   0  0  0  0  0  0  0  0  0  0  0  0
    9.8725   -1.0350    4.6213 H   0  0  0  0  0  0  0  0  0  0  0  0
    8.6924   -0.6719    6.7896 H   0  0  0  0  0  0  0  0  0  0  0  0
    6.1987   -0.4121    6.8161 H   0  0  0  0  0  0  0  0  0  0  0  0
   -0.0632    0.4411   -2.3097 H   0  0  0  0  0  0  0  0  0  0  0  0
    0.8460    0.4020   -4.6460 H   0  0  0  0  0  0  0  0  0  0  0  0
    3.2563   -0.1209   -5.0239 H   0  0  0  0  0  0  0  0  0  0  0  0
    4.7386   -0.6013   -3.0781 H   0  0  0  0  0  0  0  0  0  0  0  0
    3.8360   -0.5578   -0.7863 H   0  0  0  0  0  0  0  0  0  0  0  0
  1  2  2  0
  2  3  1  0
  2 25  1  0
  3  4  2  0
  3 31  1  0
  4  5  1  0
  4 15  1  0
  5  6  1  0
  5  7  1  0
  7  8  2  0
  7 12  1  0
  8  9  1  0
  8 32  1  0
  9 10  2  0
  9 33  1  0
 10 11  1  0
 10 34  1  0
 11 12  2  0
 11 35  1  0
 12 13  1  0
 13 14  1  0
 13 15  1  0
 15 16  2  0
 16 17  1  0
 16 36  1  0
 17 18  2  0
 17 19  1  0
 19 20  2  0
 19 24  1  0
 20 21  1  0
 20 37  1  0
 21 22  2  0
 21 38  1  0
 22 23  1  0
 22 39  1  0
 23 24  2  0
 23 40  1  0
 24 41  1  0
 25 26  2  0
 25 30  1  0
 26 27  1  0
 26 42  1  0
 27 28  2  0
 27 43  1  0
 28 29  1  0
 28 44  1  0
 29 30  2  0
 29 45  1  0
 30 46  1  0
M  END

