
     RDKit          3D

 46 49  0  0  0  0  0  0  0  0999 V2000
   -0.0176    0.1119    0.0413 O   0  0  0  0  0  0  0  0  0  0  0  0
    1.2240   -0.0130   -0.0294 C   0  0  0  0  0  0  0  0  0  0  0  0
    2.0595   -0.0562    1.1444 C   0  0  0  0  0  0  0  0  0  0  0  0
    1.5375    0.0582    2.4229 C   0  0  0  0  0  0  0  0  0  0  0  0
    0.2002    0.2165    2.6058 N   0  0  0  0  0  0  0  0  0  0  0  0
   -0.3157    0.2269    1.7016 H   0  0  0  0  0  0  0  0  0  0  0  0
   -0.4351    0.3371    3.8254 C   0  0  0  0  0  0  0  0  0  0  0  0
   -1.8234    0.4961    3.9341 C   0  0  0  0  0  0  0  0  0  0  0  0
   -2.4107    0.6112    5.1925 C   0  0  0  0  0  0  0  0  0  0  0  0
   -1.6190    0.5688    6.3495 C   0  0  0  0  0  0  0  0  0  0  0  0
   -0.2381    0.4110    6.2512 C   0  0  0  0  0  0  0  0  0  0  0  0
    0.3615    0.2942    4.9897 C   0  0  0  0  0  0  0  0  0  0  0  0
    1.7240    0.1375    4.8322 N   0  0  0  0  0  0  0  0  0  0  0  0
    2.3816    0.1080    5.6387 H   0  0  0  0  0  0  0  0  0  0  0  0
    2.3744    0.0195    3.6448 C   0  0  0  0  0  0  0  0  0  0  0  0
    3.7518   -0.1296    3.6141 C   0  0  0  0  0  0  0  0  0  0  0  0
    4.5443   -0.1652    4.8176 C   0  0  0  0  0  0  0  0  0  0  0  0
    4.0361   -0.0462    5.9532 O   0  0  0  0  0  0  0  0  0  0  0  0
    6.0313   -0.3362    4.7158 C   0  0  0  0  0  0  0  0  0  0  0  0
    6.7893   -0.1595    5.8858 C   0  0  0  0  0  0  0  0  0  0  0  0
    8.1752   -0.3026    5.8640 C   0  0  0  0  0  0  0  0  0  0  0  0
    8.8269   -0.6339    4.6712 C   0  0  0  0  0  0  0  0  0  0  0  0
    8.0827   -0.8224    3.5032 C   0  0  0  0  0  0  0  0  0  0  0  0
    6.6952   -0.6731    3.5243 C   0  0  0  0  0  0  0  0  0  0  0  0
    1.8527   -0.1337   -1.3863 C   0  0  0  0  0  0  0  0  0  0  0  0
    3.2392   -0.0840   -1.6079 C   0  0  0  0  0  0  0  0  0  0  0  0
    3.7556   -0.1967   -2.8996 C   0  0  0  0  0  0  0  0  0  0  0  0
    2.8945   -0.3637   -3.9878 C   0  0  0  0  0  0  0  0  0  0  0  0
    1.5120   -0.4102   -3.7787 C   0  0  0  0  0  0  0  0  0  0  0  0
    0.9967   -0.2918   -2.4895 C   0  0  0  0  0  0  0  0  0  0  0  0
    3.1265   -0.2076    1.0366 H   0  0  0  0  0  0  0  0  0  0  0  0
   -2.4284    0.5276    3.0254 H   0  0  0  0  0  0  0  0  0  0  0  0
   -3.4924    0.7349    5.2738 H   0  0  0  0  0  0  0  0  0  0  0  0
   -2.0829    0.6595    7.3337 H   0  0  0  0  0  0  0  0  0  0  0  0
    0.3898    0.3762    7.1442 H   0  0  0  0  0  0  0  0  0  0  0  0
    4.2402   -0.1945    2.6496 H   0  0  0  0  0  0  0  0  0  0  0  0
    6.2577    0.0913    6.8046 H   0  0  0  0  0  0  0  0  0  0  0  0
    8.7525   -0.1570    6.7802 H   0  0  0  0  0  0  0  0  0  0  0  0
    9.9134   -0.7485    4.6525 H   0  0  0  0  0  0  0  0  0  0  0  0
    8.5853   -1.0902    2.5708 H   0  0  0  0  0  0  0  0  0  0  0  0
    6.1329   -0.8398    2.6050 H   0  0  0  0  0  0  0  0  0  0  0  0
    3.9284    0.0610   -0.7753 H   0  0  0  0  0  0  0  0  0  0  0  0
    4.8357   -0.1506   -3.0578 H   0  0  0  0  0  0  0  0  0  0  0  0
    3.3005   -0.4543   -4.9983 H   0  0  0  0  0  0  0  0  0  0  0  0
    0.8348   -0.5379   -4.6266 H   0  0  0  0  0  0  0  0  0  0  0  0
   -0.0775   -0.3178   -2.3016 H   0  0  0  0  0  0  0  0  0  0  0  0
  1  2  2  0
  2  3  1  0
  2 25  1  0
  3  4  2  0
  3 31  1  0
  4  5  1  0
  4 15  1  0
  5  6  1  0
  5  7  1  0
  7  8  2  0
  7 12  1  0
  8  9  1  0
  8 32  1  0
  9 10  2  0
  9 33  1  0
 10 11  1  0
 10 34  1  0
 11 12  2  0
 11 35  1  0
 12 13  1  0
 13 14  1  0
 13 15  1  0
 15 16  2  0
 16 17  1  0
 16 36  1  0
 17 18  2  0
 17 19  1  0
 19 20  2  0
 19 24  1  0
 20 21  1  0
 20 37  1  0
 21 22  2  0
 21 38  1  0
 22 23  1  0
 22 39  1  0
 23 24  2  0
 23 40  1  0
 24 41  1  0
 25 26  2  0
 25 30  1  0
 26 27  1  0
 26 42  1  0
 27 28  2  0
 27 43  1  0
 28 29  1  0
 28 44  1  0
 29 30  2  0
 29 45  1  0
 30 46  1  0
M  END

