
     RDKit          3D

 46 49  0  0  0  0  0  0  0  0999 V2000
    0.3584    1.0847   -0.2127 O   0  0  0  0  0  0  0  0  0  0  0  0
    1.4623    0.5538   -0.2091 C   0  0  0  0  0  0  0  0  0  0  0  0
    2.2542    0.4932    1.0218 C   0  0  0  0  0  0  0  0  0  0  0  0
    3.2146   -0.4146    1.3956 C   0  0  0  0  0  0  0  0  0  0  0  0
    3.6059   -1.4720    0.6090 N   0  0  0  0  0  0  0  0  0  0  0  0
    3.1567   -1.5585   -0.2963 H   0  0  0  0  0  0  0  0  0  0  0  0
    4.6181   -2.3735    0.8939 C   0  0  0  0  0  0  0  0  0  0  0  0
    5.0051   -3.3713   -0.0085 C   0  0  0  0  0  0  0  0  0  0  0  0
    6.0257   -4.2583    0.3349 C   0  0  0  0  0  0  0  0  0  0  0  0
    6.6646   -4.1523    1.5772 C   0  0  0  0  0  0  0  0  0  0  0  0
    6.2855   -3.1581    2.4789 C   0  0  0  0  0  0  0  0  0  0  0  0
    5.2613   -2.2638    2.1422 C   0  0  0  0  0  0  0  0  0  0  0  0
    4.8436   -1.2593    2.9932 N   0  0  0  0  0  0  0  0  0  0  0  0
    5.2661   -1.1136    3.9342 H   0  0  0  0  0  0  0  0  0  0  0  0
    3.8849   -0.3347    2.7236 C   0  0  0  0  0  0  0  0  0  0  0  0
    3.5798    0.6341    3.6654 C   0  0  0  0  0  0  0  0  0  0  0  0
    4.2464    0.7016    4.9427 C   0  0  0  0  0  0  0  0  0  0  0  0
    5.1490   -0.0999    5.2674 O   0  0  0  0  0  0  0  0  0  0  0  0
    3.8597    1.7727    5.9193 C   0  0  0  0  0  0  0  0  0  0  0  0
    2.7711    2.6411    5.7322 C   0  0  0  0  0  0  0  0  0  0  0  0
    2.4667    3.6124    6.6872 C   0  0  0  0  0  0  0  0  0  0  0  0
    3.2465    3.7316    7.8410 C   0  0  0  0  0  0  0  0  0  0  0  0
    4.3309    2.8700    8.0385 C   0  0  0  0  0  0  0  0  0  0  0  0
    4.6318    1.8977    7.0870 C   0  0  0  0  0  0  0  0  0  0  0  0
    2.0004   -0.0103   -1.5020 C   0  0  0  0  0  0  0  0  0  0  0  0
    1.1186   -0.6742   -2.3684 C   0  0  0  0  0  0  0  0  0  0  0  0
    1.5744   -1.1782   -3.5872 C   0  0  0  0  0  0  0  0  0  0  0  0
    2.9089   -0.9957   -3.9661 C   0  0  0  0  0  0  0  0  0  0  0  0
    3.7864   -0.3058   -3.1233 C   0  0  0  0  0  0  0  0  0  0  0  0
    3.3357    0.1816   -1.8946 C   0  0  0  0  0  0  0  0  0  0  0  0
    1.9056    1.2001    1.7709 H   0  0  0  0  0  0  0  0  0  0  0  0
    4.5023   -3.4416   -0.9763 H   0  0  0  0  0  0  0  0  0  0  0  0
    6.3243   -5.0357   -0.3711 H   0  0  0  0  0  0  0  0  0  0  0  0
    7.4629   -4.8474    1.8443 H   0  0  0  0  0  0  0  0  0  0  0  0
    6.7757   -3.0630    3.4502 H   0  0  0  0  0  0  0  0  0  0  0  0
    2.8264    1.3715    3.4201 H   0  0  0  0  0  0  0  0  0  0  0  0
    2.1415    2.5606    4.8457 H   0  0  0  0  0  0  0  0  0  0  0  0
    1.6148    4.2781    6.5301 H   0  0  0  0  0  0  0  0  0  0  0  0
    3.0077    4.4940    8.5866 H   0  0  0  0  0  0  0  0  0  0  0  0
    4.9422    2.9580    8.9399 H   0  0  0  0  0  0  0  0  0  0  0  0
    5.4686    1.2110    7.2206 H   0  0  0  0  0  0  0  0  0  0  0  0
    0.0746   -0.7821   -2.0681 H   0  0  0  0  0  0  0  0  0  0  0  0
    0.8859   -1.7082   -4.2497 H   0  0  0  0  0  0  0  0  0  0  0  0
    3.2637   -1.3842   -4.9237 H   0  0  0  0  0  0  0  0  0  0  0  0
    4.8234   -0.1430   -3.4260 H   0  0  0  0  0  0  0  0  0  0  0  0
    4.0183    0.7204   -1.2332 H   0  0  0  0  0  0  0  0  0  0  0  0
  1  2  2  0
  2  3  1  0
  2 25  1  0
  3  4  2  0
  3 31  1  0
  4  5  1  0
  4 15  1  0
  5  6  1  0
  5  7  1  0
  7  8  2  0
  7 12  1  0
  8  9  1  0
  8 32  1  0
  9 10  2  0
  9 33  1  0
 10 11  1  0
 10 34  1  0
 11 12  2  0
 11 35  1  0
 12 13  1  0
 13 14  1  0
 13 15  1  0
 15 16  2  0
 16 17  1  0
 16 36  1  0
 17 18  2  0
 17 19  1  0
 19 20  2  0
 19 24  1  0
 20 21  1  0
 20 37  1  0
 21 22  2  0
 21 38  1  0
 22 23  1  0
 22 39  1  0
 23 24  2  0
 23 40  1  0
 24 41  1  0
 25 26  2  0
 25 30  1  0
 26 27  1  0
 26 42  1  0
 27 28  2  0
 27 43  1  0
 28 29  1  0
 28 44  1  0
 29 30  2  0
 29 45  1  0
 30 46  1  0
M  END

