46

O         -0.05010        0.15570        0.04620
C          1.18870        0.00810       -0.03270
C          2.02320       -0.10610        1.13690
C          1.50000       -0.07180        2.41970
N          0.16200        0.07100        2.61080
H         -0.35140        0.14950        1.70860
C         -0.47470        0.11520        3.83470
C         -1.86370        0.26260        3.95150
C         -2.45200        0.30170        5.21400
C         -1.66090        0.19420        6.36720
C         -0.27930        0.04750        6.26080
C          0.32140        0.00710        4.99510
N          1.68430       -0.13580        4.82970
H          2.34110       -0.21680        5.63330
C          2.33570       -0.18590        3.63790
C          3.71260       -0.33760        3.59980
C          4.50360       -0.44560        4.79980
O          3.99290       -0.39580        5.93960
C          5.99100       -0.61340        4.69200
C          6.66600       -0.82110        3.47740
C          8.05320       -0.97320        3.45340
C          8.78630       -0.91770        4.64210
C          8.12390       -0.71430        5.85740
C          6.73860       -0.56670        5.88100
C          1.81530       -0.03960       -1.39540
C          0.98770        0.22020       -2.50110
C          1.50080        0.19420       -3.79630
C          2.85200       -0.09870       -4.00900
C          3.68380       -0.36590       -2.91800
C          3.17010       -0.33560       -1.62060
H          3.09520       -0.20770        1.02260
H         -2.46820        0.34510        3.04560
H         -3.53420        0.41650        5.30150
H         -2.12570        0.22520        7.35450
H          0.34820       -0.03740        7.15070
H          4.19980       -0.36030        2.63300
H          6.11450       -0.87880        2.53860
H          8.56420       -1.13800        2.50190
H          9.87250       -1.03500        4.62130
H          8.69240       -0.67190        6.78960
H          6.19870       -0.41210        6.81610
H         -0.06320        0.44110       -2.30970
H          0.84600        0.40200       -4.64600
H          3.25630       -0.12090       -5.02390
H          4.73860       -0.60130       -3.07810
H          3.83600       -0.55780       -0.78630
