46
rmsd26.gzmat
O          0.00000        0.00000        0.00000
C          1.20910        0.00000        0.00000
C          1.98680        0.00000        1.24260
C          3.04260       -0.80070        1.52750
N          3.46390       -1.78720        0.64520
H          3.04890       -1.83640       -0.28070
C          4.46860       -2.70300        0.97130
C          4.85700       -3.68760        0.05270
C          5.83400       -4.60760        0.41070
C          6.42790       -4.56060        1.67480
C          6.05900       -3.58490        2.59220
C          5.08070       -2.64470        2.24390
N          4.70700       -1.63810        3.14140
H          5.21270       -1.54130        4.04200
C          3.78870       -0.67080        2.81830
C          3.56690        0.39230        3.65430
C          4.27720        0.59210        4.89770
O          5.14700       -0.17400        5.29070
C          3.94520        1.79510        5.70380
C          2.62200        2.20530        5.86960
C          2.34150        3.33880        6.62870
C          3.38040        4.06000        7.21680
C          4.70080        3.64190        7.05830
C          4.98470        2.50280        6.30770
C          1.96250        0.03070       -1.28570
C          1.47840       -0.69610       -2.37290
C          2.17410       -0.67730       -3.57970
C          3.33780        0.08140       -3.70050
C          3.80900        0.82270       -2.61710
C          3.12120        0.79840       -1.40660
H          1.59970        0.70600        1.98210
H          4.39340       -3.73140       -0.93060
H          6.13770       -5.37500       -0.30010
H          7.18710       -5.29460        1.94190
H          6.52640       -3.54750        3.57600
H          2.84320        1.15820        3.38670
H          1.80960        1.63670        5.41650
H          1.31150        3.66220        6.76320
H          3.15830        4.94890        7.80470
H          5.50970        4.20090        7.52400
H          6.01310        2.15560        6.19310
H          0.55040       -1.26290       -2.27470
H          1.80330       -1.24500       -4.43110
H          3.87730        0.10230       -4.64610
H          4.71170        1.42260       -2.71770
H          3.48310        1.38080       -0.55770
