rmsd10.gzmat
 OpenBabel08211713403D

 46 49  0  0  0  0  0  0  0  0999 V2000
    0.0000    0.0000    0.0000 O   0  0  0  0  0  0  0  0  0  0  0  0
    1.2238    0.0000    0.0000 C   0  0  0  0  0  0  0  0  0  0  0  0
    2.0045    0.0000    1.2179 C   0  0  0  0  0  0  0  0  0  0  0  0
    1.4518    0.0807    2.4689 C   0  0  0  0  0  0  0  0  0  0  0  0
    0.0898    0.1581    2.6283 N   0  0  0  0  0  0  0  0  0  0  0  0
   -0.4989    0.1335    1.7737 H   0  0  0  0  0  0  0  0  0  0  0  0
   -0.5125    0.3091    3.8805 C   0  0  0  0  0  0  0  0  0  0  0  0
   -1.9076    0.3976    3.9947 C   0  0  0  0  0  0  0  0  0  0  0  0
   -2.4810    0.5430    5.2497 C   0  0  0  0  0  0  0  0  0  0  0  0
   -1.6807    0.6034    6.3957 C   0  0  0  0  0  0  0  0  0  0  0  0
   -0.2990    0.5196    6.2986 C   0  0  0  0  0  0  0  0  0  0  0  0
    0.2959    0.3704    5.0372 C   0  0  0  0  0  0  0  0  0  0  0  0
    1.6849    0.2783    4.9096 N   0  0  0  0  0  0  0  0  0  0  0  0
    2.2830    0.3038    5.7579 H   0  0  0  0  0  0  0  0  0  0  0  0
    2.3036    0.0878    3.6977 C   0  0  0  0  0  0  0  0  0  0  0  0
    3.6597   -0.0937    3.6256 C   0  0  0  0  0  0  0  0  0  0  0  0
    4.5219   -0.1246    4.7868 C   0  0  0  0  0  0  0  0  0  0  0  0
    4.1125    0.1106    5.9166 O   0  0  0  0  0  0  0  0  0  0  0  0
    5.9590   -0.4422    4.5861 C   0  0  0  0  0  0  0  0  0  0  0  0
    6.9087    0.2454    5.3425 C   0  0  0  0  0  0  0  0  0  0  0  0
    8.2628   -0.0358    5.1733 C   0  0  0  0  0  0  0  0  0  0  0  0
    8.6620   -1.0131    4.2628 C   0  0  0  0  0  0  0  0  0  0  0  0
    7.7096   -1.7114    3.5208 C   0  0  0  0  0  0  0  0  0  0  0  0
    6.3556   -1.4259    3.6795 C   0  0  0  0  0  0  0  0  0  0  0  0
    1.9552   -0.0176   -1.2932 C   0  0  0  0  0  0  0  0  0  0  0  0
    3.0769    0.7894   -1.4860 C   0  0  0  0  0  0  0  0  0  0  0  0
    3.7488    0.7563   -2.7053 C   0  0  0  0  0  0  0  0  0  0  0  0
    3.3024   -0.0835   -3.7254 C   0  0  0  0  0  0  0  0  0  0  0  0
    2.1738   -0.8793   -3.5346 C   0  0  0  0  0  0  0  0  0  0  0  0
    1.4918   -0.8407   -2.3200 C   0  0  0  0  0  0  0  0  0  0  0  0
    3.0823   -0.0794    1.0975 H   0  0  0  0  0  0  0  0  0  0  0  0
   -2.5315    0.3517    3.1025 H   0  0  0  0  0  0  0  0  0  0  0  0
   -3.5643    0.6106    5.3452 H   0  0  0  0  0  0  0  0  0  0  0  0
   -2.1489    0.7164    7.3733 H   0  0  0  0  0  0  0  0  0  0  0  0
    0.3215    0.5673    7.1931 H   0  0  0  0  0  0  0  0  0  0  0  0
    4.1472   -0.2150    2.6611 H   0  0  0  0  0  0  0  0  0  0  0  0
    6.5842    0.9944    6.0674 H   0  0  0  0  0  0  0  0  0  0  0  0
    9.0065    0.5046    5.7553 H   0  0  0  0  0  0  0  0  0  0  0  0
    9.7199   -1.2344    4.1325 H   0  0  0  0  0  0  0  0  0  0  0  0
    8.0249   -2.4799    2.8184 H   0  0  0  0  0  0  0  0  0  0  0  0
    5.6101   -1.9764    3.1046 H   0  0  0  0  0  0  0  0  0  0  0  0
    3.4202    1.4498   -0.6891 H   0  0  0  0  0  0  0  0  0  0  0  0
    4.6212    1.3867   -2.8633 H   0  0  0  0  0  0  0  0  0  0  0  0
    3.8336   -0.1133   -4.6754 H   0  0  0  0  0  0  0  0  0  0  0  0
    1.8226   -1.5267   -4.3356 H   0  0  0  0  0  0  0  0  0  0  0  0
    0.5955   -1.4445   -2.1666 H   0  0  0  0  0  0  0  0  0  0  0  0
  1  2  2  0  0  0  0
  2  3  1  0  0  0  0
  3  4  1  0  0  0  0
  4  5  1  0  0  0  0
  4 15  2  0  0  0  0
  5  7  1  0  0  0  0
  6  5  1  0  0  0  0
  7  8  2  0  0  0  0
  7 12  1  0  0  0  0
  8  9  1  0  0  0  0
  9 33  1  0  0  0  0
  9 10  2  0  0  0  0
 10 34  1  0  0  0  0
 11 10  1  0  0  0  0
 11 35  1  0  0  0  0
 12 11  2  0  0  0  0
 13 12  1  0  0  0  0
 13 14  1  0  0  0  0
 15 13  1  0  0  0  0
 16 15  1  0  0  0  0
 16 17  1  0  0  0  0
 17 18  2  0  0  0  0
 19 17  1  0  0  0  0
 19 20  2  0  0  0  0
 20 37  1  0  0  0  0
 21 20  1  0  0  0  0
 21 38  1  0  0  0  0
 22 21  2  0  0  0  0
 23 24  2  0  0  0  0
 23 22  1  0  0  0  0
 24 19  1  0  0  0  0
 25  2  1  0  0  0  0
 26 25  1  0  0  0  0
 26 42  1  0  0  0  0
 27 26  2  0  0  0  0
 28 29  2  0  0  0  0
 28 27  1  0  0  0  0
 29 30  1  0  0  0  0
 30 46  1  0  0  0  0
 30 25  2  0  0  0  0
 31  3  1  0  0  0  0
 32  8  1  0  0  0  0
 36 16  1  0  0  0  0
 39 22  1  0  0  0  0
 40 23  1  0  0  0  0
 41 24  1  0  0  0  0
 43 27  1  0  0  0  0
 44 28  1  0  0  0  0
 45 29  1  0  0  0  0
M  RAD  2   3   2  16   2
M  END
$$$$
