46
rmsd23.gzmat
O          0.00000        0.00000        0.00000
C          1.22450        0.00000        0.00000
C          1.99940        0.00000        1.22110
C          1.44430       -0.06550        2.47170
N          0.08080       -0.10650        2.63340
H         -0.50700       -0.09240        1.77790
C         -0.52490       -0.18090        3.89100
C         -1.92140       -0.23660        4.01190
C         -2.49470       -0.30480        5.27360
C         -1.69420       -0.32000        6.42100
C         -0.31190       -0.26550        6.31840
C          0.28290       -0.19430        5.05020
N          1.67340       -0.13670        4.92020
H          2.27160       -0.16560        5.76910
C          2.30060       -0.09960        3.69940
C          3.66920       -0.10030        3.61830
C          4.53350       -0.16890        4.77540
O          4.09860       -0.22910        5.91880
C          6.00340       -0.20320        4.56120
C          6.61620        0.59870        3.59850
C          7.99830        0.54340        3.43280
C          8.76350       -0.31290        4.22430
C          8.14990       -1.10820        5.19100
C          6.76920       -1.04930        5.36570
C          1.95130        0.01760       -1.29560
C          1.39300        0.72270       -2.36290
C          2.05400        0.76280       -3.58880
C          3.26430        0.08960       -3.74910
C          3.81210       -0.62960       -2.68720
C          3.15610       -0.66830       -1.45910
H          3.07810        0.07000        1.10610
H         -2.54740       -0.22610        3.12020
H         -3.57890       -0.34730        5.37390
H         -2.16230       -0.37520        7.40330
H          0.31090       -0.27810        7.21250
H          4.16190       -0.07250        2.64980
H          6.01980        1.27400        2.98490
H          8.48270        1.16940        2.68630
H          9.84300       -0.35710        4.08970
H          8.74880       -1.77050        5.81270
H          6.28090       -1.65390        6.13260
H          0.43650        1.23340       -2.23110
H          1.62350        1.31520       -4.42160
H          3.78030        0.12080       -4.70730
H          4.75130       -1.16240       -2.81890
H          3.57930       -1.24210       -0.63400
