46
rmsd17.gzmat
O          0.00000        0.00000        0.00000
C          1.22400        0.00000        0.00000
C          2.00350        0.00000        1.21800
C          1.44780        0.07070        2.46860
N          0.08520        0.14070        2.62510
H         -0.50100        0.11390        1.76830
C         -0.51950        0.30530        3.87440
C         -1.91410        0.40560        3.98470
C         -2.48920        0.57090        5.23620
C         -1.69130        0.63980        6.38370
C         -0.31040        0.54160        6.29130
C          0.28630        0.37130        5.03320
N          1.67450        0.26270        4.91140
H          2.26880        0.27090        5.76340
C          2.29670        0.07370        3.70160
C          3.65340       -0.10840        3.63340
C          4.51020       -0.13860        4.79760
O          4.08000        0.01900        5.93340
C          5.95860       -0.40710        4.60500
C          6.66750        0.15050        3.54110
C          8.02500       -0.12720        3.39660
C          8.66890       -0.96150        4.31010
C          7.96040       -1.51050        5.37780
C          6.60510       -1.22740        5.53090
C          1.95090       -0.01740       -1.29570
C          3.06560        0.79570       -1.50060
C          3.72130        0.76900       -2.72910
C          3.26710       -0.07130       -3.74520
C          2.14750       -0.87620       -3.54060
C          1.48220       -0.84450       -2.31670
H          3.08140       -0.07510        1.09920
H         -2.53650        0.35540        3.09190
H         -3.57200        0.64870        5.32760
H         -2.16080        0.77180        7.35820
H          0.30940        0.59500        7.18580
H          4.13630       -0.26970        2.67270
H          6.16770        0.80820        2.83030
H          8.58390        0.30700        2.57060
H          9.72820       -1.18210        4.19050
H          8.46520       -2.15610        6.09370
H          6.04380       -1.63600        6.37370
H          3.41560        1.45710       -0.70810
H          4.58690        1.40570       -2.89710
H          3.78650       -0.09560       -4.70160
H          1.78880       -1.52480       -4.33730
H          0.59310       -1.45600       -2.15260
