rmsd17.gzmat
 OpenBabel08211713403D

 46 49  0  0  0  0  0  0  0  0999 V2000
    0.0000    0.0000    0.0000 O   0  0  0  0  0  0  0  0  0  0  0  0
    1.2240    0.0000    0.0000 C   0  0  0  0  0  0  0  0  0  0  0  0
    2.0035    0.0000    1.2180 C   0  0  0  0  0  0  0  0  0  0  0  0
    1.4478    0.0707    2.4686 C   0  0  0  0  0  0  0  0  0  0  0  0
    0.0852    0.1407    2.6251 N   0  0  0  0  0  0  0  0  0  0  0  0
   -0.5010    0.1139    1.7683 H   0  0  0  0  0  0  0  0  0  0  0  0
   -0.5195    0.3053    3.8744 C   0  0  0  0  0  0  0  0  0  0  0  0
   -1.9141    0.4056    3.9847 C   0  0  0  0  0  0  0  0  0  0  0  0
   -2.4892    0.5709    5.2362 C   0  0  0  0  0  0  0  0  0  0  0  0
   -1.6913    0.6398    6.3837 C   0  0  0  0  0  0  0  0  0  0  0  0
   -0.3104    0.5416    6.2913 C   0  0  0  0  0  0  0  0  0  0  0  0
    0.2863    0.3713    5.0332 C   0  0  0  0  0  0  0  0  0  0  0  0
    1.6745    0.2627    4.9114 N   0  0  0  0  0  0  0  0  0  0  0  0
    2.2688    0.2709    5.7634 H   0  0  0  0  0  0  0  0  0  0  0  0
    2.2967    0.0737    3.7016 C   0  0  0  0  0  0  0  0  0  0  0  0
    3.6534   -0.1084    3.6334 C   0  0  0  0  0  0  0  0  0  0  0  0
    4.5102   -0.1386    4.7976 C   0  0  0  0  0  0  0  0  0  0  0  0
    4.0800    0.0190    5.9334 O   0  0  0  0  0  0  0  0  0  0  0  0
    5.9586   -0.4071    4.6050 C   0  0  0  0  0  0  0  0  0  0  0  0
    6.6675    0.1505    3.5411 C   0  0  0  0  0  0  0  0  0  0  0  0
    8.0250   -0.1272    3.3966 C   0  0  0  0  0  0  0  0  0  0  0  0
    8.6689   -0.9615    4.3101 C   0  0  0  0  0  0  0  0  0  0  0  0
    7.9604   -1.5105    5.3778 C   0  0  0  0  0  0  0  0  0  0  0  0
    6.6051   -1.2274    5.5309 C   0  0  0  0  0  0  0  0  0  0  0  0
    1.9509   -0.0174   -1.2957 C   0  0  0  0  0  0  0  0  0  0  0  0
    3.0656    0.7957   -1.5006 C   0  0  0  0  0  0  0  0  0  0  0  0
    3.7213    0.7690   -2.7291 C   0  0  0  0  0  0  0  0  0  0  0  0
    3.2671   -0.0713   -3.7452 C   0  0  0  0  0  0  0  0  0  0  0  0
    2.1475   -0.8762   -3.5406 C   0  0  0  0  0  0  0  0  0  0  0  0
    1.4822   -0.8445   -2.3167 C   0  0  0  0  0  0  0  0  0  0  0  0
    3.0814   -0.0751    1.0992 H   0  0  0  0  0  0  0  0  0  0  0  0
   -2.5365    0.3554    3.0919 H   0  0  0  0  0  0  0  0  0  0  0  0
   -3.5720    0.6487    5.3276 H   0  0  0  0  0  0  0  0  0  0  0  0
   -2.1608    0.7718    7.3582 H   0  0  0  0  0  0  0  0  0  0  0  0
    0.3094    0.5950    7.1858 H   0  0  0  0  0  0  0  0  0  0  0  0
    4.1363   -0.2697    2.6727 H   0  0  0  0  0  0  0  0  0  0  0  0
    6.1677    0.8082    2.8303 H   0  0  0  0  0  0  0  0  0  0  0  0
    8.5839    0.3070    2.5706 H   0  0  0  0  0  0  0  0  0  0  0  0
    9.7282   -1.1821    4.1905 H   0  0  0  0  0  0  0  0  0  0  0  0
    8.4652   -2.1561    6.0937 H   0  0  0  0  0  0  0  0  0  0  0  0
    6.0438   -1.6360    6.3737 H   0  0  0  0  0  0  0  0  0  0  0  0
    3.4156    1.4571   -0.7081 H   0  0  0  0  0  0  0  0  0  0  0  0
    4.5869    1.4057   -2.8971 H   0  0  0  0  0  0  0  0  0  0  0  0
    3.7865   -0.0956   -4.7016 H   0  0  0  0  0  0  0  0  0  0  0  0
    1.7888   -1.5248   -4.3373 H   0  0  0  0  0  0  0  0  0  0  0  0
    0.5931   -1.4560   -2.1526 H   0  0  0  0  0  0  0  0  0  0  0  0
  1  2  2  0  0  0  0
  2  3  1  0  0  0  0
  3  4  1  0  0  0  0
  4  5  1  0  0  0  0
  4 15  2  0  0  0  0
  5  7  1  0  0  0  0
  6  5  1  0  0  0  0
  7  8  2  0  0  0  0
  7 12  1  0  0  0  0
  8  9  1  0  0  0  0
  9 33  1  0  0  0  0
  9 10  2  0  0  0  0
 10 34  1  0  0  0  0
 11 10  1  0  0  0  0
 11 35  1  0  0  0  0
 12 11  2  0  0  0  0
 13 12  1  0  0  0  0
 13 14  1  0  0  0  0
 15 13  1  0  0  0  0
 16 15  1  0  0  0  0
 16 17  1  0  0  0  0
 17 18  2  0  0  0  0
 19 17  1  0  0  0  0
 19 24  2  0  0  0  0
 20 19  1  0  0  0  0
 21 20  2  0  0  0  0
 21 22  1  0  0  0  0
 22 23  2  0  0  0  0
 23 24  1  0  0  0  0
 23 40  1  0  0  0  0
 24 41  1  0  0  0  0
 25  2  1  0  0  0  0
 26 25  1  0  0  0  0
 26 42  1  0  0  0  0
 27 26  2  0  0  0  0
 28 29  2  0  0  0  0
 28 27  1  0  0  0  0
 29 30  1  0  0  0  0
 30 46  1  0  0  0  0
 30 25  2  0  0  0  0
 31  3  1  0  0  0  0
 32  8  1  0  0  0  0
 36 16  1  0  0  0  0
 37 20  1  0  0  0  0
 38 21  1  0  0  0  0
 39 22  1  0  0  0  0
 43 27  1  0  0  0  0
 44 28  1  0  0  0  0
 45 29  1  0  0  0  0
M  RAD  2   3   2  16   2
M  END
$$$$
