46

O         -0.01760        0.11190        0.04130
C          1.22400       -0.01300       -0.02940
C          2.05950       -0.05620        1.14440
C          1.53750        0.05820        2.42290
N          0.20020        0.21650        2.60580
H         -0.31570        0.22690        1.70160
C         -0.43510        0.33710        3.82540
C         -1.82340        0.49610        3.93410
C         -2.41070        0.61120        5.19250
C         -1.61900        0.56880        6.34950
C         -0.23810        0.41100        6.25120
C          0.36150        0.29420        4.98970
N          1.72400        0.13750        4.83220
H          2.38160        0.10800        5.63870
C          2.37440        0.01950        3.64480
C          3.75180       -0.12960        3.61410
C          4.54430       -0.16520        4.81760
O          4.03610       -0.04620        5.95320
C          6.03130       -0.33620        4.71580
C          6.78930       -0.15950        5.88580
C          8.17520       -0.30260        5.86400
C          8.82690       -0.63390        4.67120
C          8.08270       -0.82240        3.50320
C          6.69520       -0.67310        3.52430
C          1.85270       -0.13370       -1.38630
C          3.23920       -0.08400       -1.60790
C          3.75560       -0.19670       -2.89960
C          2.89450       -0.36370       -3.98780
C          1.51200       -0.41020       -3.77870
C          0.99670       -0.29180       -2.48950
H          3.12650       -0.20760        1.03660
H         -2.42840        0.52760        3.02540
H         -3.49240        0.73490        5.27380
H         -2.08290        0.65950        7.33370
H          0.38980        0.37620        7.14420
H          4.24020       -0.19450        2.64960
H          6.25770        0.09130        6.80460
H          8.75250       -0.15700        6.78020
H          9.91340       -0.74850        4.65250
H          8.58530       -1.09020        2.57080
H          6.13290       -0.83980        2.60500
H          3.92840        0.06100       -0.77530
H          4.83570       -0.15060       -3.05780
H          3.30050       -0.45430       -4.99830
H          0.83480       -0.53790       -4.62660
H         -0.07750       -0.31780       -2.30160
