46
rmsd13.gzmat
S          0.00000        0.00000        0.00000
O          1.44480        0.00000        0.00000
O         -0.77160        0.00000       -1.22010
N         -0.51200        1.41000        0.90140
C         -1.53560        2.29030        0.32260
C         -2.31360        2.94160        1.43730
C         -3.62290        3.36880        1.21710
C         -4.33310        3.98580        2.24480
C         -3.74560        4.17410        3.49590
C         -2.43990        3.74610        3.71930
C         -1.72160        3.13700        2.68920
C         -0.33370        2.69800        2.93880
O          0.19150        2.78230        4.02030
C          0.45400        2.10970        1.75080
H          1.18190        1.35580        2.17840
C          1.24060        3.19680        1.05280
C          0.80870        4.52340        1.03990
C          1.57090        5.50080        0.40390
C          2.76570        5.15640       -0.22520
C          3.19410        3.83030       -0.22170
C          2.43470        2.85210        0.41510
C         -0.55700       -1.27930        1.05610
C         -1.85890       -1.76560        0.94190
C         -2.31580       -2.74110        1.82270
C         -1.47170       -3.23720        2.82190
C         -0.16250       -2.75850        2.92140
C          0.29430       -1.78400        2.03830
C         -1.97900       -4.26840        3.76860
H         -2.21600        1.69880       -0.34050
H         -1.08770        3.08430       -0.32890
H         -4.09200        3.21960        0.24720
H         -5.35490        4.32210        2.07050
H         -4.30700        4.65270        4.29540
H         -1.96760        3.88170        4.69640
H         -0.12020        4.81070        1.53060
H          1.23260        6.53480        0.40260
H          3.36250        5.92130       -0.71750
H          4.12390        3.55560       -0.71610
H          2.77320        1.81000        0.40230
H         -2.53270       -1.39230        0.16360
H         -3.33230       -3.11710        1.73850
H          0.50190       -3.14310        3.69170
H          1.32820       -1.42830        2.12600
H         -2.32470       -5.16800        3.23690
H         -2.83480       -3.89100        4.35030
H         -1.22230       -4.59680        4.49410
