46
rmsd121.gzmat
S          0.00000        0.00000        0.00000
O          1.44410        0.00000        0.00000
O         -0.76040        0.00000       -1.22730
N         -0.47800        1.42260        0.91050
C         -1.69010        2.12860        0.46650
C         -2.25600        2.93330        1.60690
C         -3.60730        3.27960        1.60530
C         -4.12960        4.04120        2.64820
C         -3.31130        4.45580        3.69930
C         -1.96270        4.11070        3.70400
C         -1.43310        3.35780        2.65480
C          0.00470        3.02170        2.65890
O          0.73130        3.27950        3.58530
C          0.57220        2.31600        1.41280
H          1.45030        1.68640        1.75870
C          1.07030        3.33300        0.41090
C          0.48550        4.59380        0.28810
C          0.97200        5.50360       -0.64800
C          2.04590        5.15780       -1.46550
C          2.63350        3.89990       -1.34280
C          2.14810        2.98900       -0.40810
C         -0.59810       -1.29140        1.02170
C         -0.28990       -1.31780        2.38260
C         -0.77850       -2.34220        3.18740
C         -1.57270       -3.35310        2.63560
C         -1.87680       -3.32410        1.27220
C         -1.39340       -2.29410        0.46920
C         -2.08520       -4.44830        3.50520
H         -2.44320        1.38490        0.10450
H         -1.49030        2.80830       -0.40260
H         -4.25450        2.95530        0.79300
H         -5.18480        4.31400        2.64390
H         -3.72620        5.04770        4.51250
H         -1.30940        4.42640        4.52210
H         -0.34950        4.88330        0.92440
H          0.51300        6.48600       -0.73740
H          2.42570        5.86860       -2.19640
H          3.47410        3.62690       -1.97790
H          2.60900        1.99810       -0.32450
H          0.32780       -0.53710        2.83830
H         -0.54390       -2.35620        4.24960
H         -2.49410       -4.10490        0.83550
H         -1.65240       -2.28510       -0.59670
H         -2.74610       -5.14680        2.97410
H         -2.65870       -4.05280        4.35760
H         -1.26000       -5.04620        3.92350
