rmsd106.gzmat
 OpenBabel08211713393D

 46 49  0  0  1  0  0  0  0  0999 V2000
    0.0000    0.0000    0.0000 S   0  0  0  0  0  0  0  0  0  0  0  0
    1.4452    0.0000    0.0000 O   0  0  0  0  0  0  0  0  0  0  0  0
   -0.7734    0.0000   -1.2192 O   0  0  0  0  0  0  0  0  0  0  0  0
   -0.4998    1.4245    0.8960 N   0  0  0  0  0  0  0  0  0  0  0  0
   -1.6156    2.2073    0.3406 C   0  0  0  0  0  0  0  0  0  0  0  0
   -2.2434    3.0550    1.4160 C   0  0  0  0  0  0  0  0  0  0  0  0
   -3.5495    3.5178    1.2535 C   0  0  0  0  0  0  0  0  0  0  0  0
   -4.1242    4.3311    2.2275 C   0  0  0  0  0  0  0  0  0  0  0  0
   -3.4033    4.6864    3.3677 C   0  0  0  0  0  0  0  0  0  0  0  0
   -2.1015    4.2225    3.5350 C   0  0  0  0  0  0  0  0  0  0  0  0
   -1.5209    3.4122    2.5579 C   0  0  0  0  0  0  0  0  0  0  0  0
   -0.1316    2.9433    2.7344 C   0  0  0  0  0  0  0  0  0  0  0  0
    0.4816    3.0864    3.7615 O   0  0  0  0  0  0  0  0  0  0  0  0
    0.5352    2.2474    1.5325 C   0  0  2  0  0  0  0  0  0  0  0  0
    1.3383    1.5650    1.9480 H   0  0  0  0  0  0  0  0  0  0  0  0
    1.1882    3.2652    0.6233 C   0  0  0  0  0  0  0  0  0  0  0  0
    0.6773    4.5544    0.4695 C   0  0  0  0  0  0  0  0  0  0  0  0
    1.3070    5.4626   -0.3785 C   0  0  0  0  0  0  0  0  0  0  0  0
    2.4485    5.0850   -1.0821 C   0  0  0  0  0  0  0  0  0  0  0  0
    2.9596    3.7971   -0.9331 C   0  0  0  0  0  0  0  0  0  0  0  0
    2.3359    2.8906   -0.0795 C   0  0  0  0  0  0  0  0  0  0  0  0
   -0.5581   -1.2981    1.0318 C   0  0  0  0  0  0  0  0  0  0  0  0
   -1.8254   -1.8480    0.8396 C   0  0  0  0  0  0  0  0  0  0  0  0
   -2.2660   -2.8825    1.6597 C   0  0  0  0  0  0  0  0  0  0  0  0
   -1.4407   -3.3734    2.6769 C   0  0  0  0  0  0  0  0  0  0  0  0
   -0.1717   -2.8190    2.8655 C   0  0  0  0  0  0  0  0  0  0  0  0
    0.2687   -1.7845    2.0443 C   0  0  0  0  0  0  0  0  0  0  0  0
   -1.9183   -4.4758    3.5569 C   0  0  0  0  0  0  0  0  0  0  0  0
   -2.3757    1.5114   -0.0960 H   0  0  0  0  0  0  0  0  0  0  0  0
   -1.2866    2.8693   -0.5026 H   0  0  0  0  0  0  0  0  0  0  0  0
   -4.1200    3.2463    0.3681 H   0  0  0  0  0  0  0  0  0  0  0  0
   -5.1446    4.6908    2.0981 H   0  0  0  0  0  0  0  0  0  0  0  0
   -3.8573    5.3233    4.1239 H   0  0  0  0  0  0  0  0  0  0  0  0
   -1.5244    4.4872    4.4255 H   0  0  0  0  0  0  0  0  0  0  0  0
   -0.2138    4.8695    1.0106 H   0  0  0  0  0  0  0  0  0  0  0  0
    0.9052    6.4676   -0.4893 H   0  0  0  0  0  0  0  0  0  0  0  0
    2.9393    5.7937   -1.7457 H   0  0  0  0  0  0  0  0  0  0  0  0
    3.8470    3.4976   -1.4868 H   0  0  0  0  0  0  0  0  0  0  0  0
    2.7425    1.8782    0.0275 H   0  0  0  0  0  0  0  0  0  0  0  0
   -2.4824   -1.4834    0.0417 H   0  0  0  0  0  0  0  0  0  0  0  0
   -3.2537   -3.3114    1.5093 H   0  0  0  0  0  0  0  0  0  0  0  0
    0.4740   -3.1956    3.6556 H   0  0  0  0  0  0  0  0  0  0  0  0
    1.2714   -1.3697    2.2027 H   0  0  0  0  0  0  0  0  0  0  0  0
   -1.1051   -4.9565    4.1187 H   0  0  0  0  0  0  0  0  0  0  0  0
   -2.4243   -5.2696    2.9882 H   0  0  0  0  0  0  0  0  0  0  0  0
   -2.6409   -4.1020    4.3000 H   0  0  0  0  0  0  0  0  0  0  0  0
  1  4  1  0  0  0  0
  1 22  1  0  0  0  0
  2  1  2  0  0  0  0
  3  1  2  0  0  0  0
  4 14  1  0  0  0  0
  5  4  1  0  0  0  0
  5  6  1  0  0  0  0
  6 11  1  0  0  0  0
  7  6  2  0  0  0  0
  7  8  1  0  0  0  0
  8  9  2  0  0  0  0
  9 10  1  0  0  0  0
  9 33  1  0  0  0  0
 10 34  1  0  0  0  0
 11 12  1  0  0  0  0
 11 10  2  0  0  0  0
 12 13  2  0  0  0  0
 14 15  1  1  0  0  0
 14 12  1  0  0  0  0
 16 14  1  0  0  0  0
 17 16  1  0  0  0  0
 17 35  1  0  0  0  0
 18 17  2  0  0  0  0
 19 20  2  0  0  0  0
 19 18  1  0  0  0  0
 20 21  1  0  0  0  0
 21 39  1  0  0  0  0
 21 16  2  0  0  0  0
 22 27  1  0  0  0  0
 23 22  2  0  0  0  0
 23 24  1  0  0  0  0
 24 25  2  0  0  0  0
 25 26  1  0  0  0  0
 25 28  1  0  0  0  0
 26 42  1  0  0  0  0
 27 43  1  0  0  0  0
 27 26  2  0  0  0  0
 28 44  1  0  0  0  0
 28 46  1  0  0  0  0
 29  5  1  0  0  0  0
 30  5  1  0  0  0  0
 31  7  1  0  0  0  0
 32  8  1  0  0  0  0
 36 18  1  0  0  0  0
 37 19  1  0  0  0  0
 38 20  1  0  0  0  0
 40 23  1  0  0  0  0
 41 24  1  0  0  0  0
 45 28  1  0  0  0  0
M  END
$$$$
