rmsd114.gzmat
 OpenBabel08211713393D

 46 49  0  0  1  0  0  0  0  0999 V2000
    0.0000    0.0000    0.0000 S   0  0  0  0  0  0  0  0  0  0  0  0
    1.4453    0.0000    0.0000 O   0  0  0  0  0  0  0  0  0  0  0  0
   -0.7764    0.0000   -1.2173 O   0  0  0  0  0  0  0  0  0  0  0  0
   -0.5003    1.4393    0.8858 N   0  0  0  0  0  0  0  0  0  0  0  0
   -1.6681    2.1438    0.3249 C   0  0  0  0  0  0  0  0  0  0  0  0
   -2.2194    3.1414    1.3073 C   0  0  0  0  0  0  0  0  0  0  0  0
   -3.5433    3.5662    1.1842 C   0  0  0  0  0  0  0  0  0  0  0  0
   -4.0542    4.5140    2.0675 C   0  0  0  0  0  0  0  0  0  0  0  0
   -3.2512    5.0433    3.0781 C   0  0  0  0  0  0  0  0  0  0  0  0
   -1.9310    4.6210    3.2045 C   0  0  0  0  0  0  0  0  0  0  0  0
   -1.4145    3.6747    2.3173 C   0  0  0  0  0  0  0  0  0  0  0  0
   -0.0080    3.2477    2.4500 C   0  0  0  0  0  0  0  0  0  0  0  0
    0.6929    3.5967    3.3663 O   0  0  0  0  0  0  0  0  0  0  0  0
    0.5677    2.3354    1.3521 C   0  0  2  0  0  0  0  0  0  0  0  0
    1.3663    1.6970    1.8433 H   0  0  0  0  0  0  0  0  0  0  0  0
    1.2060    3.1800    0.2712 C   0  0  0  0  0  0  0  0  0  0  0  0
    0.6353    4.3776   -0.1614 C   0  0  0  0  0  0  0  0  0  0  0  0
    1.2370    5.1121   -1.1808 C   0  0  0  0  0  0  0  0  0  0  0  0
    2.4148    4.6566   -1.7697 C   0  0  0  0  0  0  0  0  0  0  0  0
    2.9950    3.4686   -1.3301 C   0  0  0  0  0  0  0  0  0  0  0  0
    2.3947    2.7330   -0.3112 C   0  0  0  0  0  0  0  0  0  0  0  0
   -0.5414   -1.3228    1.0103 C   0  0  0  0  0  0  0  0  0  0  0  0
   -1.8203   -1.8538    0.8446 C   0  0  0  0  0  0  0  0  0  0  0  0
   -2.2272   -2.9416    1.6112 C   0  0  0  0  0  0  0  0  0  0  0  0
   -1.3564   -3.5052    2.5499 C   0  0  0  0  0  0  0  0  0  0  0  0
   -0.0786   -2.9648    2.7178 C   0  0  0  0  0  0  0  0  0  0  0  0
    0.3275   -1.8772    1.9490 C   0  0  0  0  0  0  0  0  0  0  0  0
   -1.7982   -4.6705    3.3651 C   0  0  0  0  0  0  0  0  0  0  0  0
   -2.4543    1.3905    0.0649 H   0  0  0  0  0  0  0  0  0  0  0  0
   -1.4243    2.6712   -0.6351 H   0  0  0  0  0  0  0  0  0  0  0  0
   -4.1778    3.1598    0.3997 H   0  0  0  0  0  0  0  0  0  0  0  0
   -5.0881    4.8437    1.9690 H   0  0  0  0  0  0  0  0  0  0  0  0
   -3.6559    5.7838    3.7650 H   0  0  0  0  0  0  0  0  0  0  0  0
   -1.2893    5.0253    3.9927 H   0  0  0  0  0  0  0  0  0  0  0  0
   -0.2793    4.7530    0.2943 H   0  0  0  0  0  0  0  0  0  0  0  0
    0.7843    6.0423   -1.5180 H   0  0  0  0  0  0  0  0  0  0  0  0
    2.8796    5.2272   -2.5709 H   0  0  0  0  0  0  0  0  0  0  0  0
    3.9160    3.1090   -1.7847 H   0  0  0  0  0  0  0  0  0  0  0  0
    2.8498    1.7921    0.0169 H   0  0  0  0  0  0  0  0  0  0  0  0
   -2.5119   -1.4353    0.1054 H   0  0  0  0  0  0  0  0  0  0  0  0
   -3.2223   -3.3585    1.4771 H   0  0  0  0  0  0  0  0  0  0  0  0
    0.6030   -3.3962    3.4472 H   0  0  0  0  0  0  0  0  0  0  0  0
    1.3398   -1.4769    2.0849 H   0  0  0  0  0  0  0  0  0  0  0  0
   -0.9637   -5.1925    3.8541 H   0  0  0  0  0  0  0  0  0  0  0  0
   -2.3302   -5.4193    2.7598 H   0  0  0  0  0  0  0  0  0  0  0  0
   -2.4887   -4.3537    4.1631 H   0  0  0  0  0  0  0  0  0  0  0  0
  1  4  1  0  0  0  0
  1 22  1  0  0  0  0
  2  1  2  0  0  0  0
  3  1  2  0  0  0  0
  4 14  1  0  0  0  0
  5  4  1  0  0  0  0
  5  6  1  0  0  0  0
  6 11  1  0  0  0  0
  7  6  2  0  0  0  0
  7  8  1  0  0  0  0
  8  9  2  0  0  0  0
  9 10  1  0  0  0  0
  9 33  1  0  0  0  0
 10 34  1  0  0  0  0
 11 12  1  0  0  0  0
 11 10  2  0  0  0  0
 12 13  2  0  0  0  0
 14 15  1  1  0  0  0
 14 12  1  0  0  0  0
 16 14  1  0  0  0  0
 17 16  1  0  0  0  0
 17 35  1  0  0  0  0
 18 17  2  0  0  0  0
 19 20  2  0  0  0  0
 19 18  1  0  0  0  0
 20 21  1  0  0  0  0
 21 39  1  0  0  0  0
 21 16  2  0  0  0  0
 22 27  1  0  0  0  0
 23 22  2  0  0  0  0
 23 24  1  0  0  0  0
 24 25  2  0  0  0  0
 25 26  1  0  0  0  0
 25 28  1  0  0  0  0
 26 42  1  0  0  0  0
 27 43  1  0  0  0  0
 27 26  2  0  0  0  0
 28 44  1  0  0  0  0
 28 46  1  0  0  0  0
 29  5  1  0  0  0  0
 30  5  1  0  0  0  0
 31  7  1  0  0  0  0
 32  8  1  0  0  0  0
 36 18  1  0  0  0  0
 37 19  1  0  0  0  0
 38 20  1  0  0  0  0
 40 23  1  0  0  0  0
 41 24  1  0  0  0  0
 45 28  1  0  0  0  0
M  END
$$$$
