rmsd86.gzmat
 OpenBabel08211713393D

 46 49  0  0  1  0  0  0  0  0999 V2000
    0.0000    0.0000    0.0000 S   0  0  0  0  0  0  0  0  0  0  0  0
    1.4449    0.0000    0.0000 O   0  0  0  0  0  0  0  0  0  0  0  0
   -0.7723    0.0000   -1.2198 O   0  0  0  0  0  0  0  0  0  0  0  0
   -0.5056    1.4144    0.9004 N   0  0  0  0  0  0  0  0  0  0  0  0
   -1.5704    2.2592    0.3413 C   0  0  0  0  0  0  0  0  0  0  0  0
   -2.3002    2.9501    1.4644 C   0  0  0  0  0  0  0  0  0  0  0  0
   -3.6157    3.3756    1.2810 C   0  0  0  0  0  0  0  0  0  0  0  0
   -4.2873    4.0198    2.3178 C   0  0  0  0  0  0  0  0  0  0  0  0
   -3.6530    4.2424    3.5400 C   0  0  0  0  0  0  0  0  0  0  0  0
   -2.3380    3.8246    3.7236 C   0  0  0  0  0  0  0  0  0  0  0  0
   -1.6592    3.1854    2.6850 C   0  0  0  0  0  0  0  0  0  0  0  0
   -0.2602    2.7591    2.8904 C   0  0  0  0  0  0  0  0  0  0  0  0
    0.3038    2.8616    3.9504 O   0  0  0  0  0  0  0  0  0  0  0  0
    0.4852    2.1599    1.6813 C   0  0  2  0  0  0  0  0  0  0  0  0
    1.2524    1.4353    2.0914 H   0  0  0  0  0  0  0  0  0  0  0  0
    1.2064    3.2449    0.9129 C   0  0  0  0  0  0  0  0  0  0  0  0
    0.7419    4.5602    0.8849 C   0  0  0  0  0  0  0  0  0  0  0  0
    1.4365    5.5330    0.1690 C   0  0  0  0  0  0  0  0  0  0  0  0
    2.5966    5.1950   -0.5246 C   0  0  0  0  0  0  0  0  0  0  0  0
    3.0601    3.8808   -0.5016 C   0  0  0  0  0  0  0  0  0  0  0  0
    2.3689    2.9079    0.2158 C   0  0  0  0  0  0  0  0  0  0  0  0
   -0.5617   -1.2814    1.0514 C   0  0  0  0  0  0  0  0  0  0  0  0
   -1.8513   -1.7914    0.9063 C   0  0  0  0  0  0  0  0  0  0  0  0
   -2.3144   -2.7713    1.7793 C   0  0  0  0  0  0  0  0  0  0  0  0
   -1.4894   -3.2459    2.8045 C   0  0  0  0  0  0  0  0  0  0  0  0
   -0.1914   -2.7445    2.9341 C   0  0  0  0  0  0  0  0  0  0  0  0
    0.2721   -1.7671    2.0577 C   0  0  0  0  0  0  0  0  0  0  0  0
   -2.0012   -4.2737    3.7532 C   0  0  0  0  0  0  0  0  0  0  0  0
   -2.2761    1.6300   -0.2575 H   0  0  0  0  0  0  0  0  0  0  0  0
   -1.1695    3.0300   -0.3666 H   0  0  0  0  0  0  0  0  0  0  0  0
   -4.1197    3.2029    0.3326 H   0  0  0  0  0  0  0  0  0  0  0  0
   -5.3160    4.3490    2.1731 H   0  0  0  0  0  0  0  0  0  0  0  0
   -4.1833    4.7403    4.3490 H   0  0  0  0  0  0  0  0  0  0  0  0
   -1.8276    3.9915    4.6764 H   0  0  0  0  0  0  0  0  0  0  0  0
   -0.1617    4.8429    1.4231 H   0  0  0  0  0  0  0  0  0  0  0  0
    1.0719    6.5581    0.1542 H   0  0  0  0  0  0  0  0  0  0  0  0
    3.1397    5.9553   -1.0818 H   0  0  0  0  0  0  0  0  0  0  0  0
    3.9642    3.6126   -1.0446 H   0  0  0  0  0  0  0  0  0  0  0  0
    2.7349    1.8747    0.2210 H   0  0  0  0  0  0  0  0  0  0  0  0
   -2.5112   -1.4359    0.1072 H   0  0  0  0  0  0  0  0  0  0  0  0
   -3.3207   -3.1672    1.6662 H   0  0  0  0  0  0  0  0  0  0  0  0
    0.4585   -3.1152    3.7234 H   0  0  0  0  0  0  0  0  0  0  0  0
    1.2970   -1.3940    2.1707 H   0  0  0  0  0  0  0  0  0  0  0  0
   -1.2136   -4.7011    4.3893 H   0  0  0  0  0  0  0  0  0  0  0  0
   -2.4794   -5.1144    3.2296 H   0  0  0  0  0  0  0  0  0  0  0  0
   -2.7581   -3.8441    4.4291 H   0  0  0  0  0  0  0  0  0  0  0  0
  1  4  1  0  0  0  0
  1 22  1  0  0  0  0
  2  1  2  0  0  0  0
  3  1  2  0  0  0  0
  4 14  1  0  0  0  0
  5  4  1  0  0  0  0
  5  6  1  0  0  0  0
  6 11  1  0  0  0  0
  7  6  2  0  0  0  0
  7  8  1  0  0  0  0
  8  9  2  0  0  0  0
  9 10  1  0  0  0  0
  9 33  1  0  0  0  0
 10 34  1  0  0  0  0
 11 12  1  0  0  0  0
 11 10  2  0  0  0  0
 12 13  2  0  0  0  0
 14 15  1  1  0  0  0
 14 12  1  0  0  0  0
 16 14  1  0  0  0  0
 17 16  1  0  0  0  0
 17 35  1  0  0  0  0
 18 17  2  0  0  0  0
 19 20  2  0  0  0  0
 19 18  1  0  0  0  0
 20 21  1  0  0  0  0
 21 39  1  0  0  0  0
 21 16  2  0  0  0  0
 22 27  1  0  0  0  0
 23 22  2  0  0  0  0
 23 24  1  0  0  0  0
 24 25  2  0  0  0  0
 25 26  1  0  0  0  0
 25 28  1  0  0  0  0
 26 42  1  0  0  0  0
 27 43  1  0  0  0  0
 27 26  2  0  0  0  0
 28 44  1  0  0  0  0
 28 46  1  0  0  0  0
 29  5  1  0  0  0  0
 30  5  1  0  0  0  0
 31  7  1  0  0  0  0
 32  8  1  0  0  0  0
 36 18  1  0  0  0  0
 37 19  1  0  0  0  0
 38 20  1  0  0  0  0
 40 23  1  0  0  0  0
 41 24  1  0  0  0  0
 45 28  1  0  0  0  0
M  END
$$$$
