rmsd19.gzmat
 OpenBabel08211713393D

 46 49  0  0  1  0  0  0  0  0999 V2000
    0.0000    0.0000    0.0000 S   0  0  0  0  0  0  0  0  0  0  0  0
    1.4452    0.0000    0.0000 O   0  0  0  0  0  0  0  0  0  0  0  0
   -0.7732    0.0000   -1.2189 O   0  0  0  0  0  0  0  0  0  0  0  0
   -0.4985    1.4197    0.8996 N   0  0  0  0  0  0  0  0  0  0  0  0
   -1.6384    2.1920    0.3824 C   0  0  0  0  0  0  0  0  0  0  0  0
   -2.2902    2.9465    1.5119 C   0  0  0  0  0  0  0  0  0  0  0  0
   -3.6264    3.3324    1.4068 C   0  0  0  0  0  0  0  0  0  0  0  0
   -4.2257    4.0461    2.4422 C   0  0  0  0  0  0  0  0  0  0  0  0
   -3.4997    4.3735    3.5873 C   0  0  0  0  0  0  0  0  0  0  0  0
   -2.1657    3.9902    3.6945 C   0  0  0  0  0  0  0  0  0  0  0  0
   -1.5588    3.2841    2.6548 C   0  0  0  0  0  0  0  0  0  0  0  0
   -0.1370    2.9000    2.7729 C   0  0  0  0  0  0  0  0  0  0  0  0
    0.5053    3.0787    3.7769 O   0  0  0  0  0  0  0  0  0  0  0  0
    0.5259    2.2481    1.5436 C   0  0  2  0  0  0  0  0  0  0  0  0
    1.3521    1.5758    1.9297 H   0  0  0  0  0  0  0  0  0  0  0  0
    1.1352    3.3028    0.6468 C   0  0  0  0  0  0  0  0  0  0  0  0
    0.6041    4.5899    0.5583 C   0  0  0  0  0  0  0  0  0  0  0  0
    1.1883    5.5328   -0.2845 C   0  0  0  0  0  0  0  0  0  0  0  0
    2.3053    5.1932   -1.0448 C   0  0  0  0  0  0  0  0  0  0  0  0
    2.8380    3.9083   -0.9582 C   0  0  0  0  0  0  0  0  0  0  0  0
    2.2577    2.9658   -0.1131 C   0  0  0  0  0  0  0  0  0  0  0  0
   -0.5699   -1.2854    1.0412 C   0  0  0  0  0  0  0  0  0  0  0  0
   -1.8669   -1.7771    0.8938 C   0  0  0  0  0  0  0  0  0  0  0  0
   -2.3337   -2.7738    1.7449 C   0  0  0  0  0  0  0  0  0  0  0  0
   -1.5030   -3.2879    2.7464 C   0  0  0  0  0  0  0  0  0  0  0  0
   -0.2011   -2.7992    2.8832 C   0  0  0  0  0  0  0  0  0  0  0  0
    0.2641   -1.8001    2.0321 C   0  0  0  0  0  0  0  0  0  0  0  0
   -2.0159   -4.3414    3.6654 C   0  0  0  0  0  0  0  0  0  0  0  0
   -2.3734    1.5008   -0.1004 H   0  0  0  0  0  0  0  0  0  0  0  0
   -1.3308    2.9154   -0.4167 H   0  0  0  0  0  0  0  0  0  0  0  0
   -4.2018    3.0765    0.5200 H   0  0  0  0  0  0  0  0  0  0  0  0
   -5.2691    4.3495    2.3578 H   0  0  0  0  0  0  0  0  0  0  0  0
   -3.9746    4.9271    4.3944 H   0  0  0  0  0  0  0  0  0  0  0  0
   -1.5845    4.2380    4.5871 H   0  0  0  0  0  0  0  0  0  0  0  0
   -0.2661    4.8744    1.1484 H   0  0  0  0  0  0  0  0  0  0  0  0
    0.7708    6.5357   -0.3459 H   0  0  0  0  0  0  0  0  0  0  0  0
    2.7608    5.9296   -1.7033 H   0  0  0  0  0  0  0  0  0  0  0  0
    3.7086    3.6380   -1.5526 H   0  0  0  0  0  0  0  0  0  0  0  0
    2.6794    1.9560   -0.0553 H   0  0  0  0  0  0  0  0  0  0  0  0
   -2.5294   -1.3943    0.1096 H   0  0  0  0  0  0  0  0  0  0  0  0
   -3.3468   -3.1523    1.6340 H   0  0  0  0  0  0  0  0  0  0  0  0
    0.4508   -3.1955    3.6581 H   0  0  0  0  0  0  0  0  0  0  0  0
    1.2903   -1.4333    2.1529 H   0  0  0  0  0  0  0  0  0  0  0  0
   -1.2143   -4.8710    4.1989 H   0  0  0  0  0  0  0  0  0  0  0  0
   -2.6029   -5.1047    3.1342 H   0  0  0  0  0  0  0  0  0  0  0  0
   -2.6768   -3.9052    4.4320 H   0  0  0  0  0  0  0  0  0  0  0  0
  1  4  1  0  0  0  0
  1 22  1  0  0  0  0
  2  1  2  0  0  0  0
  3  1  2  0  0  0  0
  4 14  1  0  0  0  0
  5  4  1  0  0  0  0
  5  6  1  0  0  0  0
  6 11  1  0  0  0  0
  7  6  2  0  0  0  0
  7  8  1  0  0  0  0
  8  9  2  0  0  0  0
  9 10  1  0  0  0  0
  9 33  1  0  0  0  0
 10 34  1  0  0  0  0
 11 12  1  0  0  0  0
 11 10  2  0  0  0  0
 12 13  2  0  0  0  0
 14 15  1  1  0  0  0
 14 12  1  0  0  0  0
 16 14  1  0  0  0  0
 17 16  1  0  0  0  0
 17 35  1  0  0  0  0
 18 17  2  0  0  0  0
 19 20  2  0  0  0  0
 19 18  1  0  0  0  0
 20 21  1  0  0  0  0
 21 39  1  0  0  0  0
 21 16  2  0  0  0  0
 22 27  1  0  0  0  0
 23 22  2  0  0  0  0
 23 24  1  0  0  0  0
 24 25  2  0  0  0  0
 25 26  1  0  0  0  0
 25 28  1  0  0  0  0
 26 42  1  0  0  0  0
 27 43  1  0  0  0  0
 27 26  2  0  0  0  0
 28 44  1  0  0  0  0
 28 46  1  0  0  0  0
 29  5  1  0  0  0  0
 30  5  1  0  0  0  0
 31  7  1  0  0  0  0
 32  8  1  0  0  0  0
 36 18  1  0  0  0  0
 37 19  1  0  0  0  0
 38 20  1  0  0  0  0
 40 23  1  0  0  0  0
 41 24  1  0  0  0  0
 45 28  1  0  0  0  0
M  END
$$$$
