46
rmsd86.gzmat
S          0.00000        0.00000        0.00000
O          1.44490        0.00000        0.00000
O         -0.77230        0.00000       -1.21980
N         -0.50560        1.41440        0.90040
C         -1.57040        2.25920        0.34130
C         -2.30020        2.95010        1.46440
C         -3.61570        3.37560        1.28100
C         -4.28730        4.01980        2.31780
C         -3.65300        4.24240        3.54000
C         -2.33800        3.82460        3.72360
C         -1.65920        3.18540        2.68500
C         -0.26020        2.75910        2.89040
O          0.30380        2.86160        3.95040
C          0.48520        2.15990        1.68130
H          1.25240        1.43530        2.09140
C          1.20640        3.24490        0.91290
C          0.74190        4.56020        0.88490
C          1.43650        5.53300        0.16900
C          2.59660        5.19500       -0.52460
C          3.06010        3.88080       -0.50160
C          2.36890        2.90790        0.21580
C         -0.56170       -1.28140        1.05140
C         -1.85130       -1.79140        0.90630
C         -2.31440       -2.77130        1.77930
C         -1.48940       -3.24590        2.80450
C         -0.19140       -2.74450        2.93410
C          0.27210       -1.76710        2.05770
C         -2.00120       -4.27370        3.75320
H         -2.27610        1.63000       -0.25750
H         -1.16950        3.03000       -0.36660
H         -4.11970        3.20290        0.33260
H         -5.31600        4.34900        2.17310
H         -4.18330        4.74030        4.34900
H         -1.82760        3.99150        4.67640
H         -0.16170        4.84290        1.42310
H          1.07190        6.55810        0.15420
H          3.13970        5.95530       -1.08180
H          3.96420        3.61260       -1.04460
H          2.73490        1.87470        0.22100
H         -2.51120       -1.43590        0.10720
H         -3.32070       -3.16720        1.66620
H          0.45850       -3.11520        3.72340
H          1.29700       -1.39400        2.17070
H         -1.21360       -4.70110        4.38930
H         -2.47940       -5.11440        3.22960
H         -2.75810       -3.84410        4.42910
