46

S          0.59650        0.09850        0.47800
O          1.97910       -0.02960        0.95120
O          0.29550        0.12200       -0.95740
N         -0.02910        1.46850        1.24210
C         -1.33170        1.91840        0.77290
C         -1.98060        2.78400        1.82300
C         -3.36680        2.97780        1.83070
C         -3.96610        3.77370        2.80750
C         -3.18670        4.38660        3.79780
C         -1.80810        4.20240        3.79790
C         -1.19770        3.40960        2.81230
C          0.28880        3.28980        2.80490
O          0.98900        3.79270        3.65790
C          0.91070        2.53430        1.62770
H          1.81430        2.04670        2.01160
C          1.29280        3.44960        0.46770
C          0.69300        4.70100        0.27310
C          1.03050        5.48590       -0.83360
C          1.97040        5.02660       -1.75790
C          2.57350        3.77900       -1.56970
C          2.23860        2.99610       -0.46500
C         -0.39610       -1.18670        1.21880
C         -1.20780       -1.97510        0.40660
C         -1.96250       -2.99520        0.99250
C         -1.91030       -3.23380        2.37230
C         -1.07600       -2.42100        3.16390
C         -0.31690       -1.40230        2.59870
C         -2.71940       -4.33400        3.00760
H         -1.96260        1.03860        0.57830
H         -1.24620        2.46960       -0.18370
H         -3.98240        2.49120        1.06950
H         -5.05010        3.91180        2.80250
H         -3.65990        5.00590        4.56300
H         -1.16600        4.66930        4.54710
H         -0.04050        5.07790        0.98870
H          0.55610        6.46060       -0.97040
H          2.23450        5.63950       -2.62310
H          3.31160        3.41300       -2.28730
H          2.70410        2.01900       -0.32370
H         -1.23900       -1.78340       -0.66680
H         -2.60300       -3.61750        0.36260
H         -1.02280       -2.59550        4.24180
H          0.32930       -0.77410        3.21370
H         -2.06290       -5.08130        3.48320
H         -3.34640       -4.85450        2.26990
H         -3.37810       -3.93640        3.79680
