rmsd107.gzmat
 OpenBabel08211713393D

 46 49  0  0  1  0  0  0  0  0999 V2000
    0.0000    0.0000    0.0000 S   0  0  0  0  0  0  0  0  0  0  0  0
    1.4452    0.0000    0.0000 O   0  0  0  0  0  0  0  0  0  0  0  0
   -0.7727    0.0000   -1.2195 O   0  0  0  0  0  0  0  0  0  0  0  0
   -0.5110    1.4211    0.8918 N   0  0  0  0  0  0  0  0  0  0  0  0
   -1.5347    2.2831    0.2803 C   0  0  0  0  0  0  0  0  0  0  0  0
   -2.2350    3.0861    1.3458 C   0  0  0  0  0  0  0  0  0  0  0  0
   -3.4987    3.6190    1.0893 C   0  0  0  0  0  0  0  0  0  0  0  0
   -4.1395    4.3841    2.0613 C   0  0  0  0  0  0  0  0  0  0  0  0
   -3.5290    4.6175    3.2938 C   0  0  0  0  0  0  0  0  0  0  0  0
   -2.2690    4.0859    3.5536 C   0  0  0  0  0  0  0  0  0  0  0  0
   -1.6184    3.3295    2.5775 C   0  0  0  0  0  0  0  0  0  0  0  0
   -0.2665    2.8012    2.8508 C   0  0  0  0  0  0  0  0  0  0  0  0
    0.2514    2.8550    3.9373 O   0  0  0  0  0  0  0  0  0  0  0  0
    0.4889    2.1604    1.6699 C   0  0  2  0  0  0  0  0  0  0  0  0
    1.2287    1.4251    2.1099 H   0  0  0  0  0  0  0  0  0  0  0  0
    1.2526    3.2081    0.8900 C   0  0  0  0  0  0  0  0  0  0  0  0
    0.8103    4.5280    0.7938 C   0  0  0  0  0  0  0  0  0  0  0  0
    1.5449    5.4638    0.0687 C   0  0  0  0  0  0  0  0  0  0  0  0
    2.7225    5.0836   -0.5714 C   0  0  0  0  0  0  0  0  0  0  0  0
    3.1637    3.7647   -0.4829 C   0  0  0  0  0  0  0  0  0  0  0  0
    2.4344    2.8301    0.2477 C   0  0  0  0  0  0  0  0  0  0  0  0
   -0.5482   -1.2932    1.0431 C   0  0  0  0  0  0  0  0  0  0  0  0
   -1.8562   -1.7654    0.9471 C   0  0  0  0  0  0  0  0  0  0  0  0
   -2.2931   -2.7823    1.7920 C   0  0  0  0  0  0  0  0  0  0  0  0
   -1.4224   -3.3328    2.7372 C   0  0  0  0  0  0  0  0  0  0  0  0
   -0.1087   -2.8607    2.8241 C   0  0  0  0  0  0  0  0  0  0  0  0
    0.3270   -1.8451    1.9787 C   0  0  0  0  0  0  0  0  0  0  0  0
   -1.8905   -4.4056    3.6577 C   0  0  0  0  0  0  0  0  0  0  0  0
   -2.2722    1.6500   -0.2755 H   0  0  0  0  0  0  0  0  0  0  0  0
   -1.0975    2.9828   -0.4786 H   0  0  0  0  0  0  0  0  0  0  0  0
   -3.9845    3.4402    0.1324 H   0  0  0  0  0  0  0  0  0  0  0  0
   -5.1246    4.8031    1.8573 H   0  0  0  0  0  0  0  0  0  0  0  0
   -4.0352    5.2151    4.0491 H   0  0  0  0  0  0  0  0  0  0  0  0
   -1.7786    4.2570    4.5160 H   0  0  0  0  0  0  0  0  0  0  0  0
   -0.1084    4.8452    1.2853 H   0  0  0  0  0  0  0  0  0  0  0  0
    1.1975    6.4930    0.0054 H   0  0  0  0  0  0  0  0  0  0  0  0
    3.2962    5.8140   -1.1379 H   0  0  0  0  0  0  0  0  0  0  0  0
    4.0796    3.4613   -0.9863 H   0  0  0  0  0  0  0  0  0  0  0  0
    2.7859    1.7933    0.3031 H   0  0  0  0  0  0  0  0  0  0  0  0
   -2.5516   -1.3524    0.2084 H   0  0  0  0  0  0  0  0  0  0  0  0
   -3.3147   -3.1463    1.7161 H   0  0  0  0  0  0  0  0  0  0  0  0
    0.5737   -3.2870    3.5557 H   0  0  0  0  0  0  0  0  0  0  0  0
    1.3639   -1.4959    2.0564 H   0  0  0  0  0  0  0  0  0  0  0  0
   -1.0977   -5.1298    3.8946 H   0  0  0  0  0  0  0  0  0  0  0  0
   -2.7331   -4.9800    3.2486 H   0  0  0  0  0  0  0  0  0  0  0  0
   -2.2296   -3.9775    4.6152 H   0  0  0  0  0  0  0  0  0  0  0  0
  1  4  1  0  0  0  0
  1 22  1  0  0  0  0
  2  1  2  0  0  0  0
  3  1  2  0  0  0  0
  4 14  1  0  0  0  0
  5  4  1  0  0  0  0
  5  6  1  0  0  0  0
  6 11  1  0  0  0  0
  7  6  2  0  0  0  0
  7  8  1  0  0  0  0
  8  9  2  0  0  0  0
  9 10  1  0  0  0  0
  9 33  1  0  0  0  0
 10 34  1  0  0  0  0
 11 12  1  0  0  0  0
 11 10  2  0  0  0  0
 12 13  2  0  0  0  0
 14 15  1  1  0  0  0
 14 12  1  0  0  0  0
 16 14  1  0  0  0  0
 17 16  1  0  0  0  0
 17 35  1  0  0  0  0
 18 17  2  0  0  0  0
 19 20  2  0  0  0  0
 19 18  1  0  0  0  0
 20 21  1  0  0  0  0
 21 39  1  0  0  0  0
 21 16  2  0  0  0  0
 22 27  1  0  0  0  0
 23 22  2  0  0  0  0
 23 24  1  0  0  0  0
 24 25  2  0  0  0  0
 25 26  1  0  0  0  0
 25 28  1  0  0  0  0
 26 42  1  0  0  0  0
 27 43  1  0  0  0  0
 27 26  2  0  0  0  0
 28 44  1  0  0  0  0
 28 46  1  0  0  0  0
 29  5  1  0  0  0  0
 30  5  1  0  0  0  0
 31  7  1  0  0  0  0
 32  8  1  0  0  0  0
 36 18  1  0  0  0  0
 37 19  1  0  0  0  0
 38 20  1  0  0  0  0
 40 23  1  0  0  0  0
 41 24  1  0  0  0  0
 45 28  1  0  0  0  0
M  END
$$$$
