rmsd13.gzmat
 OpenBabel08211713393D

 46 49  0  0  1  0  0  0  0  0999 V2000
    0.0000    0.0000    0.0000 S   0  0  0  0  0  0  0  0  0  0  0  0
    1.4448    0.0000    0.0000 O   0  0  0  0  0  0  0  0  0  0  0  0
   -0.7716    0.0000   -1.2201 O   0  0  0  0  0  0  0  0  0  0  0  0
   -0.5120    1.4100    0.9014 N   0  0  0  0  0  0  0  0  0  0  0  0
   -1.5356    2.2903    0.3226 C   0  0  0  0  0  0  0  0  0  0  0  0
   -2.3136    2.9416    1.4373 C   0  0  0  0  0  0  0  0  0  0  0  0
   -3.6229    3.3688    1.2171 C   0  0  0  0  0  0  0  0  0  0  0  0
   -4.3331    3.9858    2.2448 C   0  0  0  0  0  0  0  0  0  0  0  0
   -3.7456    4.1741    3.4959 C   0  0  0  0  0  0  0  0  0  0  0  0
   -2.4399    3.7461    3.7193 C   0  0  0  0  0  0  0  0  0  0  0  0
   -1.7216    3.1370    2.6892 C   0  0  0  0  0  0  0  0  0  0  0  0
   -0.3337    2.6980    2.9388 C   0  0  0  0  0  0  0  0  0  0  0  0
    0.1915    2.7823    4.0203 O   0  0  0  0  0  0  0  0  0  0  0  0
    0.4540    2.1097    1.7508 C   0  0  2  0  0  0  0  0  0  0  0  0
    1.1819    1.3558    2.1784 H   0  0  0  0  0  0  0  0  0  0  0  0
    1.2406    3.1968    1.0528 C   0  0  0  0  0  0  0  0  0  0  0  0
    0.8087    4.5234    1.0399 C   0  0  0  0  0  0  0  0  0  0  0  0
    1.5709    5.5008    0.4039 C   0  0  0  0  0  0  0  0  0  0  0  0
    2.7657    5.1564   -0.2252 C   0  0  0  0  0  0  0  0  0  0  0  0
    3.1941    3.8303   -0.2217 C   0  0  0  0  0  0  0  0  0  0  0  0
    2.4347    2.8521    0.4151 C   0  0  0  0  0  0  0  0  0  0  0  0
   -0.5570   -1.2793    1.0561 C   0  0  0  0  0  0  0  0  0  0  0  0
   -1.8589   -1.7656    0.9419 C   0  0  0  0  0  0  0  0  0  0  0  0
   -2.3158   -2.7411    1.8227 C   0  0  0  0  0  0  0  0  0  0  0  0
   -1.4717   -3.2372    2.8219 C   0  0  0  0  0  0  0  0  0  0  0  0
   -0.1625   -2.7585    2.9214 C   0  0  0  0  0  0  0  0  0  0  0  0
    0.2943   -1.7840    2.0383 C   0  0  0  0  0  0  0  0  0  0  0  0
   -1.9790   -4.2684    3.7686 C   0  0  0  0  0  0  0  0  0  0  0  0
   -2.2160    1.6988   -0.3405 H   0  0  0  0  0  0  0  0  0  0  0  0
   -1.0877    3.0843   -0.3289 H   0  0  0  0  0  0  0  0  0  0  0  0
   -4.0920    3.2196    0.2472 H   0  0  0  0  0  0  0  0  0  0  0  0
   -5.3549    4.3221    2.0705 H   0  0  0  0  0  0  0  0  0  0  0  0
   -4.3070    4.6527    4.2954 H   0  0  0  0  0  0  0  0  0  0  0  0
   -1.9676    3.8817    4.6964 H   0  0  0  0  0  0  0  0  0  0  0  0
   -0.1202    4.8107    1.5306 H   0  0  0  0  0  0  0  0  0  0  0  0
    1.2326    6.5348    0.4026 H   0  0  0  0  0  0  0  0  0  0  0  0
    3.3625    5.9213   -0.7175 H   0  0  0  0  0  0  0  0  0  0  0  0
    4.1239    3.5556   -0.7161 H   0  0  0  0  0  0  0  0  0  0  0  0
    2.7732    1.8100    0.4023 H   0  0  0  0  0  0  0  0  0  0  0  0
   -2.5327   -1.3923    0.1636 H   0  0  0  0  0  0  0  0  0  0  0  0
   -3.3323   -3.1171    1.7385 H   0  0  0  0  0  0  0  0  0  0  0  0
    0.5019   -3.1431    3.6917 H   0  0  0  0  0  0  0  0  0  0  0  0
    1.3282   -1.4283    2.1260 H   0  0  0  0  0  0  0  0  0  0  0  0
   -2.3247   -5.1680    3.2369 H   0  0  0  0  0  0  0  0  0  0  0  0
   -2.8348   -3.8910    4.3503 H   0  0  0  0  0  0  0  0  0  0  0  0
   -1.2223   -4.5968    4.4941 H   0  0  0  0  0  0  0  0  0  0  0  0
  1  4  1  0  0  0  0
  1 22  1  0  0  0  0
  2  1  2  0  0  0  0
  3  1  2  0  0  0  0
  4 14  1  0  0  0  0
  5  4  1  0  0  0  0
  5  6  1  0  0  0  0
  6 11  1  0  0  0  0
  7  6  2  0  0  0  0
  7  8  1  0  0  0  0
  8  9  2  0  0  0  0
  9 10  1  0  0  0  0
  9 33  1  0  0  0  0
 10 34  1  0  0  0  0
 11 12  1  0  0  0  0
 11 10  2  0  0  0  0
 12 13  2  0  0  0  0
 14 15  1  1  0  0  0
 14 12  1  0  0  0  0
 16 14  1  0  0  0  0
 17 16  1  0  0  0  0
 17 35  1  0  0  0  0
 18 17  2  0  0  0  0
 19 20  2  0  0  0  0
 19 18  1  0  0  0  0
 20 21  1  0  0  0  0
 21 16  2  0  0  0  0
 22 27  1  0  0  0  0
 23 22  2  0  0  0  0
 23 24  1  0  0  0  0
 24 25  2  0  0  0  0
 25 26  1  0  0  0  0
 25 28  1  0  0  0  0
 26 42  1  0  0  0  0
 27 43  1  0  0  0  0
 27 26  2  0  0  0  0
 28 45  1  0  0  0  0
 28 46  1  0  0  0  0
 29  5  1  0  0  0  0
 30  5  1  0  0  0  0
 31  7  1  0  0  0  0
 32  8  1  0  0  0  0
 36 18  1  0  0  0  0
 37 19  1  0  0  0  0
 38 20  1  0  0  0  0
 39 21  1  0  0  0  0
 40 23  1  0  0  0  0
 41 24  1  0  0  0  0
 44 28  1  0  0  0  0
M  END
$$$$
