rmsd11.gzmat
 OpenBabel08211713373D

 48 53  0  0  1  0  0  0  0  0999 V2000
    0.0000    0.0000    0.0000 C   0  0  0  0  0  0  0  0  0  0  0  0
    1.4126    0.0000    0.0000 C   0  0  0  0  0  0  0  0  0  0  0  0
    2.1341    0.0000    1.1788 C   0  0  0  0  0  0  0  0  0  0  0  0
    1.4382   -0.0019    2.3920 C   0  0  0  0  0  0  0  0  0  0  0  0
    1.8252   -0.0250    3.7692 C   0  0  0  0  0  0  0  0  0  0  0  0
    0.6633   -0.0274    4.5261 C   0  0  0  0  0  0  0  0  0  0  0  0
   -0.4546    0.0116    3.6952 N   0  0  0  0  0  0  0  0  0  0  0  0
   -1.4020   -0.0447    3.9871 H   0  0  0  0  0  0  0  0  0  0  0  0
    0.0024    0.0050    2.3754 C   0  0  0  0  0  0  0  0  0  0  0  0
   -0.7241    0.0041    1.1765 C   0  0  0  0  0  0  0  0  0  0  0  0
    0.6301   -0.0843    6.0130 C   0  0  2  0  0  0  0  0  0  0  0  0
   -0.2201    0.5543    6.4107 H   0  0  0  0  0  0  0  0  0  0  0  0
    1.8840    0.4797    6.5652 N   0  0  0  0  0  0  0  0  0  0  0  0
    1.8747    0.8529    7.8912 C   0  0  0  0  0  0  0  0  0  0  0  0
    0.8555    0.8162    8.5496 O   0  0  0  0  0  0  0  0  0  0  0  0
    3.1865    1.3511    8.4916 C   0  0  0  0  0  0  0  0  0  0  0  0
    4.3680    0.7408    7.8880 N   0  0  0  0  0  0  0  0  0  0  0  0
    4.3298    0.2886    6.5845 C   0  0  0  0  0  0  0  0  0  0  0  0
    5.2598   -0.3206    6.1023 O   0  0  0  0  0  0  0  0  0  0  0  0
    3.0943    0.6975    5.7573 C   0  0  1  0  0  0  0  0  0  0  0  0
    3.1622    1.8011    5.5317 H   0  0  0  0  0  0  0  0  0  0  0  0
    3.1435   -0.0713    4.4178 C   0  0  0  0  0  0  0  0  0  0  0  0
    5.3624    0.1856    8.8087 C   0  0  0  0  0  0  0  0  0  0  0  0
    0.4520   -1.5140    6.4936 C   0  0  0  0  0  0  0  0  0  0  0  0
    1.0660   -2.5726    5.8331 C   0  0  0  0  0  0  0  0  0  0  0  0
    0.9156   -3.9045    6.2597 C   0  0  0  0  0  0  0  0  0  0  0  0
    0.1255   -4.0967    7.3665 C   0  0  0  0  0  0  0  0  0  0  0  0
   -0.1860   -5.2825    7.9815 O   0  0  0  0  0  0  0  0  0  0  0  0
   -1.0420   -4.9227    9.0900 C   0  0  0  0  0  0  0  0  0  0  0  0
   -1.2283   -3.4907    9.1061 O   0  0  0  0  0  0  0  0  0  0  0  0
   -0.4984   -3.0207    8.0408 C   0  0  0  0  0  0  0  0  0  0  0  0
   -0.3519   -1.7187    7.6348 C   0  0  0  0  0  0  0  0  0  0  0  0
   -0.5210   -0.0052   -0.9567 H   0  0  0  0  0  0  0  0  0  0  0  0
    1.9317   -0.0018   -0.9561 H   0  0  0  0  0  0  0  0  0  0  0  0
    3.2217   -0.0010    1.1779 H   0  0  0  0  0  0  0  0  0  0  0  0
   -1.8081    0.0036    1.1790 H   0  0  0  0  0  0  0  0  0  0  0  0
    3.2409    2.4619    8.3656 H   0  0  0  0  0  0  0  0  0  0  0  0
    3.1570    1.1659    9.5936 H   0  0  0  0  0  0  0  0  0  0  0  0
    3.9447    0.3577    3.7782 H   0  0  0  0  0  0  0  0  0  0  0  0
    3.4619   -1.1281    4.5883 H   0  0  0  0  0  0  0  0  0  0  0  0
    5.7030    0.9624    9.5135 H   0  0  0  0  0  0  0  0  0  0  0  0
    6.2488   -0.1647    8.2396 H   0  0  0  0  0  0  0  0  0  0  0  0
    4.9629   -0.6747    9.3738 H   0  0  0  0  0  0  0  0  0  0  0  0
    1.6830   -2.3795    4.9524 H   0  0  0  0  0  0  0  0  0  0  0  0
    1.3991   -4.7242    5.7392 H   0  0  0  0  0  0  0  0  0  0  0  0
   -2.0228   -5.3868    8.9190 H   0  0  0  0  0  0  0  0  0  0  0  0
   -0.5239   -5.2060   10.0166 H   0  0  0  0  0  0  0  0  0  0  0  0
   -0.8056   -0.8870    8.1732 H   0  0  0  0  0  0  0  0  0  0  0  0
  1 10  1  0  0  0  0
  2  1  2  0  0  0  0
  2  3  1  0  0  0  0
  3  4  2  0  0  0  0
  4  5  1  0  0  0  0
  5 22  1  0  0  0  0
  5  6  2  0  0  0  0
  6 11  1  0  0  0  0
  7  8  1  0  0  0  0
  7  6  1  0  0  0  0
  9  4  1  0  0  0  0
  9  7  1  0  0  0  0
 10 36  1  0  0  0  0
 10  9  2  0  0  0  0
 11 12  1  1  0  0  0
 11 24  1  0  0  0  0
 11 13  1  0  0  0  0
 13 14  1  0  0  0  0
 14 16  1  0  0  0  0
 14 15  2  0  0  0  0
 16 38  1  0  0  0  0
 17 16  1  0  0  0  0
 17 23  1  0  0  0  0
 18 17  1  0  0  0  0
 19 18  2  0  0  0  0
 20 21  1  6  0  0  0
 20 13  1  0  0  0  0
 20 18  1  0  0  0  0
 22 40  1  0  0  0  0
 22 20  1  0  0  0  0
 23 43  1  0  0  0  0
 23 41  1  0  0  0  0
 24 32  2  0  0  0  0
 25 26  2  0  0  0  0
 25 24  1  0  0  0  0
 26 27  1  0  0  0  0
 27 28  1  0  0  0  0
 27 31  2  0  0  0  0
 28 29  1  0  0  0  0
 29 30  1  0  0  0  0
 29 47  1  0  0  0  0
 31 30  1  0  0  0  0
 32 31  1  0  0  0  0
 32 48  1  0  0  0  0
 33  1  1  0  0  0  0
 34  2  1  0  0  0  0
 35  3  1  0  0  0  0
 37 16  1  0  0  0  0
 39 22  1  0  0  0  0
 42 23  1  0  0  0  0
 44 25  1  0  0  0  0
 45 26  1  0  0  0  0
 46 29  1  0  0  0  0
M  END
$$$$
