rmsd2.gzmat
 OpenBabel08211713373D

 48 53  0  0  1  0  0  0  0  0999 V2000
    0.0000    0.0000    0.0000 C   0  0  0  0  0  0  0  0  0  0  0  0
    1.4127    0.0000    0.0000 C   0  0  0  0  0  0  0  0  0  0  0  0
    2.1344    0.0000    1.1787 C   0  0  0  0  0  0  0  0  0  0  0  0
    1.4389    0.0034    2.3921 C   0  0  0  0  0  0  0  0  0  0  0  0
    1.8257    0.0043    3.7690 C   0  0  0  0  0  0  0  0  0  0  0  0
    0.6633    0.0120    4.5268 C   0  0  0  0  0  0  0  0  0  0  0  0
   -0.4544    0.0277    3.6951 N   0  0  0  0  0  0  0  0  0  0  0  0
   -1.4013   -0.0299    3.9871 H   0  0  0  0  0  0  0  0  0  0  0  0
    0.0030    0.0060    2.3755 C   0  0  0  0  0  0  0  0  0  0  0  0
   -0.7235    0.0014    1.1769 C   0  0  0  0  0  0  0  0  0  0  0  0
    0.6389    0.0278    6.0149 C   0  0  2  0  0  0  0  0  0  0  0  0
   -0.2478    0.6342    6.3826 H   0  0  0  0  0  0  0  0  0  0  0  0
    1.8599    0.7048    6.5142 N   0  0  0  0  0  0  0  0  0  0  0  0
    1.8300    1.2270    7.7871 C   0  0  0  0  0  0  0  0  0  0  0  0
    0.8106    1.2346    8.4473 O   0  0  0  0  0  0  0  0  0  0  0  0
    3.1243    1.8328    8.3261 C   0  0  0  0  0  0  0  0  0  0  0  0
    4.3250    1.1813    7.8084 N   0  0  0  0  0  0  0  0  0  0  0  0
    4.3060    0.5747    6.5677 C   0  0  0  0  0  0  0  0  0  0  0  0
    5.2459   -0.0752    6.1674 O   0  0  0  0  0  0  0  0  0  0  0  0
    3.0719    0.8782    5.6965 C   0  0  1  0  0  0  0  0  0  0  0  0
    3.1176    1.9601    5.3774 H   0  0  0  0  0  0  0  0  0  0  0  0
    3.1405    0.0010    4.4277 C   0  0  0  0  0  0  0  0  0  0  0  0
    5.3295    0.7798    8.7946 C   0  0  0  0  0  0  0  0  0  0  0  0
    0.5546   -1.3737    6.5937 C   0  0  0  0  0  0  0  0  0  0  0  0
   -0.0886   -1.5361    7.8179 C   0  0  0  0  0  0  0  0  0  0  0  0
   -0.2061   -2.7931    8.4375 C   0  0  0  0  0  0  0  0  0  0  0  0
    0.3530   -3.8515    7.7639 C   0  0  0  0  0  0  0  0  0  0  0  0
    0.3792   -5.1697    8.1423 O   0  0  0  0  0  0  0  0  0  0  0  0
    1.0975   -5.8528    7.0891 C   0  0  0  0  0  0  0  0  0  0  0  0
    1.4704   -4.9007    6.0682 O   0  0  0  0  0  0  0  0  0  0  0  0
    1.0071   -3.6886    6.5201 C   0  0  0  0  0  0  0  0  0  0  0  0
    1.1243   -2.4657    5.9087 C   0  0  0  0  0  0  0  0  0  0  0  0
   -0.5217   -0.0028   -0.9565 H   0  0  0  0  0  0  0  0  0  0  0  0
    1.9326   -0.0015   -0.9555 H   0  0  0  0  0  0  0  0  0  0  0  0
    3.2220   -0.0044    1.1762 H   0  0  0  0  0  0  0  0  0  0  0  0
   -1.8076   -0.0011    1.1792 H   0  0  0  0  0  0  0  0  0  0  0  0
    3.1505    2.9199    8.0608 H   0  0  0  0  0  0  0  0  0  0  0  0
    3.0914    1.7849    9.4424 H   0  0  0  0  0  0  0  0  0  0  0  0
    3.9506    0.3735    3.7653 H   0  0  0  0  0  0  0  0  0  0  0  0
    3.4518   -1.0389    4.6906 H   0  0  0  0  0  0  0  0  0  0  0  0
    5.6535    1.6552    9.3826 H   0  0  0  0  0  0  0  0  0  0  0  0
    6.2225    0.3697    8.2785 H   0  0  0  0  0  0  0  0  0  0  0  0
    4.9495    0.0026    9.4800 H   0  0  0  0  0  0  0  0  0  0  0  0
   -0.5056   -0.6636    8.3323 H   0  0  0  0  0  0  0  0  0  0  0  0
   -0.7073   -2.9093    9.3923 H   0  0  0  0  0  0  0  0  0  0  0  0
    2.0214   -6.2587    7.5245 H   0  0  0  0  0  0  0  0  0  0  0  0
    0.4121   -6.5819    6.6361 H   0  0  0  0  0  0  0  0  0  0  0  0
    1.6254   -2.3472    4.9501 H   0  0  0  0  0  0  0  0  0  0  0  0
  1 10  1  0  0  0  0
  2  1  2  0  0  0  0
  2  3  1  0  0  0  0
  3  4  2  0  0  0  0
  4  5  1  0  0  0  0
  5 22  1  0  0  0  0
  5  6  2  0  0  0  0
  6 11  1  0  0  0  0
  7  8  1  0  0  0  0
  7  6  1  0  0  0  0
  9  4  1  0  0  0  0
  9  7  1  0  0  0  0
 10 36  1  0  0  0  0
 10  9  2  0  0  0  0
 11 12  1  1  0  0  0
 11 13  1  0  0  0  0
 11 24  1  0  0  0  0
 13 14  1  0  0  0  0
 14 16  1  0  0  0  0
 14 15  2  0  0  0  0
 16 38  1  0  0  0  0
 17 16  1  0  0  0  0
 17 23  1  0  0  0  0
 18 17  1  0  0  0  0
 19 18  2  0  0  0  0
 20 21  1  6  0  0  0
 20 13  1  0  0  0  0
 20 18  1  0  0  0  0
 22 40  1  0  0  0  0
 22 20  1  0  0  0  0
 23 41  1  0  0  0  0
 23 43  1  0  0  0  0
 24 25  2  0  0  0  0
 25 44  1  0  0  0  0
 25 26  1  0  0  0  0
 26 45  1  0  0  0  0
 27 28  1  0  0  0  0
 27 26  2  0  0  0  0
 29 46  1  0  0  0  0
 29 28  1  0  0  0  0
 30 31  1  0  0  0  0
 30 29  1  0  0  0  0
 31 27  1  0  0  0  0
 32 31  2  0  0  0  0
 32 24  1  0  0  0  0
 33  1  1  0  0  0  0
 34  2  1  0  0  0  0
 35  3  1  0  0  0  0
 37 16  1  0  0  0  0
 39 22  1  0  0  0  0
 42 23  1  0  0  0  0
 47 29  1  0  0  0  0
 48 32  1  0  0  0  0
M  END
$$$$
