rmsd9.gzmat
 OpenBabel08211713373D

 48 53  0  0  1  0  0  0  0  0999 V2000
    0.0000    0.0000    0.0000 C   0  0  0  0  0  0  0  0  0  0  0  0
    1.4125    0.0000    0.0000 C   0  0  0  0  0  0  0  0  0  0  0  0
    2.1334    0.0000    1.1792 C   0  0  0  0  0  0  0  0  0  0  0  0
    1.4374   -0.0011    2.3925 C   0  0  0  0  0  0  0  0  0  0  0  0
    1.8238   -0.0101    3.7698 C   0  0  0  0  0  0  0  0  0  0  0  0
    0.6621   -0.0090    4.5277 C   0  0  0  0  0  0  0  0  0  0  0  0
   -0.4555    0.0128    3.6956 N   0  0  0  0  0  0  0  0  0  0  0  0
   -1.4032   -0.0420    3.9866 H   0  0  0  0  0  0  0  0  0  0  0  0
    0.0016    0.0010    2.3759 C   0  0  0  0  0  0  0  0  0  0  0  0
   -0.7237   -0.0002    1.1768 C   0  0  0  0  0  0  0  0  0  0  0  0
    0.6350   -0.0041    6.0160 C   0  0  2  0  0  0  0  0  0  0  0  0
   -0.2401    0.6175    6.3865 H   0  0  0  0  0  0  0  0  0  0  0  0
    1.8653    0.6470    6.5249 N   0  0  0  0  0  0  0  0  0  0  0  0
    1.8550    1.0989    7.8270 C   0  0  0  0  0  0  0  0  0  0  0  0
    0.8357    1.1119    8.4854 O   0  0  0  0  0  0  0  0  0  0  0  0
    3.1733    1.6247    8.3912 C   0  0  0  0  0  0  0  0  0  0  0  0
    4.3413    0.9224    7.8645 N   0  0  0  0  0  0  0  0  0  0  0  0
    4.2990    0.3726    6.5974 C   0  0  0  0  0  0  0  0  0  0  0  0
    5.2003   -0.3197    6.1792 O   0  0  0  0  0  0  0  0  0  0  0  0
    3.0948    0.7862    5.7278 C   0  0  1  0  0  0  0  0  0  0  0  0
    3.2015    1.8782    5.4626 H   0  0  0  0  0  0  0  0  0  0  0  0
    3.1422   -0.0317    4.4188 C   0  0  0  0  0  0  0  0  0  0  0  0
    5.2830    0.3787    8.8448 C   0  0  0  0  0  0  0  0  0  0  0  0
    0.5279   -1.4075    6.5856 C   0  0  0  0  0  0  0  0  0  0  0  0
    1.1334   -2.4896    5.9563 C   0  0  0  0  0  0  0  0  0  0  0  0
    1.0656   -3.7919    6.4848 C   0  0  0  0  0  0  0  0  0  0  0  0
    0.3626   -3.9324    7.6560 C   0  0  0  0  0  0  0  0  0  0  0  0
    0.1400   -5.0810    8.3720 O   0  0  0  0  0  0  0  0  0  0  0  0
   -0.6556   -4.6727    9.5087 C   0  0  0  0  0  0  0  0  0  0  0  0
   -0.8915   -3.2494    9.4415 O   0  0  0  0  0  0  0  0  0  0  0  0
   -0.2550   -2.8324    8.2972 C   0  0  0  0  0  0  0  0  0  0  0  0
   -0.1892   -1.5594    7.7913 C   0  0  0  0  0  0  0  0  0  0  0  0
   -0.5216   -0.0007   -0.9564 H   0  0  0  0  0  0  0  0  0  0  0  0
    1.9324   -0.0012   -0.9556 H   0  0  0  0  0  0  0  0  0  0  0  0
    3.2209   -0.0003    1.1781 H   0  0  0  0  0  0  0  0  0  0  0  0
   -1.8077   -0.0016    1.1785 H   0  0  0  0  0  0  0  0  0  0  0  0
    3.2617    2.7137    8.1505 H   0  0  0  0  0  0  0  0  0  0  0  0
    3.1294    1.5551    9.5054 H   0  0  0  0  0  0  0  0  0  0  0  0
    3.9430    0.3727    3.7634 H   0  0  0  0  0  0  0  0  0  0  0  0
    3.4611   -1.0820    4.6276 H   0  0  0  0  0  0  0  0  0  0  0  0
    5.5864    1.1617    9.5589 H   0  0  0  0  0  0  0  0  0  0  0  0
    6.1972    0.0218    8.3270 H   0  0  0  0  0  0  0  0  0  0  0  0
    4.8551   -0.4755    9.3975 H   0  0  0  0  0  0  0  0  0  0  0  0
    1.6792   -2.3405    5.0218 H   0  0  0  0  0  0  0  0  0  0  0  0
    1.5466   -4.6297    5.9909 H   0  0  0  0  0  0  0  0  0  0  0  0
   -1.6281   -5.1788    9.4340 H   0  0  0  0  0  0  0  0  0  0  0  0
   -0.0720   -4.8745   10.4174 H   0  0  0  0  0  0  0  0  0  0  0  0
   -0.6429   -0.7083    8.3001 H   0  0  0  0  0  0  0  0  0  0  0  0
  1 10  1  0  0  0  0
  2  1  2  0  0  0  0
  2  3  1  0  0  0  0
  3  4  2  0  0  0  0
  4  5  1  0  0  0  0
  5 22  1  0  0  0  0
  5  6  2  0  0  0  0
  6 11  1  0  0  0  0
  7  8  1  0  0  0  0
  7  6  1  0  0  0  0
  9  4  1  0  0  0  0
  9  7  1  0  0  0  0
 10 36  1  0  0  0  0
 10  9  2  0  0  0  0
 11 12  1  1  0  0  0
 11 13  1  0  0  0  0
 11 24  1  0  0  0  0
 13 14  1  0  0  0  0
 14 16  1  0  0  0  0
 14 15  2  0  0  0  0
 16 38  1  0  0  0  0
 17 16  1  0  0  0  0
 17 23  1  0  0  0  0
 18 17  1  0  0  0  0
 19 18  2  0  0  0  0
 20 21  1  6  0  0  0
 20 13  1  0  0  0  0
 20 18  1  0  0  0  0
 22 40  1  0  0  0  0
 22 20  1  0  0  0  0
 23 43  1  0  0  0  0
 23 41  1  0  0  0  0
 24 32  2  0  0  0  0
 25 26  2  0  0  0  0
 25 24  1  0  0  0  0
 26 27  1  0  0  0  0
 27 31  2  0  0  0  0
 27 28  1  0  0  0  0
 28 29  1  0  0  0  0
 29 47  1  0  0  0  0
 30 29  1  0  0  0  0
 31 30  1  0  0  0  0
 32 31  1  0  0  0  0
 32 48  1  0  0  0  0
 33  1  1  0  0  0  0
 34  2  1  0  0  0  0
 35  3  1  0  0  0  0
 37 16  1  0  0  0  0
 39 22  1  0  0  0  0
 42 23  1  0  0  0  0
 44 25  1  0  0  0  0
 45 26  1  0  0  0  0
 46 29  1  0  0  0  0
M  END
$$$$
