48
rmsd4.gzmat
C          0.00000        0.00000        0.00000
C          1.41250        0.00000        0.00000
C          2.13380        0.00000        1.17880
C          1.43750        0.00240        2.39170
C          1.82500       -0.00010        3.76850
C          0.66330        0.00710        4.52640
N         -0.45480        0.02450        3.69540
H         -1.40220       -0.02290        3.98820
C          0.00170        0.00630        2.37550
C         -0.72410        0.00230        1.17650
C          0.64000        0.02050        6.01450
H         -0.24120        0.63430        6.38410
N          1.86380        0.69020        6.51240
C          1.85220        1.16000        7.80850
O          0.83360        1.18100        8.46670
C          3.17450        1.69200        8.35810
N          4.32990        0.94420        7.86630
C          4.29290        0.38690        6.60160
O          5.18800       -0.32010        6.19560
C          3.09950        0.80870        5.72070
H          3.21950        1.89730        5.44730
C          3.14410       -0.01880        4.41710
C          5.21860        0.37050        8.87780
C          0.54810       -1.38170        6.58940
C          1.15680       -2.46170        5.95970
C          1.09330       -3.76460        6.48730
C          0.39100       -3.90760        7.65850
O          0.17120       -5.05730        8.37360
C         -0.61740       -4.65030        9.51520
O         -0.85760       -3.22770        9.44880
C         -0.22700       -2.80920        8.30190
C         -0.16550       -1.53580        7.79650
H         -0.52160       -0.00220       -0.95630
H          1.93290       -0.00030       -0.95530
H          3.22130       -0.00210        1.17770
H         -1.80810        0.00180        1.17820
H          3.28290        2.76730        8.07040
H          3.12660        1.67290        9.47350
H          3.94460        0.38000        3.75800
H          3.46250       -1.06780        4.63340
H          5.66220        1.17410        9.48910
H          6.04930       -0.17690        8.38750
H          4.68930       -0.33990        9.53540
H          1.70030       -2.31180        5.02390
H          1.57510       -4.60050        5.99110
H         -1.58870       -5.15890        9.44880
H         -0.02550       -4.84920       10.41900
H         -0.62120       -0.68610        8.30540
