48
rmsd11.gzmat
C          0.00000        0.00000        0.00000
C          1.41260        0.00000        0.00000
C          2.13410        0.00000        1.17880
C          1.43820       -0.00190        2.39200
C          1.82520       -0.02500        3.76920
C          0.66330       -0.02740        4.52610
N         -0.45460        0.01160        3.69520
H         -1.40200       -0.04470        3.98710
C          0.00240        0.00500        2.37540
C         -0.72410        0.00410        1.17650
C          0.63010       -0.08430        6.01300
H         -0.22010        0.55430        6.41070
N          1.88400        0.47970        6.56520
C          1.87470        0.85290        7.89120
O          0.85550        0.81620        8.54960
C          3.18650        1.35110        8.49160
N          4.36800        0.74080        7.88800
C          4.32980        0.28860        6.58450
O          5.25980       -0.32060        6.10230
C          3.09430        0.69750        5.75730
H          3.16220        1.80110        5.53170
C          3.14350       -0.07130        4.41780
C          5.36240        0.18560        8.80870
C          0.45200       -1.51400        6.49360
C          1.06600       -2.57260        5.83310
C          0.91560       -3.90450        6.25970
C          0.12550       -4.09670        7.36650
O         -0.18600       -5.28250        7.98150
C         -1.04200       -4.92270        9.09000
O         -1.22830       -3.49070        9.10610
C         -0.49840       -3.02070        8.04080
C         -0.35190       -1.71870        7.63480
H         -0.52100       -0.00520       -0.95670
H          1.93170       -0.00180       -0.95610
H          3.22170       -0.00100        1.17790
H         -1.80810        0.00360        1.17900
H          3.24090        2.46190        8.36560
H          3.15700        1.16590        9.59360
H          3.94470        0.35770        3.77820
H          3.46190       -1.12810        4.58830
H          5.70300        0.96240        9.51350
H          6.24880       -0.16470        8.23960
H          4.96290       -0.67470        9.37380
H          1.68300       -2.37950        4.95240
H          1.39910       -4.72420        5.73920
H         -2.02280       -5.38680        8.91900
H         -0.52390       -5.20600       10.01660
H         -0.80560       -0.88700        8.17320
