rmsd12.gzmat
 OpenBabel08211713373D

 48 53  0  0  1  0  0  0  0  0999 V2000
    0.0000    0.0000    0.0000 C   0  0  0  0  0  0  0  0  0  0  0  0
    1.4128    0.0000    0.0000 C   0  0  0  0  0  0  0  0  0  0  0  0
    2.1336    0.0000    1.1790 C   0  0  0  0  0  0  0  0  0  0  0  0
    1.4370   -0.0002    2.3919 C   0  0  0  0  0  0  0  0  0  0  0  0
    1.8239   -0.0051    3.7683 C   0  0  0  0  0  0  0  0  0  0  0  0
    0.6616   -0.0063    4.5271 C   0  0  0  0  0  0  0  0  0  0  0  0
   -0.4560    0.0111    3.6960 N   0  0  0  0  0  0  0  0  0  0  0  0
   -1.4041   -0.0350    3.9875 H   0  0  0  0  0  0  0  0  0  0  0  0
    0.0008    0.0006    2.3758 C   0  0  0  0  0  0  0  0  0  0  0  0
   -0.7243    0.0002    1.1764 C   0  0  0  0  0  0  0  0  0  0  0  0
    0.6483   -0.0029    6.0161 C   0  0  2  0  0  0  0  0  0  0  0  0
   -0.2554    0.5661    6.4006 H   0  0  0  0  0  0  0  0  0  0  0  0
    1.8493    0.7186    6.5016 N   0  0  0  0  0  0  0  0  0  0  0  0
    1.8205    1.2378    7.7769 C   0  0  0  0  0  0  0  0  0  0  0  0
    0.8007    1.2489    8.4352 O   0  0  0  0  0  0  0  0  0  0  0  0
    3.1186    1.8389    8.3134 C   0  0  0  0  0  0  0  0  0  0  0  0
    4.3112    1.1579    7.8152 N   0  0  0  0  0  0  0  0  0  0  0  0
    4.2934    0.5455    6.5783 C   0  0  0  0  0  0  0  0  0  0  0  0
    5.2221   -0.1283    6.1904 O   0  0  0  0  0  0  0  0  0  0  0  0
    3.0722    0.8692    5.6958 C   0  0  1  0  0  0  0  0  0  0  0  0
    3.1365    1.9507    5.3780 H   0  0  0  0  0  0  0  0  0  0  0  0
    3.1392   -0.0066    4.4258 C   0  0  0  0  0  0  0  0  0  0  0  0
    5.3058    0.7568    8.8107 C   0  0  0  0  0  0  0  0  0  0  0  0
    0.6325   -1.4095    6.5896 C   0  0  0  0  0  0  0  0  0  0  0  0
    1.1930   -2.4801    5.9018 C   0  0  0  0  0  0  0  0  0  0  0  0
    1.2168   -3.7811    6.4378 C   0  0  0  0  0  0  0  0  0  0  0  0
    0.6520   -3.9328    7.6800 C   0  0  0  0  0  0  0  0  0  0  0  0
    0.5488   -5.0803    8.4245 O   0  0  0  0  0  0  0  0  0  0  0  0
   -0.1116   -4.6822    9.6479 C   0  0  0  0  0  0  0  0  0  0  0  0
   -0.4138   -3.2709    9.5912 O   0  0  0  0  0  0  0  0  0  0  0  0
    0.0750   -2.8459    8.3791 C   0  0  0  0  0  0  0  0  0  0  0  0
    0.0476   -1.5757    7.8631 C   0  0  0  0  0  0  0  0  0  0  0  0
   -0.5208    0.0002   -0.9568 H   0  0  0  0  0  0  0  0  0  0  0  0
    1.9322    0.0002   -0.9559 H   0  0  0  0  0  0  0  0  0  0  0  0
    3.2213   -0.0006    1.1792 H   0  0  0  0  0  0  0  0  0  0  0  0
   -1.8084    0.0018    1.1777 H   0  0  0  0  0  0  0  0  0  0  0  0
    3.1620    2.9200    8.0289 H   0  0  0  0  0  0  0  0  0  0  0  0
    3.0792    1.8118    9.4299 H   0  0  0  0  0  0  0  0  0  0  0  0
    3.9476    0.3671    3.7623 H   0  0  0  0  0  0  0  0  0  0  0  0
    3.4522   -1.0462    4.6875 H   0  0  0  0  0  0  0  0  0  0  0  0
    5.6697    1.6425    9.3586 H   0  0  0  0  0  0  0  0  0  0  0  0
    6.1778    0.2889    8.3080 H   0  0  0  0  0  0  0  0  0  0  0  0
    4.8995    0.0225    9.5281 H   0  0  0  0  0  0  0  0  0  0  0  0
    1.6313   -2.3264    4.9125 H   0  0  0  0  0  0  0  0  0  0  0  0
    1.6621   -4.6083    5.8954 H   0  0  0  0  0  0  0  0  0  0  0  0
   -1.0631   -5.2279    9.7072 H   0  0  0  0  0  0  0  0  0  0  0  0
    0.5919   -4.8419   10.4767 H   0  0  0  0  0  0  0  0  0  0  0  0
   -0.3820   -0.7360    8.4111 H   0  0  0  0  0  0  0  0  0  0  0  0
  1 10  1  0  0  0  0
  2  1  2  0  0  0  0
  2  3  1  0  0  0  0
  3 35  1  0  0  0  0
  3  4  2  0  0  0  0
  4  5  1  0  0  0  0
  5 22  1  0  0  0  0
  5  6  2  0  0  0  0
  6 11  1  0  0  0  0
  7  8  1  0  0  0  0
  7  6  1  0  0  0  0
  9  4  1  0  0  0  0
  9  7  1  0  0  0  0
 10 36  1  0  0  0  0
 10  9  2  0  0  0  0
 11 12  1  1  0  0  0
 11 13  1  0  0  0  0
 11 24  1  0  0  0  0
 13 14  1  0  0  0  0
 14 16  1  0  0  0  0
 14 15  2  0  0  0  0
 16 38  1  0  0  0  0
 17 16  1  0  0  0  0
 17 23  1  0  0  0  0
 18 17  1  0  0  0  0
 19 18  2  0  0  0  0
 20 21  1  6  0  0  0
 20 13  1  0  0  0  0
 20 18  1  0  0  0  0
 22 40  1  0  0  0  0
 22 20  1  0  0  0  0
 23 41  1  0  0  0  0
 23 43  1  0  0  0  0
 24 32  2  0  0  0  0
 25 26  2  0  0  0  0
 25 24  1  0  0  0  0
 26 27  1  0  0  0  0
 27 31  2  0  0  0  0
 27 28  1  0  0  0  0
 28 29  1  0  0  0  0
 29 46  1  0  0  0  0
 29 47  1  0  0  0  0
 30 29  1  0  0  0  0
 31 30  1  0  0  0  0
 32 31  1  0  0  0  0
 32 48  1  0  0  0  0
 33  1  1  0  0  0  0
 34  2  1  0  0  0  0
 37 16  1  0  0  0  0
 39 22  1  0  0  0  0
 42 23  1  0  0  0  0
 44 25  1  0  0  0  0
 45 26  1  0  0  0  0
M  END
$$$$
