48
rmsd9.gzmat
C          0.00000        0.00000        0.00000
C          1.41250        0.00000        0.00000
C          2.13340        0.00000        1.17920
C          1.43740       -0.00110        2.39250
C          1.82380       -0.01010        3.76980
C          0.66210       -0.00900        4.52770
N         -0.45550        0.01280        3.69560
H         -1.40320       -0.04200        3.98660
C          0.00160        0.00100        2.37590
C         -0.72370       -0.00020        1.17680
C          0.63500       -0.00410        6.01600
H         -0.24010        0.61750        6.38650
N          1.86530        0.64700        6.52490
C          1.85500        1.09890        7.82700
O          0.83570        1.11190        8.48540
C          3.17330        1.62470        8.39120
N          4.34130        0.92240        7.86450
C          4.29900        0.37260        6.59740
O          5.20030       -0.31970        6.17920
C          3.09480        0.78620        5.72780
H          3.20150        1.87820        5.46260
C          3.14220       -0.03170        4.41880
C          5.28300        0.37870        8.84480
C          0.52790       -1.40750        6.58560
C          1.13340       -2.48960        5.95630
C          1.06560       -3.79190        6.48480
C          0.36260       -3.93240        7.65600
O          0.14000       -5.08100        8.37200
C         -0.65560       -4.67270        9.50870
O         -0.89150       -3.24940        9.44150
C         -0.25500       -2.83240        8.29720
C         -0.18920       -1.55940        7.79130
H         -0.52160       -0.00070       -0.95640
H          1.93240       -0.00120       -0.95560
H          3.22090       -0.00030        1.17810
H         -1.80770       -0.00160        1.17850
H          3.26170        2.71370        8.15050
H          3.12940        1.55510        9.50540
H          3.94300        0.37270        3.76340
H          3.46110       -1.08200        4.62760
H          5.58640        1.16170        9.55890
H          6.19720        0.02180        8.32700
H          4.85510       -0.47550        9.39750
H          1.67920       -2.34050        5.02180
H          1.54660       -4.62970        5.99090
H         -1.62810       -5.17880        9.43400
H         -0.07200       -4.87450       10.41740
H         -0.64290       -0.70830        8.30010
