48
rmsd2.gzmat
C          0.00000        0.00000        0.00000
C          1.41270        0.00000        0.00000
C          2.13440        0.00000        1.17870
C          1.43890        0.00340        2.39210
C          1.82570        0.00430        3.76900
C          0.66330        0.01200        4.52680
N         -0.45440        0.02770        3.69510
H         -1.40130       -0.02990        3.98710
C          0.00300        0.00600        2.37550
C         -0.72350        0.00140        1.17690
C          0.63890        0.02780        6.01490
H         -0.24780        0.63420        6.38260
N          1.85990        0.70480        6.51420
C          1.83000        1.22700        7.78710
O          0.81060        1.23460        8.44730
C          3.12430        1.83280        8.32610
N          4.32500        1.18130        7.80840
C          4.30600        0.57470        6.56770
O          5.24590       -0.07520        6.16740
C          3.07190        0.87820        5.69650
H          3.11760        1.96010        5.37740
C          3.14050        0.00100        4.42770
C          5.32950        0.77980        8.79460
C          0.55460       -1.37370        6.59370
C         -0.08860       -1.53610        7.81790
C         -0.20610       -2.79310        8.43750
C          0.35300       -3.85150        7.76390
O          0.37920       -5.16970        8.14230
C          1.09750       -5.85280        7.08910
O          1.47040       -4.90070        6.06820
C          1.00710       -3.68860        6.52010
C          1.12430       -2.46570        5.90870
H         -0.52170       -0.00280       -0.95650
H          1.93260       -0.00150       -0.95550
H          3.22200       -0.00440        1.17620
H         -1.80760       -0.00110        1.17920
H          3.15050        2.91990        8.06080
H          3.09140        1.78490        9.44240
H          3.95060        0.37350        3.76530
H          3.45180       -1.03890        4.69060
H          5.65350        1.65520        9.38260
H          6.22250        0.36970        8.27850
H          4.94950        0.00260        9.48000
H         -0.50560       -0.66360        8.33230
H         -0.70730       -2.90930        9.39230
H          2.02140       -6.25870        7.52450
H          0.41210       -6.58190        6.63610
H          1.62540       -2.34720        4.95010
