
     RDKit          3D

 45 48  0  0  0  0  0  0  0  0999 V2000
    0.0078    0.0312   -0.0774 N   0  0  0  0  0  0  0  0  0  0  0  0
    1.0483    0.0066   -0.1840 H   0  0  0  0  0  0  0  0  0  0  0  0
   -0.6061    0.0362   -1.2884 C   0  0  0  0  0  0  0  0  0  0  0  0
    0.1506    0.0108   -2.4544 C   0  0  0  0  0  0  0  0  0  0  0  0
    1.5852   -0.0224   -2.4153 C   0  0  0  0  0  0  0  0  0  0  0  0
    2.2371   -0.0239   -1.3457 O   0  0  0  0  0  0  0  0  0  0  0  0
    2.3476   -0.0478   -3.7092 C   0  0  0  0  0  0  0  0  0  0  0  0
    3.7467    0.0599   -3.6428 C   0  0  0  0  0  0  0  0  0  0  0  0
    4.5181    0.0441   -4.8036 C   0  0  0  0  0  0  0  0  0  0  0  0
    3.9018   -0.0857   -6.0525 C   0  0  0  0  0  0  0  0  0  0  0  0
    2.5109   -0.2004   -6.1306 C   0  0  0  0  0  0  0  0  0  0  0  0
    1.7385   -0.1807   -4.9682 C   0  0  0  0  0  0  0  0  0  0  0  0
   -1.9952    0.0756   -1.2991 N   0  0  0  0  0  0  0  0  0  0  0  0
   -2.7953    0.1786   -0.1374 C   0  0  0  0  0  0  0  0  0  0  0  0
   -4.0031    0.2689   -0.2291 O   0  0  0  0  0  0  0  0  0  0  0  0
   -2.0554    0.1672    1.1359 C   0  0  0  0  0  0  0  0  0  0  0  0
   -2.7477    0.2354    2.3540 C   0  0  0  0  0  0  0  0  0  0  0  0
   -2.0505    0.2248    3.5564 C   0  0  0  0  0  0  0  0  0  0  0  0
   -0.6470    0.1470    3.5428 C   0  0  0  0  0  0  0  0  0  0  0  0
    0.0564    0.0800    2.3456 C   0  0  0  0  0  0  0  0  0  0  0  0
   -0.6487    0.0897    1.1280 C   0  0  0  0  0  0  0  0  0  0  0  0
   -2.6817    0.0554   -2.5662 C   0  0  0  0  0  0  0  0  0  0  0  0
   -2.9174   -1.1724   -3.1842 C   0  0  0  0  0  0  0  0  0  0  0  0
   -3.5573   -1.2153   -4.4234 C   0  0  0  0  0  0  0  0  0  0  0  0
   -3.9584   -0.0225   -5.0296 C   0  0  0  0  0  0  0  0  0  0  0  0
   -3.7222    1.2005   -4.3975 C   0  0  0  0  0  0  0  0  0  0  0  0
   -3.0802    1.2671   -3.1532 C   0  0  0  0  0  0  0  0  0  0  0  0
   -2.8358    2.5772   -2.4565 C   0  0  0  0  0  0  0  0  0  0  0  0
   -0.3753    0.0305   -3.4004 H   0  0  0  0  0  0  0  0  0  0  0  0
    4.2032    0.1549   -2.6568 H   0  0  0  0  0  0  0  0  0  0  0  0
    5.6052    0.1322   -4.7366 H   0  0  0  0  0  0  0  0  0  0  0  0
    4.5046   -0.0997   -6.9640 H   0  0  0  0  0  0  0  0  0  0  0  0
    2.0239   -0.3079   -7.1028 H   0  0  0  0  0  0  0  0  0  0  0  0
    0.6560   -0.2817   -5.0531 H   0  0  0  0  0  0  0  0  0  0  0  0
   -3.8367    0.2960    2.3183 H   0  0  0  0  0  0  0  0  0  0  0  0
   -2.5870    0.2767    4.5056 H   0  0  0  0  0  0  0  0  0  0  0  0
   -0.0954    0.1390    4.4860 H   0  0  0  0  0  0  0  0  0  0  0  0
    1.1466    0.0206    2.3348 H   0  0  0  0  0  0  0  0  0  0  0  0
   -2.5892   -2.0876   -2.6880 H   0  0  0  0  0  0  0  0  0  0  0  0
   -3.7429   -2.1750   -4.9103 H   0  0  0  0  0  0  0  0  0  0  0  0
   -4.4601   -0.0430   -5.9999 H   0  0  0  0  0  0  0  0  0  0  0  0
   -4.0423    2.1292   -4.8764 H   0  0  0  0  0  0  0  0  0  0  0  0
   -3.4518    2.6457   -1.5452 H   0  0  0  0  0  0  0  0  0  0  0  0
   -3.0904    3.4252   -3.1072 H   0  0  0  0  0  0  0  0  0  0  0  0
   -1.7820    2.6804   -2.1530 H   0  0  0  0  0  0  0  0  0  0  0  0
  1  2  1  0
  1  3  1  0
  1 21  1  0
  3  4  2  0
  3 13  1  0
  4  5  1  0
  4 29  1  0
  5  6  2  0
  5  7  1  0
  7  8  2  0
  7 12  1  0
  8  9  1  0
  8 30  1  0
  9 10  2  0
  9 31  1  0
 10 11  1  0
 10 32  1  0
 11 12  2  0
 11 33  1  0
 12 34  1  0
 13 14  1  0
 13 22  1  0
 14 15  2  0
 14 16  1  0
 16 17  1  0
 16 21  2  0
 17 18  2  0
 17 35  1  0
 18 19  1  0
 18 36  1  0
 19 20  2  0
 19 37  1  0
 20 21  1  0
 20 38  1  0
 22 23  2  0
 22 27  1  0
 23 24  1  0
 23 39  1  0
 24 25  2  0
 24 40  1  0
 25 26  1  0
 25 41  1  0
 26 27  2  0
 26 42  1  0
 27 28  1  0
 28 43  1  0
 28 44  1  0
 28 45  1  0
M  END

