rmsd11.gzmat
 OpenBabel08211713383D

 45 48  0  0  0  0  0  0  0  0999 V2000
    0.0000    0.0000    0.0000 N   0  0  0  0  0  0  0  0  0  0  0  0
    1.0514    0.0000    0.0000 H   0  0  0  0  0  0  0  0  0  0  0  0
   -0.6045    0.0000   -1.2527 C   0  0  0  0  0  0  0  0  0  0  0  0
    0.1659   -0.0031   -2.3983 C   0  0  0  0  0  0  0  0  0  0  0  0
    1.6006    0.0346   -2.3710 C   0  0  0  0  0  0  0  0  0  0  0  0
    2.2365    0.0246   -1.3182 O   0  0  0  0  0  0  0  0  0  0  0  0
    2.3498    0.0804   -3.6528 C   0  0  0  0  0  0  0  0  0  0  0  0
    1.8103    0.6746   -4.7942 C   0  0  0  0  0  0  0  0  0  0  0  0
    2.5490    0.7042   -5.9748 C   0  0  0  0  0  0  0  0  0  0  0  0
    3.8257    0.1449   -6.0136 C   0  0  0  0  0  0  0  0  0  0  0  0
    4.3692   -0.4394   -4.8705 C   0  0  0  0  0  0  0  0  0  0  0  0
    3.6335   -0.4687   -3.6880 C   0  0  0  0  0  0  0  0  0  0  0  0
   -2.0011    0.0056   -1.2853 N   0  0  0  0  0  0  0  0  0  0  0  0
   -2.8265   -0.0429   -0.1249 C   0  0  0  0  0  0  0  0  0  0  0  0
   -4.0237   -0.0702   -0.2731 O   0  0  0  0  0  0  0  0  0  0  0  0
   -2.1207   -0.0499    1.1530 C   0  0  0  0  0  0  0  0  0  0  0  0
   -2.8461   -0.0768    2.3512 C   0  0  0  0  0  0  0  0  0  0  0  0
   -2.1767   -0.0753    3.5640 C   0  0  0  0  0  0  0  0  0  0  0  0
   -0.7742   -0.0484    3.5929 C   0  0  0  0  0  0  0  0  0  0  0  0
   -0.0368   -0.0223    2.4218 C   0  0  0  0  0  0  0  0  0  0  0  0
   -0.7165   -0.0234    1.1866 C   0  0  0  0  0  0  0  0  0  0  0  0
   -2.6641    0.1235   -2.5599 C   0  0  0  0  0  0  0  0  0  0  0  0
   -3.2383   -1.0219   -3.1169 C   0  0  0  0  0  0  0  0  0  0  0  0
   -3.9083   -0.9249   -4.3330 C   0  0  0  0  0  0  0  0  0  0  0  0
   -4.0007    0.3058   -4.9806 C   0  0  0  0  0  0  0  0  0  0  0  0
   -3.4241    1.4424   -4.4191 C   0  0  0  0  0  0  0  0  0  0  0  0
   -2.7493    1.3715   -3.1985 C   0  0  0  0  0  0  0  0  0  0  0  0
   -2.1410    2.5901   -2.5998 C   0  0  0  0  0  0  0  0  0  0  0  0
   -0.3163   -0.0625   -3.3693 H   0  0  0  0  0  0  0  0  0  0  0  0
    0.8164    1.1217   -4.7650 H   0  0  0  0  0  0  0  0  0  0  0  0
    2.1287    1.1645   -6.8661 H   0  0  0  0  0  0  0  0  0  0  0  0
    4.4003    0.1676   -6.9377 H   0  0  0  0  0  0  0  0  0  0  0  0
    5.3684   -0.8684   -4.9004 H   0  0  0  0  0  0  0  0  0  0  0  0
    4.0541   -0.9111   -2.7820 H   0  0  0  0  0  0  0  0  0  0  0  0
   -3.9399   -0.0993    2.3095 H   0  0  0  0  0  0  0  0  0  0  0  0
   -2.7331   -0.0965    4.4978 H   0  0  0  0  0  0  0  0  0  0  0  0
   -0.2601   -0.0484    4.5561 H   0  0  0  0  0  0  0  0  0  0  0  0
    1.0506   -0.0031    2.4467 H   0  0  0  0  0  0  0  0  0  0  0  0
   -3.1698   -1.9765   -2.5956 H   0  0  0  0  0  0  0  0  0  0  0  0
   -4.3640   -1.8093   -4.7738 H   0  0  0  0  0  0  0  0  0  0  0  0
   -4.5306    0.3807   -5.9290 H   0  0  0  0  0  0  0  0  0  0  0  0
   -3.5065    2.3984   -4.9328 H   0  0  0  0  0  0  0  0  0  0  0  0
   -2.5658    2.8028   -1.6060 H   0  0  0  0  0  0  0  0  0  0  0  0
   -2.2952    3.4889   -3.2114 H   0  0  0  0  0  0  0  0  0  0  0  0
   -1.0518    2.4737   -2.4674 H   0  0  0  0  0  0  0  0  0  0  0  0
  1  2  1  0  0  0  0
  1 21  1  0  0  0  0
  3  1  1  0  0  0  0
  4  5  1  0  0  0  0
  4  3  2  0  0  0  0
  5  6  2  0  0  0  0
  7  5  1  0  0  0  0
  8 30  1  0  0  0  0
  8  7  2  0  0  0  0
  9  8  1  0  0  0  0
 10  9  2  0  0  0  0
 10 11  1  0  0  0  0
 11 12  2  0  0  0  0
 12  7  1  0  0  0  0
 12 34  1  0  0  0  0
 13  3  1  0  0  0  0
 13 14  1  0  0  0  0
 14 16  1  0  0  0  0
 15 14  2  0  0  0  0
 16 21  2  0  0  0  0
 16 17  1  0  0  0  0
 17 18  2  0  0  0  0
 18 19  1  0  0  0  0
 18 36  1  0  0  0  0
 19 37  1  0  0  0  0
 20 38  1  0  0  0  0
 20 19  2  0  0  0  0
 21 20  1  0  0  0  0
 22 13  1  0  0  0  0
 23 39  1  0  0  0  0
 23 22  1  0  0  0  0
 24 23  2  0  0  0  0
 25 26  2  0  0  0  0
 25 24  1  0  0  0  0
 26 27  1  0  0  0  0
 27 28  1  0  0  0  0
 27 22  2  0  0  0  0
 28 45  1  0  0  0  0
 28 43  1  0  0  0  0
 29  4  1  0  0  0  0
 31  9  1  0  0  0  0
 32 10  1  0  0  0  0
 33 11  1  0  0  0  0
 35 17  1  0  0  0  0
 40 24  1  0  0  0  0
 41 25  1  0  0  0  0
 42 26  1  0  0  0  0
 44 28  1  0  0  0  0
M  END
$$$$
