rmsd5.gzmat
 OpenBabel08211713383D

 45 48  0  0  0  0  0  0  0  0999 V2000
    0.0000    0.0000    0.0000 N   0  0  0  0  0  0  0  0  0  0  0  0
    1.0209    0.0000    0.0000 H   0  0  0  0  0  0  0  0  0  0  0  0
   -0.6555    0.0000   -1.2416 C   0  0  0  0  0  0  0  0  0  0  0  0
    0.0353   -0.1135   -2.4121 C   0  0  0  0  0  0  0  0  0  0  0  0
    1.4754   -0.0455   -2.5939 C   0  0  0  0  0  0  0  0  0  0  0  0
    2.0656   -0.7111   -3.4134 O   0  0  0  0  0  0  0  0  0  0  0  0
    2.2315    0.9304   -1.7482 C   0  0  0  0  0  0  0  0  0  0  0  0
    1.7763    2.2431   -1.6263 C   0  0  0  0  0  0  0  0  0  0  0  0
    2.4811    3.1465   -0.8347 C   0  0  0  0  0  0  0  0  0  0  0  0
    3.6360    2.7356   -0.1696 C   0  0  0  0  0  0  0  0  0  0  0  0
    4.0949    1.4262   -0.3049 C   0  0  0  0  0  0  0  0  0  0  0  0
    3.3973    0.5220   -1.1034 C   0  0  0  0  0  0  0  0  0  0  0  0
   -2.0549    0.0828   -1.2020 N   0  0  0  0  0  0  0  0  0  0  0  0
   -2.8286    0.0777   -0.0130 C   0  0  0  0  0  0  0  0  0  0  0  0
   -4.0328    0.0542   -0.1040 O   0  0  0  0  0  0  0  0  0  0  0  0
   -2.0723    0.1271    1.2371 C   0  0  0  0  0  0  0  0  0  0  0  0
   -2.7468    0.2043    2.4609 C   0  0  0  0  0  0  0  0  0  0  0  0
   -2.0276    0.2726    3.6443 C   0  0  0  0  0  0  0  0  0  0  0  0
   -0.6260    0.2618    3.6154 C   0  0  0  0  0  0  0  0  0  0  0  0
    0.0628    0.1827    2.4158 C   0  0  0  0  0  0  0  0  0  0  0  0
   -0.6687    0.1116    1.2128 C   0  0  0  0  0  0  0  0  0  0  0  0
   -2.7631    0.1803   -2.4542 C   0  0  0  0  0  0  0  0  0  0  0  0
   -2.8356    1.4331   -3.0714 C   0  0  0  0  0  0  0  0  0  0  0  0
   -3.5258    1.5607   -4.2719 C   0  0  0  0  0  0  0  0  0  0  0  0
   -4.1404    0.4466   -4.8427 C   0  0  0  0  0  0  0  0  0  0  0  0
   -4.0657   -0.7964   -4.2206 C   0  0  0  0  0  0  0  0  0  0  0  0
   -3.3724   -0.9514   -3.0169 C   0  0  0  0  0  0  0  0  0  0  0  0
   -3.2931   -2.2794   -2.3526 C   0  0  0  0  0  0  0  0  0  0  0  0
   -0.5027   -0.3015   -3.3463 H   0  0  0  0  0  0  0  0  0  0  0  0
    0.8737    2.5585   -2.1511 H   0  0  0  0  0  0  0  0  0  0  0  0
    2.1302    4.1719   -0.7362 H   0  0  0  0  0  0  0  0  0  0  0  0
    4.1838    3.4414    0.4523 H   0  0  0  0  0  0  0  0  0  0  0  0
    5.0036    1.1126    0.2051 H   0  0  0  0  0  0  0  0  0  0  0  0
    3.7646   -0.4964   -1.2371 H   0  0  0  0  0  0  0  0  0  0  0  0
   -3.8420    0.2114    2.4654 H   0  0  0  0  0  0  0  0  0  0  0  0
   -2.5472    0.3361    4.5975 H   0  0  0  0  0  0  0  0  0  0  0  0
   -0.0709    0.3160    4.5541 H   0  0  0  0  0  0  0  0  0  0  0  0
    1.1491    0.1766    2.3999 H   0  0  0  0  0  0  0  0  0  0  0  0
   -2.3554    2.2966   -2.6131 H   0  0  0  0  0  0  0  0  0  0  0  0
   -3.5874    2.5296   -4.7633 H   0  0  0  0  0  0  0  0  0  0  0  0
   -4.6821    0.5493   -5.7819 H   0  0  0  0  0  0  0  0  0  0  0  0
   -4.5533   -1.6574   -4.6747 H   0  0  0  0  0  0  0  0  0  0  0  0
   -2.2522   -2.5618   -2.1280 H   0  0  0  0  0  0  0  0  0  0  0  0
   -3.7239   -3.0874   -2.9578 H   0  0  0  0  0  0  0  0  0  0  0  0
   -3.8397   -2.2680   -1.3932 H   0  0  0  0  0  0  0  0  0  0  0  0
  1  2  1  0  0  0  0
  1 21  1  0  0  0  0
  3 13  1  0  0  0  0
  3  1  1  0  0  0  0
  4  3  2  0  0  0  0
  5  4  1  0  0  0  0
  5  7  1  0  0  0  0
  6  5  2  0  0  0  0
  7  8  2  0  0  0  0
  7 12  1  0  0  0  0
  8  9  1  0  0  0  0
  9 31  1  0  0  0  0
  9 10  2  0  0  0  0
 10 32  1  0  0  0  0
 11 10  1  0  0  0  0
 11 33  1  0  0  0  0
 12 11  2  0  0  0  0
 13 14  1  0  0  0  0
 14 16  1  0  0  0  0
 15 14  2  0  0  0  0
 16 17  1  0  0  0  0
 17 35  1  0  0  0  0
 17 18  2  0  0  0  0
 18 36  1  0  0  0  0
 19 18  1  0  0  0  0
 19 37  1  0  0  0  0
 20 19  2  0  0  0  0
 21 16  2  0  0  0  0
 21 20  1  0  0  0  0
 22 13  1  0  0  0  0
 23 39  1  0  0  0  0
 23 22  2  0  0  0  0
 24 23  1  0  0  0  0
 25 24  2  0  0  0  0
 25 26  1  0  0  0  0
 26 27  2  0  0  0  0
 27 22  1  0  0  0  0
 27 28  1  0  0  0  0
 28 43  1  0  0  0  0
 28 45  1  0  0  0  0
 29  4  1  0  0  0  0
 30  8  1  0  0  0  0
 34 12  1  0  0  0  0
 38 20  1  0  0  0  0
 40 24  1  0  0  0  0
 41 25  1  0  0  0  0
 42 26  1  0  0  0  0
 44 28  1  0  0  0  0
M  END
$$$$
