45
rmsd11.gzmat
N          0.00000        0.00000        0.00000
H          1.05140        0.00000        0.00000
C         -0.60450        0.00000       -1.25270
C          0.16590       -0.00310       -2.39830
C          1.60060        0.03460       -2.37100
O          2.23650        0.02460       -1.31820
C          2.34980        0.08040       -3.65280
C          1.81030        0.67460       -4.79420
C          2.54900        0.70420       -5.97480
C          3.82570        0.14490       -6.01360
C          4.36920       -0.43940       -4.87050
C          3.63350       -0.46870       -3.68800
N         -2.00110        0.00560       -1.28530
C         -2.82650       -0.04290       -0.12490
O         -4.02370       -0.07020       -0.27310
C         -2.12070       -0.04990        1.15300
C         -2.84610       -0.07680        2.35120
C         -2.17670       -0.07530        3.56400
C         -0.77420       -0.04840        3.59290
C         -0.03680       -0.02230        2.42180
C         -0.71650       -0.02340        1.18660
C         -2.66410        0.12350       -2.55990
C         -3.23830       -1.02190       -3.11690
C         -3.90830       -0.92490       -4.33300
C         -4.00070        0.30580       -4.98060
C         -3.42410        1.44240       -4.41910
C         -2.74930        1.37150       -3.19850
C         -2.14100        2.59010       -2.59980
H         -0.31630       -0.06250       -3.36930
H          0.81640        1.12170       -4.76500
H          2.12870        1.16450       -6.86610
H          4.40030        0.16760       -6.93770
H          5.36840       -0.86840       -4.90040
H          4.05410       -0.91110       -2.78200
H         -3.93990       -0.09930        2.30950
H         -2.73310       -0.09650        4.49780
H         -0.26010       -0.04840        4.55610
H          1.05060       -0.00310        2.44670
H         -3.16980       -1.97650       -2.59560
H         -4.36400       -1.80930       -4.77380
H         -4.53060        0.38070       -5.92900
H         -3.50650        2.39840       -4.93280
H         -2.56580        2.80280       -1.60600
H         -2.29520        3.48890       -3.21140
H         -1.05180        2.47370       -2.46740
