45
rmsd4.gzmat
N          0.00000        0.00000        0.00000
H          1.02190        0.00000        0.00000
C         -0.66100        0.00000       -1.23690
C          0.01410        0.01410       -2.42360
C          1.44180       -0.02540       -2.67650
O          1.92140        0.41860       -3.69650
C          2.34840       -0.65580       -1.66740
C          2.18290       -1.99490       -1.31810
C          3.03460       -2.56940       -0.37720
C          4.04310       -1.80570        0.20960
C          4.21280       -0.47030       -0.15350
C          3.37060        0.10540       -1.10250
N         -2.06430        0.01520       -1.18260
C         -2.82640       -0.07360        0.01190
O         -4.03120       -0.06560       -0.06770
C         -2.06030       -0.17230        1.25270
C         -2.72370       -0.29170        2.47900
C         -1.99290       -0.37100        3.65480
C         -0.59230       -0.33140        3.61440
C          0.08500       -0.21590        2.41120
C         -0.65850       -0.13350        1.21720
C         -2.79820        0.21550       -2.40820
C         -3.43110       -0.88580       -2.99030
C         -4.16240       -0.71080       -4.16160
C         -4.25540        0.55290       -4.74160
C         -3.62540        1.64660       -4.15320
C         -2.89180        1.49790       -2.97430
C         -2.22240        2.67070       -2.34980
H         -0.55770        0.09130       -3.35790
H          1.39310       -2.58710       -1.78200
H          2.91380       -3.61540       -0.10290
H          4.70660       -2.25620        0.94570
H          5.01060        0.11920        0.29420
H          3.51540        1.13990       -1.41660
H         -3.81880       -0.31860        2.49100
H         -2.50220       -0.46390        4.61110
H         -0.02810       -0.39320        4.54700
H          1.17110       -0.19290        2.38690
H         -3.35880       -1.86780       -2.52440
H         -4.66370       -1.56020       -4.62150
H         -4.82550        0.68740       -5.65960
H         -3.70670        2.62880       -4.61640
H         -2.49840        2.77930       -1.28980
H         -2.47430        3.61850       -2.84380
H         -1.12410        2.56940       -2.39150
