45
rmsd7.gzmat
N          0.00000        0.00000        0.00000
H          1.04980        0.00000        0.00000
C         -0.60650        0.00000       -1.25250
C          0.16000       -0.02740       -2.39870
C          1.59540       -0.02770       -2.37800
O          2.24390        0.01260       -1.33620
C          2.31230       -0.05140       -3.67940
C          3.41260        0.78830       -3.85400
C          4.08720        0.79710       -5.07330
C          3.67630       -0.04840       -6.10270
C          2.59150       -0.90470       -5.91610
C          1.90290       -0.90380       -4.70510
N         -2.00320        0.02650       -1.28380
C         -2.82770        0.02360       -0.12340
O         -4.02580        0.00710       -0.27040
C         -2.12090        0.04190        1.15440
C         -2.84530        0.07200        2.35320
C         -2.17520        0.09420        3.56540
C         -0.77230        0.08500        3.59320
C         -0.03560        0.05310        2.42180
C         -0.71600        0.03230        1.18700
C         -2.65850        0.03420       -2.56840
C         -2.78290        1.25350       -3.24130
C         -3.41950        1.28640       -4.47770
C         -3.92240        0.11010       -5.03290
C         -3.79250       -1.10000       -4.35720
C         -3.16160       -1.15750       -3.11170
C         -3.03870       -2.44900       -2.38440
H         -0.32110       -0.02690       -3.37250
H          3.74030        1.42680       -3.03180
H          4.93720        1.45970       -5.21990
H          4.20550       -0.04290       -7.05370
H          2.28220       -1.57360       -6.71570
H          1.05220       -1.56930       -4.55840
H         -3.93960        0.07890        2.31180
H         -2.73140        0.11990        4.49930
H         -0.25700        0.10430        4.55570
H          1.05210        0.04530        2.44630
H         -2.38340        2.16560       -2.79810
H         -3.52600        2.23030       -5.00910
H         -4.42090        0.13800       -6.00060
H         -4.18850       -2.01150       -4.80110
H         -1.99010       -2.68200       -2.14270
H         -3.43740       -3.30010       -2.95130
H         -3.59340       -2.41400       -1.43060
