rmsd1.gzmat
 OpenBabel08211713383D

 45 48  0  0  0  0  0  0  0  0999 V2000
    0.0000    0.0000    0.0000 N   0  0  0  0  0  0  0  0  0  0  0  0
    1.0212    0.0000    0.0000 H   0  0  0  0  0  0  0  0  0  0  0  0
   -0.6545    0.0000   -1.2419 C   0  0  0  0  0  0  0  0  0  0  0  0
    0.0394   -0.0899   -2.4132 C   0  0  0  0  0  0  0  0  0  0  0  0
    1.4746    0.0451   -2.5941 C   0  0  0  0  0  0  0  0  0  0  0  0
    2.0952   -0.5762   -3.4258 O   0  0  0  0  0  0  0  0  0  0  0  0
    2.1819    1.0375   -1.7253 C   0  0  0  0  0  0  0  0  0  0  0  0
    3.3747    0.6767   -1.1019 C   0  0  0  0  0  0  0  0  0  0  0  0
    4.0158    1.5877   -0.2646 C   0  0  0  0  0  0  0  0  0  0  0  0
    3.4736    2.8575   -0.0705 C   0  0  0  0  0  0  0  0  0  0  0  0
    2.2954    3.2247   -0.7200 C   0  0  0  0  0  0  0  0  0  0  0  0
    1.6478    2.3141   -1.5509 C   0  0  0  0  0  0  0  0  0  0  0  0
   -2.0545    0.0578   -1.2019 N   0  0  0  0  0  0  0  0  0  0  0  0
   -2.8279    0.0604   -0.0120 C   0  0  0  0  0  0  0  0  0  0  0  0
   -4.0314    0.0182   -0.1014 O   0  0  0  0  0  0  0  0  0  0  0  0
   -2.0715    0.1407    1.2363 C   0  0  0  0  0  0  0  0  0  0  0  0
   -2.7448    0.2358    2.4595 C   0  0  0  0  0  0  0  0  0  0  0  0
   -2.0243    0.3313    3.6404 C   0  0  0  0  0  0  0  0  0  0  0  0
   -0.6230    0.3334    3.6089 C   0  0  0  0  0  0  0  0  0  0  0  0
    0.0642    0.2380    2.4097 C   0  0  0  0  0  0  0  0  0  0  0  0
   -0.6681    0.1352    1.2108 C   0  0  0  0  0  0  0  0  0  0  0  0
   -2.7622    0.1529   -2.4546 C   0  0  0  0  0  0  0  0  0  0  0  0
   -2.8343    1.4052   -3.0737 C   0  0  0  0  0  0  0  0  0  0  0  0
   -3.5320    1.5329   -4.2695 C   0  0  0  0  0  0  0  0  0  0  0  0
   -4.1542    0.4197   -4.8343 C   0  0  0  0  0  0  0  0  0  0  0  0
   -4.0717   -0.8239   -4.2152 C   0  0  0  0  0  0  0  0  0  0  0  0
   -3.3705   -0.9794   -3.0160 C   0  0  0  0  0  0  0  0  0  0  0  0
   -3.2821   -2.3083   -2.3550 C   0  0  0  0  0  0  0  0  0  0  0  0
   -0.4905   -0.2987   -3.3470 H   0  0  0  0  0  0  0  0  0  0  0  0
    3.8054   -0.3096   -1.2821 H   0  0  0  0  0  0  0  0  0  0  0  0
    4.9436    1.3109    0.2311 H   0  0  0  0  0  0  0  0  0  0  0  0
    3.9746    3.5673    0.5853 H   0  0  0  0  0  0  0  0  0  0  0  0
    1.8815    4.2211   -0.5773 H   0  0  0  0  0  0  0  0  0  0  0  0
    0.7272    2.5953   -2.0641 H   0  0  0  0  0  0  0  0  0  0  0  0
   -3.8399    0.2335    2.4659 H   0  0  0  0  0  0  0  0  0  0  0  0
   -2.5426    0.4057    4.5934 H   0  0  0  0  0  0  0  0  0  0  0  0
   -0.0662    0.4112    4.5449 H   0  0  0  0  0  0  0  0  0  0  0  0
    1.1505    0.2438    2.3920 H   0  0  0  0  0  0  0  0  0  0  0  0
   -2.3483    2.2675   -2.6195 H   0  0  0  0  0  0  0  0  0  0  0  0
   -3.5941    2.5012   -4.7623 H   0  0  0  0  0  0  0  0  0  0  0  0
   -4.7080    0.5245   -5.7662 H   0  0  0  0  0  0  0  0  0  0  0  0
   -4.5613   -1.6861   -4.6656 H   0  0  0  0  0  0  0  0  0  0  0  0
   -2.2387   -2.5849   -2.1351 H   0  0  0  0  0  0  0  0  0  0  0  0
   -3.7105   -3.1181   -2.9594 H   0  0  0  0  0  0  0  0  0  0  0  0
   -3.8253   -2.3015   -1.3936 H   0  0  0  0  0  0  0  0  0  0  0  0
  1  2  1  0  0  0  0
  1 21  1  0  0  0  0
  3 13  1  0  0  0  0
  3  1  1  0  0  0  0
  4  3  2  0  0  0  0
  5  4  1  0  0  0  0
  5  7  1  0  0  0  0
  6  5  2  0  0  0  0
  7 12  2  0  0  0  0
  7  8  1  0  0  0  0
  8  9  2  0  0  0  0
  9 10  1  0  0  0  0
  9 31  1  0  0  0  0
 10 32  1  0  0  0  0
 11 33  1  0  0  0  0
 11 10  2  0  0  0  0
 12 11  1  0  0  0  0
 13 14  1  0  0  0  0
 14 16  1  0  0  0  0
 15 14  2  0  0  0  0
 16 17  1  0  0  0  0
 17 35  1  0  0  0  0
 17 18  2  0  0  0  0
 18 36  1  0  0  0  0
 19 18  1  0  0  0  0
 19 37  1  0  0  0  0
 20 19  2  0  0  0  0
 21 16  2  0  0  0  0
 21 20  1  0  0  0  0
 22 13  1  0  0  0  0
 23 39  1  0  0  0  0
 23 22  2  0  0  0  0
 24 23  1  0  0  0  0
 25 24  2  0  0  0  0
 25 26  1  0  0  0  0
 26 27  2  0  0  0  0
 27 22  1  0  0  0  0
 27 28  1  0  0  0  0
 28 43  1  0  0  0  0
 28 45  1  0  0  0  0
 29  4  1  0  0  0  0
 30  8  1  0  0  0  0
 34 12  1  0  0  0  0
 38 20  1  0  0  0  0
 40 24  1  0  0  0  0
 41 25  1  0  0  0  0
 42 26  1  0  0  0  0
 44 28  1  0  0  0  0
M  END
$$$$
