
     RDKit          3D

 45 48  0  0  0  0  0  0  0  0999 V2000
   -0.0491    0.1713   -0.0524 N   0  0  0  0  0  0  0  0  0  0  0  0
    0.9897    0.2449   -0.1535 H   0  0  0  0  0  0  0  0  0  0  0  0
   -0.6487    0.0464   -1.2641 C   0  0  0  0  0  0  0  0  0  0  0  0
    0.1181    0.0286   -2.4237 C   0  0  0  0  0  0  0  0  0  0  0  0
    1.5483    0.1423   -2.3772 C   0  0  0  0  0  0  0  0  0  0  0  0
    2.1874    0.2574   -1.3059 O   0  0  0  0  0  0  0  0  0  0  0  0
    2.3225    0.1149   -3.6640 C   0  0  0  0  0  0  0  0  0  0  0  0
    1.7212    0.1089   -4.9337 C   0  0  0  0  0  0  0  0  0  0  0  0
    2.5044    0.0860   -6.0889 C   0  0  0  0  0  0  0  0  0  0  0  0
    3.8988    0.0671   -5.9925 C   0  0  0  0  0  0  0  0  0  0  0  0
    4.5072    0.0757   -4.7331 C   0  0  0  0  0  0  0  0  0  0  0  0
    3.7248    0.1019   -3.5800 C   0  0  0  0  0  0  0  0  0  0  0  0
   -2.0336   -0.0681   -1.2816 N   0  0  0  0  0  0  0  0  0  0  0  0
   -2.8396   -0.1309   -0.1211 C   0  0  0  0  0  0  0  0  0  0  0  0
   -4.0398   -0.2922   -0.2145 O   0  0  0  0  0  0  0  0  0  0  0  0
   -2.1151    0.0113    1.1532 C   0  0  0  0  0  0  0  0  0  0  0  0
   -2.8159   -0.0065    2.3682 C   0  0  0  0  0  0  0  0  0  0  0  0
   -2.1333    0.1281    3.5715 C   0  0  0  0  0  0  0  0  0  0  0  0
   -0.7358    0.2805    3.5620 C   0  0  0  0  0  0  0  0  0  0  0  0
   -0.0241    0.2992    2.3681 C   0  0  0  0  0  0  0  0  0  0  0  0
   -0.7145    0.1640    1.1494 C   0  0  0  0  0  0  0  0  0  0  0  0
   -2.7067   -0.1730   -2.5518 C   0  0  0  0  0  0  0  0  0  0  0  0
   -2.9973    0.9946   -3.2571 C   0  0  0  0  0  0  0  0  0  0  0  0
   -3.6251    0.9172   -4.5009 C   0  0  0  0  0  0  0  0  0  0  0  0
   -3.9588   -0.3344   -5.0237 C   0  0  0  0  0  0  0  0  0  0  0  0
   -3.6681   -1.4960   -4.3047 C   0  0  0  0  0  0  0  0  0  0  0  0
   -3.0371   -1.4418   -3.0542 C   0  0  0  0  0  0  0  0  0  0  0  0
   -2.7346   -2.6852   -2.2643 C   0  0  0  0  0  0  0  0  0  0  0  0
   -0.3960   -0.0864   -3.3694 H   0  0  0  0  0  0  0  0  0  0  0  0
    0.6356    0.1325   -5.0339 H   0  0  0  0  0  0  0  0  0  0  0  0
    2.0230    0.0848   -7.0697 H   0  0  0  0  0  0  0  0  0  0  0  0
    4.5101    0.0478   -6.8982 H   0  0  0  0  0  0  0  0  0  0  0  0
    5.5969    0.0628   -4.6521 H   0  0  0  0  0  0  0  0  0  0  0  0
    4.1748    0.1136   -2.5865 H   0  0  0  0  0  0  0  0  0  0  0  0
   -3.8997   -0.1281    2.3295 H   0  0  0  0  0  0  0  0  0  0  0  0
   -2.6765    0.1156    4.5182 H   0  0  0  0  0  0  0  0  0  0  0  0
   -0.1957    0.3860    4.5060 H   0  0  0  0  0  0  0  0  0  0  0  0
    1.0614    0.4166    2.3606 H   0  0  0  0  0  0  0  0  0  0  0  0
   -2.7211    1.9581   -2.8248 H   0  0  0  0  0  0  0  0  0  0  0  0
   -3.8536    1.8294   -5.0560 H   0  0  0  0  0  0  0  0  0  0  0  0
   -4.4503   -0.4080   -5.9967 H   0  0  0  0  0  0  0  0  0  0  0  0
   -3.9356   -2.4714   -4.7188 H   0  0  0  0  0  0  0  0  0  0  0  0
   -1.6805   -2.7123   -1.9457 H   0  0  0  0  0  0  0  0  0  0  0  0
   -2.9380   -3.5890   -2.8552 H   0  0  0  0  0  0  0  0  0  0  0  0
   -3.3569   -2.7209   -1.3555 H   0  0  0  0  0  0  0  0  0  0  0  0
  1  2  1  0
  1  3  1  0
  1 21  1  0
  3  4  2  0
  3 13  1  0
  4  5  1  0
  4 29  1  0
  5  6  2  0
  5  7  1  0
  7  8  2  0
  7 12  1  0
  8  9  1  0
  8 30  1  0
  9 10  2  0
  9 31  1  0
 10 11  1  0
 10 32  1  0
 11 12  2  0
 11 33  1  0
 12 34  1  0
 13 14  1  0
 13 22  1  0
 14 15  2  0
 14 16  1  0
 16 17  1  0
 16 21  2  0
 17 18  2  0
 17 35  1  0
 18 19  1  0
 18 36  1  0
 19 20  2  0
 19 37  1  0
 20 21  1  0
 20 38  1  0
 22 23  2  0
 22 27  1  0
 23 24  1  0
 23 39  1  0
 24 25  2  0
 24 40  1  0
 25 26  1  0
 25 41  1  0
 26 27  2  0
 26 42  1  0
 27 28  1  0
 28 43  1  0
 28 44  1  0
 28 45  1  0
M  END

