45
rmsd1.gzmat
N          0.00000        0.00000        0.00000
H          1.02120        0.00000        0.00000
C         -0.65450        0.00000       -1.24190
C          0.03940       -0.08990       -2.41320
C          1.47460        0.04510       -2.59410
O          2.09520       -0.57620       -3.42580
C          2.18190        1.03750       -1.72530
C          3.37470        0.67670       -1.10190
C          4.01580        1.58770       -0.26460
C          3.47360        2.85750       -0.07050
C          2.29540        3.22470       -0.72000
C          1.64780        2.31410       -1.55090
N         -2.05450        0.05780       -1.20190
C         -2.82790        0.06040       -0.01200
O         -4.03140        0.01820       -0.10140
C         -2.07150        0.14070        1.23630
C         -2.74480        0.23580        2.45950
C         -2.02430        0.33130        3.64040
C         -0.62300        0.33340        3.60890
C          0.06420        0.23800        2.40970
C         -0.66810        0.13520        1.21080
C         -2.76220        0.15290       -2.45460
C         -2.83430        1.40520       -3.07370
C         -3.53200        1.53290       -4.26950
C         -4.15420        0.41970       -4.83430
C         -4.07170       -0.82390       -4.21520
C         -3.37050       -0.97940       -3.01600
C         -3.28210       -2.30830       -2.35500
H         -0.49050       -0.29870       -3.34700
H          3.80540       -0.30960       -1.28210
H          4.94360        1.31090        0.23110
H          3.97460        3.56730        0.58530
H          1.88150        4.22110       -0.57730
H          0.72720        2.59530       -2.06410
H         -3.83990        0.23350        2.46590
H         -2.54260        0.40570        4.59340
H         -0.06620        0.41120        4.54490
H          1.15050        0.24380        2.39200
H         -2.34830        2.26750       -2.61950
H         -3.59410        2.50120       -4.76230
H         -4.70800        0.52450       -5.76620
H         -4.56130       -1.68610       -4.66560
H         -2.23870       -2.58490       -2.13510
H         -3.71050       -3.11810       -2.95940
H         -3.82530       -2.30150       -1.39360
