rmsd4.gzmat
 OpenBabel08211713383D

 45 48  0  0  0  0  0  0  0  0999 V2000
    0.0000    0.0000    0.0000 N   0  0  0  0  0  0  0  0  0  0  0  0
    1.0219    0.0000    0.0000 H   0  0  0  0  0  0  0  0  0  0  0  0
   -0.6610    0.0000   -1.2369 C   0  0  0  0  0  0  0  0  0  0  0  0
    0.0141    0.0141   -2.4236 C   0  0  0  0  0  0  0  0  0  0  0  0
    1.4418   -0.0254   -2.6765 C   0  0  0  0  0  0  0  0  0  0  0  0
    1.9214    0.4186   -3.6965 O   0  0  0  0  0  0  0  0  0  0  0  0
    2.3484   -0.6558   -1.6674 C   0  0  0  0  0  0  0  0  0  0  0  0
    2.1829   -1.9949   -1.3181 C   0  0  0  0  0  0  0  0  0  0  0  0
    3.0346   -2.5694   -0.3772 C   0  0  0  0  0  0  0  0  0  0  0  0
    4.0431   -1.8057    0.2096 C   0  0  0  0  0  0  0  0  0  0  0  0
    4.2128   -0.4703   -0.1535 C   0  0  0  0  0  0  0  0  0  0  0  0
    3.3706    0.1054   -1.1025 C   0  0  0  0  0  0  0  0  0  0  0  0
   -2.0643    0.0152   -1.1826 N   0  0  0  0  0  0  0  0  0  0  0  0
   -2.8264   -0.0736    0.0119 C   0  0  0  0  0  0  0  0  0  0  0  0
   -4.0312   -0.0656   -0.0677 O   0  0  0  0  0  0  0  0  0  0  0  0
   -2.0603   -0.1723    1.2527 C   0  0  0  0  0  0  0  0  0  0  0  0
   -2.7237   -0.2917    2.4790 C   0  0  0  0  0  0  0  0  0  0  0  0
   -1.9929   -0.3710    3.6548 C   0  0  0  0  0  0  0  0  0  0  0  0
   -0.5923   -0.3314    3.6144 C   0  0  0  0  0  0  0  0  0  0  0  0
    0.0850   -0.2159    2.4112 C   0  0  0  0  0  0  0  0  0  0  0  0
   -0.6585   -0.1335    1.2172 C   0  0  0  0  0  0  0  0  0  0  0  0
   -2.7982    0.2155   -2.4082 C   0  0  0  0  0  0  0  0  0  0  0  0
   -3.4311   -0.8858   -2.9903 C   0  0  0  0  0  0  0  0  0  0  0  0
   -4.1624   -0.7108   -4.1616 C   0  0  0  0  0  0  0  0  0  0  0  0
   -4.2554    0.5529   -4.7416 C   0  0  0  0  0  0  0  0  0  0  0  0
   -3.6254    1.6466   -4.1532 C   0  0  0  0  0  0  0  0  0  0  0  0
   -2.8918    1.4979   -2.9743 C   0  0  0  0  0  0  0  0  0  0  0  0
   -2.2224    2.6707   -2.3498 C   0  0  0  0  0  0  0  0  0  0  0  0
   -0.5577    0.0913   -3.3579 H   0  0  0  0  0  0  0  0  0  0  0  0
    1.3931   -2.5871   -1.7820 H   0  0  0  0  0  0  0  0  0  0  0  0
    2.9138   -3.6154   -0.1029 H   0  0  0  0  0  0  0  0  0  0  0  0
    4.7066   -2.2562    0.9457 H   0  0  0  0  0  0  0  0  0  0  0  0
    5.0106    0.1192    0.2942 H   0  0  0  0  0  0  0  0  0  0  0  0
    3.5154    1.1399   -1.4166 H   0  0  0  0  0  0  0  0  0  0  0  0
   -3.8188   -0.3186    2.4910 H   0  0  0  0  0  0  0  0  0  0  0  0
   -2.5022   -0.4639    4.6111 H   0  0  0  0  0  0  0  0  0  0  0  0
   -0.0281   -0.3932    4.5470 H   0  0  0  0  0  0  0  0  0  0  0  0
    1.1711   -0.1929    2.3869 H   0  0  0  0  0  0  0  0  0  0  0  0
   -3.3588   -1.8678   -2.5244 H   0  0  0  0  0  0  0  0  0  0  0  0
   -4.6637   -1.5602   -4.6215 H   0  0  0  0  0  0  0  0  0  0  0  0
   -4.8255    0.6874   -5.6596 H   0  0  0  0  0  0  0  0  0  0  0  0
   -3.7067    2.6288   -4.6164 H   0  0  0  0  0  0  0  0  0  0  0  0
   -2.4984    2.7793   -1.2898 H   0  0  0  0  0  0  0  0  0  0  0  0
   -2.4743    3.6185   -2.8438 H   0  0  0  0  0  0  0  0  0  0  0  0
   -1.1241    2.5694   -2.3915 H   0  0  0  0  0  0  0  0  0  0  0  0
  1  2  1  0  0  0  0
  1 21  1  0  0  0  0
  3 13  1  0  0  0  0
  3  1  1  0  0  0  0
  4  3  2  0  0  0  0
  5  4  1  0  0  0  0
  5  7  1  0  0  0  0
  6  5  2  0  0  0  0
  7  8  2  0  0  0  0
  7 12  1  0  0  0  0
  8  9  1  0  0  0  0
  9 31  1  0  0  0  0
  9 10  2  0  0  0  0
 10 32  1  0  0  0  0
 11 10  1  0  0  0  0
 11 33  1  0  0  0  0
 12 11  2  0  0  0  0
 13 14  1  0  0  0  0
 14 16  1  0  0  0  0
 15 14  2  0  0  0  0
 16 17  1  0  0  0  0
 17 35  1  0  0  0  0
 17 18  2  0  0  0  0
 18 36  1  0  0  0  0
 19 18  1  0  0  0  0
 19 37  1  0  0  0  0
 20 19  2  0  0  0  0
 21 16  2  0  0  0  0
 21 20  1  0  0  0  0
 22 13  1  0  0  0  0
 23 39  1  0  0  0  0
 23 22  2  0  0  0  0
 24 23  1  0  0  0  0
 25 24  2  0  0  0  0
 25 26  1  0  0  0  0
 26 27  2  0  0  0  0
 27 22  1  0  0  0  0
 27 28  1  0  0  0  0
 28 43  1  0  0  0  0
 29  4  1  0  0  0  0
 30  8  1  0  0  0  0
 34 12  1  0  0  0  0
 38 20  1  0  0  0  0
 40 24  1  0  0  0  0
 41 25  1  0  0  0  0
 42 26  1  0  0  0  0
 44 28  1  0  0  0  0
 45 28  1  0  0  0  0
M  END
$$$$
