45

N         -0.03290       -0.11470        0.01040
H          0.97630       -0.21370       -0.00080
C         -0.64210        0.01800       -1.21470
C          0.04850        0.07690       -2.40530
C          1.48830        0.02860       -2.62870
O          1.99250        0.52670       -3.62900
C          2.40160       -0.66770       -1.64290
C          2.09600       -1.93290       -1.11460
C          2.98870       -2.57360       -0.25180
C          4.19140       -1.95140        0.09760
C          4.50900       -0.69720       -0.43600
C          3.62630       -0.06680       -1.31410
N         -2.03580        0.13730       -1.17630
C         -2.81530        0.17710       -0.00020
O         -4.01600        0.35060       -0.06080
C         -2.07560       -0.01910        1.25900
C         -2.75480       -0.05810        2.48440
C         -2.05240       -0.25270        3.66900
C         -0.65710       -0.41010        3.62710
C          0.03360       -0.37270        2.42020
C         -0.67920       -0.17320        1.22450
C         -2.75640        0.25550       -2.42010
C         -3.09110       -0.90560       -3.11580
C         -3.77970       -0.81680       -4.32580
C         -4.12820        0.44000       -4.82550
C         -3.79170        1.59540       -4.11680
C         -3.10080        1.52930       -2.89920
C         -2.74830        2.76580       -2.11940
H         -0.52120        0.32950       -3.29680
H          1.15410       -2.41430       -1.38850
H          2.74770       -3.56270        0.14480
H          4.88650       -2.44850        0.77850
H          5.45330       -0.21480       -0.17250
H          3.87120        0.89780       -1.76320
H         -3.83870        0.06780        2.46890
H         -2.57920       -0.28400        4.62440
H         -0.10030       -0.56520        4.55440
H          1.11840       -0.49800        2.38870
H         -2.80220       -1.87370       -2.70260
H         -4.04210       -1.72400       -4.87410
H         -4.66540        0.52280       -5.77320
H         -4.06970        2.57520       -4.51320
H         -3.32210        2.80190       -1.17900
H         -2.97530        3.67420       -2.69440
H         -1.67840        2.78370       -1.85780
