rmsd7.gzmat
 OpenBabel08211713383D

 45 48  0  0  0  0  0  0  0  0999 V2000
    0.0000    0.0000    0.0000 N   0  0  0  0  0  0  0  0  0  0  0  0
    1.0498    0.0000    0.0000 H   0  0  0  0  0  0  0  0  0  0  0  0
   -0.6065    0.0000   -1.2525 C   0  0  0  0  0  0  0  0  0  0  0  0
    0.1600   -0.0274   -2.3987 C   0  0  0  0  0  0  0  0  0  0  0  0
    1.5954   -0.0277   -2.3780 C   0  0  0  0  0  0  0  0  0  0  0  0
    2.2439    0.0126   -1.3362 O   0  0  0  0  0  0  0  0  0  0  0  0
    2.3123   -0.0514   -3.6794 C   0  0  0  0  0  0  0  0  0  0  0  0
    3.4126    0.7883   -3.8540 C   0  0  0  0  0  0  0  0  0  0  0  0
    4.0872    0.7971   -5.0733 C   0  0  0  0  0  0  0  0  0  0  0  0
    3.6763   -0.0484   -6.1027 C   0  0  0  0  0  0  0  0  0  0  0  0
    2.5915   -0.9047   -5.9161 C   0  0  0  0  0  0  0  0  0  0  0  0
    1.9029   -0.9038   -4.7051 C   0  0  0  0  0  0  0  0  0  0  0  0
   -2.0032    0.0265   -1.2838 N   0  0  0  0  0  0  0  0  0  0  0  0
   -2.8277    0.0236   -0.1234 C   0  0  0  0  0  0  0  0  0  0  0  0
   -4.0258    0.0071   -0.2704 O   0  0  0  0  0  0  0  0  0  0  0  0
   -2.1209    0.0419    1.1544 C   0  0  0  0  0  0  0  0  0  0  0  0
   -2.8453    0.0720    2.3532 C   0  0  0  0  0  0  0  0  0  0  0  0
   -2.1752    0.0942    3.5654 C   0  0  0  0  0  0  0  0  0  0  0  0
   -0.7723    0.0850    3.5932 C   0  0  0  0  0  0  0  0  0  0  0  0
   -0.0356    0.0531    2.4218 C   0  0  0  0  0  0  0  0  0  0  0  0
   -0.7160    0.0323    1.1870 C   0  0  0  0  0  0  0  0  0  0  0  0
   -2.6585    0.0342   -2.5684 C   0  0  0  0  0  0  0  0  0  0  0  0
   -2.7829    1.2535   -3.2413 C   0  0  0  0  0  0  0  0  0  0  0  0
   -3.4195    1.2864   -4.4777 C   0  0  0  0  0  0  0  0  0  0  0  0
   -3.9224    0.1101   -5.0329 C   0  0  0  0  0  0  0  0  0  0  0  0
   -3.7925   -1.1000   -4.3572 C   0  0  0  0  0  0  0  0  0  0  0  0
   -3.1616   -1.1575   -3.1117 C   0  0  0  0  0  0  0  0  0  0  0  0
   -3.0387   -2.4490   -2.3844 C   0  0  0  0  0  0  0  0  0  0  0  0
   -0.3211   -0.0269   -3.3725 H   0  0  0  0  0  0  0  0  0  0  0  0
    3.7403    1.4268   -3.0318 H   0  0  0  0  0  0  0  0  0  0  0  0
    4.9372    1.4597   -5.2199 H   0  0  0  0  0  0  0  0  0  0  0  0
    4.2055   -0.0429   -7.0537 H   0  0  0  0  0  0  0  0  0  0  0  0
    2.2822   -1.5736   -6.7157 H   0  0  0  0  0  0  0  0  0  0  0  0
    1.0522   -1.5693   -4.5584 H   0  0  0  0  0  0  0  0  0  0  0  0
   -3.9396    0.0789    2.3118 H   0  0  0  0  0  0  0  0  0  0  0  0
   -2.7314    0.1199    4.4993 H   0  0  0  0  0  0  0  0  0  0  0  0
   -0.2570    0.1043    4.5557 H   0  0  0  0  0  0  0  0  0  0  0  0
    1.0521    0.0453    2.4463 H   0  0  0  0  0  0  0  0  0  0  0  0
   -2.3834    2.1656   -2.7981 H   0  0  0  0  0  0  0  0  0  0  0  0
   -3.5260    2.2303   -5.0091 H   0  0  0  0  0  0  0  0  0  0  0  0
   -4.4209    0.1380   -6.0006 H   0  0  0  0  0  0  0  0  0  0  0  0
   -4.1885   -2.0115   -4.8011 H   0  0  0  0  0  0  0  0  0  0  0  0
   -1.9901   -2.6820   -2.1427 H   0  0  0  0  0  0  0  0  0  0  0  0
   -3.4374   -3.3001   -2.9513 H   0  0  0  0  0  0  0  0  0  0  0  0
   -3.5934   -2.4140   -1.4306 H   0  0  0  0  0  0  0  0  0  0  0  0
  1  2  1  0  0  0  0
  1 21  1  0  0  0  0
  3  1  1  0  0  0  0
  4  5  1  0  0  0  0
  4  3  2  0  0  0  0
  5  6  2  0  0  0  0
  7  5  1  0  0  0  0
  8  7  1  0  0  0  0
  8 30  1  0  0  0  0
  9  8  2  0  0  0  0
 10 11  2  0  0  0  0
 10  9  1  0  0  0  0
 11 12  1  0  0  0  0
 12 34  1  0  0  0  0
 12  7  2  0  0  0  0
 13  3  1  0  0  0  0
 13 14  1  0  0  0  0
 14 16  1  0  0  0  0
 15 14  2  0  0  0  0
 16 21  2  0  0  0  0
 16 17  1  0  0  0  0
 17 18  2  0  0  0  0
 18 19  1  0  0  0  0
 18 36  1  0  0  0  0
 19 37  1  0  0  0  0
 20 38  1  0  0  0  0
 20 19  2  0  0  0  0
 21 20  1  0  0  0  0
 22 13  1  0  0  0  0
 23 39  1  0  0  0  0
 23 22  2  0  0  0  0
 24 23  1  0  0  0  0
 25 24  2  0  0  0  0
 25 26  1  0  0  0  0
 26 27  2  0  0  0  0
 27 22  1  0  0  0  0
 27 28  1  0  0  0  0
 28 43  1  0  0  0  0
 28 45  1  0  0  0  0
 29  4  1  0  0  0  0
 31  9  1  0  0  0  0
 32 10  1  0  0  0  0
 33 11  1  0  0  0  0
 35 17  1  0  0  0  0
 40 24  1  0  0  0  0
 41 25  1  0  0  0  0
 42 26  1  0  0  0  0
 44 28  1  0  0  0  0
M  END
$$$$
