rmsd29.gzmat
 OpenBabel08211713373D

 28 29  0  0  0  0  0  0  0  0999 V2000
    0.0000    0.0000    0.0000 O   0  0  0  0  0  0  0  0  0  0  0  0
    1.2057    0.0000    0.0000 C   0  0  0  0  0  0  0  0  0  0  0  0
    1.9583    0.0000    1.1877 N   0  0  0  0  0  0  0  0  0  0  0  0
    1.4370    0.0417    2.4891 C   0  0  0  0  0  0  0  0  0  0  0  0
    2.3730    0.0458    3.5485 C   0  0  0  0  0  0  0  0  0  0  0  0
    1.9344    0.1025    4.8601 C   0  0  0  0  0  0  0  0  0  0  0  0
    0.5609    0.1583    5.1255 C   0  0  0  0  0  0  0  0  0  0  0  0
    0.1048    0.2336    6.4969 N   0  0  0  0  0  0  0  0  0  0  0  0
   -1.0967    0.2950    6.7069 O   0  0  0  0  0  0  0  0  0  0  0  0
    0.9433    0.2354    7.3859 O   0  0  0  0  0  0  0  0  0  0  0  0
   -0.3741    0.1462    4.0840 C   0  0  0  0  0  0  0  0  0  0  0  0
    0.0602    0.0870    2.7687 C   0  0  0  0  0  0  0  0  0  0  0  0
    2.0326   -0.0004   -1.2353 C   0  0  0  0  0  0  0  0  0  0  0  0
    1.8295   -1.0138   -2.1709 C   0  0  0  0  0  0  0  0  0  0  0  0
    2.5586   -1.0040   -3.3585 C   0  0  0  0  0  0  0  0  0  0  0  0
    3.4750    0.0171   -3.6060 C   0  0  0  0  0  0  0  0  0  0  0  0
    3.6682    1.0312   -2.6677 C   0  0  0  0  0  0  0  0  0  0  0  0
    2.9477    1.0240   -1.4759 C   0  0  0  0  0  0  0  0  0  0  0  0
    2.9731   -0.0422    1.1037 H   0  0  0  0  0  0  0  0  0  0  0  0
    3.4395    0.0060    3.3398 H   0  0  0  0  0  0  0  0  0  0  0  0
    2.6523    0.1047    5.6883 H   0  0  0  0  0  0  0  0  0  0  0  0
   -1.4469    0.1845    4.3106 H   0  0  0  0  0  0  0  0  0  0  0  0
   -0.6786    0.0781    1.9615 H   0  0  0  0  0  0  0  0  0  0  0  0
    1.0994   -1.8017   -1.9760 H   0  0  0  0  0  0  0  0  0  0  0  0
    2.4066   -1.7912   -4.0961 H   0  0  0  0  0  0  0  0  0  0  0  0
    4.0405    0.0261   -4.5376 H   0  0  0  0  0  0  0  0  0  0  0  0
    4.3784    1.8319   -2.8695 H   0  0  0  0  0  0  0  0  0  0  0  0
    3.0885    1.8224   -0.7477 H   0  0  0  0  0  0  0  0  0  0  0  0
  1  2  2  0  0  0  0
  2  3  1  0  0  0  0
  3  4  1  0  0  0  0
  4 12  2  0  0  0  0
  4  5  1  0  0  0  0
  5  6  2  0  0  0  0
  6  7  1  0  0  0  0
  6 21  1  0  0  0  0
  7  8  1  0  0  0  0
  8  9  2  0  0  0  0
  8 10  2  0  0  0  0
 11 22  1  0  0  0  0
 11  7  2  0  0  0  0
 12 11  1  0  0  0  0
 13  2  1  0  0  0  0
 14 24  1  0  0  0  0
 14 13  2  0  0  0  0
 15 14  1  0  0  0  0
 16 15  2  0  0  0  0
 16 17  1  0  0  0  0
 17 18  2  0  0  0  0
 18 13  1  0  0  0  0
 18 28  1  0  0  0  0
 19  3  1  0  0  0  0
 20  5  1  0  0  0  0
 23 12  1  0  0  0  0
 25 15  1  0  0  0  0
 26 16  1  0  0  0  0
 27 17  1  0  0  0  0
M  END
$$$$
