28
rmsd23.gzmat
O          0.00000        0.00000        0.00000
C          1.20600        0.00000        0.00000
N          1.95480        0.00000        1.19000
C          1.42020       -0.01240        2.48730
C          0.05300       -0.20040        2.75360
C         -0.39930       -0.20880        4.06390
C          0.50950       -0.03680        5.11440
N          0.03150       -0.05050        6.48060
O          0.85390        0.00520        7.38250
O         -1.17270       -0.11780        6.67230
C          1.87430        0.14730        4.86250
C          2.32990        0.15980        3.55520
C          2.02890        0.02140       -1.23700
C          1.77800        1.02410       -2.17300
C          2.50750        1.05150       -3.35990
C          3.47730        0.08010       -3.60360
C          3.71290       -0.92840       -2.66900
C          2.98530       -0.96320       -1.48170
H          2.96810        0.06300        1.11310
H         -0.66440       -0.34190        1.93970
H         -1.46550       -0.35090        4.27940
H          2.57200        0.28150        5.69720
H          3.38850        0.30760        3.35560
H          1.00790        1.77380       -1.97960
H          2.31240        1.82810       -4.09870
H          4.05130        0.10460       -4.53000
H          4.46330       -1.69150       -2.87080
H          3.15250       -1.76350       -0.76110
