
     RDKit          3D

 28 29  0  0  0  0  0  0  0  0999 V2000
    0.0493   -0.5308   -0.0331 O   0  0  0  0  0  0  0  0  0  0  0  0
    1.2219   -0.2049    0.0095 C   0  0  0  0  0  0  0  0  0  0  0  0
    1.8932    0.0744    1.1870 N   0  0  0  0  0  0  0  0  0  0  0  0
    1.3977    0.1020    2.4919 C   0  0  0  0  0  0  0  0  0  0  0  0
    2.3152    0.3803    3.5270 C   0  0  0  0  0  0  0  0  0  0  0  0
    1.9009    0.4328    4.8502 C   0  0  0  0  0  0  0  0  0  0  0  0
    0.5550    0.2063    5.1440 C   0  0  0  0  0  0  0  0  0  0  0  0
    0.1084    0.2606    6.5423 N   0  0  0  0  0  0  0  0  0  0  0  0
   -1.0748    0.0584    6.7678 O   0  0  0  0  0  0  0  0  0  0  0  0
    0.9490    0.5054    7.3952 O   0  0  0  0  0  0  0  0  0  0  0  0
   -0.3703   -0.0707    4.1376 C   0  0  0  0  0  0  0  0  0  0  0  0
    0.0434   -0.1255    2.8102 C   0  0  0  0  0  0  0  0  0  0  0  0
    2.0591   -0.0969   -1.2331 C   0  0  0  0  0  0  0  0  0  0  0  0
    1.6058   -0.7846   -2.3692 C   0  0  0  0  0  0  0  0  0  0  0  0
    2.3257   -0.7275   -3.5613 C   0  0  0  0  0  0  0  0  0  0  0  0
    3.4983    0.0316   -3.6371 C   0  0  0  0  0  0  0  0  0  0  0  0
    3.9450    0.7378   -2.5170 C   0  0  0  0  0  0  0  0  0  0  0  0
    3.2290    0.6745   -1.3201 C   0  0  0  0  0  0  0  0  0  0  0  0
    2.8912    0.2219    1.1042 H   0  0  0  0  0  0  0  0  0  0  0  0
    3.3662    0.5579    3.2836 H   0  0  0  0  0  0  0  0  0  0  0  0
    2.5962    0.6460    5.6609 H   0  0  0  0  0  0  0  0  0  0  0  0
   -1.4112   -0.2429    4.4090 H   0  0  0  0  0  0  0  0  0  0  0  0
   -0.6600   -0.3471    2.0126 H   0  0  0  0  0  0  0  0  0  0  0  0
    0.6814   -1.3589   -2.2907 H   0  0  0  0  0  0  0  0  0  0  0  0
    1.9706   -1.2742   -4.4378 H   0  0  0  0  0  0  0  0  0  0  0  0
    4.0605    0.0795   -4.5726 H   0  0  0  0  0  0  0  0  0  0  0  0
    4.8487    1.3483   -2.5773 H   0  0  0  0  0  0  0  0  0  0  0  0
    3.5758    1.2645   -0.4679 H   0  0  0  0  0  0  0  0  0  0  0  0
  1  2  2  0
  2  3  1  0
  2 13  1  0
  3  4  1  0
  3 19  1  0
  4  5  2  0
  4 12  1  0
  5  6  1  0
  5 20  1  0
  6  7  2  0
  6 21  1  0
  7  8  1  0
  7 11  1  0
  8  9  1  0
  8 10  2  0
 11 12  2  0
 11 22  1  0
 12 23  1  0
 13 14  2  0
 13 18  1  0
 14 15  1  0
 14 24  1  0
 15 16  2  0
 15 25  1  0
 16 17  1  0
 16 26  1  0
 17 18  2  0
 17 27  1  0
 18 28  1  0
M  CHG  2   8   1   9  -1
M  END

