rmsd26.gzmat
 OpenBabel08211713373D

 28 29  0  0  0  0  0  0  0  0999 V2000
    0.0000    0.0000    0.0000 O   0  0  0  0  0  0  0  0  0  0  0  0
    1.2046    0.0000    0.0000 C   0  0  0  0  0  0  0  0  0  0  0  0
    1.9601    0.0000    1.1863 N   0  0  0  0  0  0  0  0  0  0  0  0
    1.4384   -0.0018    2.4886 C   0  0  0  0  0  0  0  0  0  0  0  0
    0.0693   -0.1523    2.7683 C   0  0  0  0  0  0  0  0  0  0  0  0
   -0.3703   -0.1517    4.0832 C   0  0  0  0  0  0  0  0  0  0  0  0
    0.5531   -0.0046    5.1246 C   0  0  0  0  0  0  0  0  0  0  0  0
    0.0903   -0.0078    6.4960 N   0  0  0  0  0  0  0  0  0  0  0  0
    0.9215    0.0845    7.3867 O   0  0  0  0  0  0  0  0  0  0  0  0
   -1.1094   -0.1050    6.7036 O   0  0  0  0  0  0  0  0  0  0  0  0
    1.9200    0.1432    4.8592 C   0  0  0  0  0  0  0  0  0  0  0  0
    2.3633    0.1447    3.5478 C   0  0  0  0  0  0  0  0  0  0  0  0
    2.0431    0.0041   -1.2287 C   0  0  0  0  0  0  0  0  0  0  0  0
    2.1877    1.1885   -1.9483 C   0  0  0  0  0  0  0  0  0  0  0  0
    2.9474    1.1880   -3.1167 C   0  0  0  0  0  0  0  0  0  0  0  0
    3.5510    0.0102   -3.5558 C   0  0  0  0  0  0  0  0  0  0  0  0
    3.3933   -1.1728   -2.8342 C   0  0  0  0  0  0  0  0  0  0  0  0
    2.6342   -1.1802   -1.6662 C   0  0  0  0  0  0  0  0  0  0  0  0
    2.9748    0.0364    1.0991 H   0  0  0  0  0  0  0  0  0  0  0  0
   -0.6595   -0.2714    1.9611 H   0  0  0  0  0  0  0  0  0  0  0  0
   -1.4379   -0.2665    4.3091 H   0  0  0  0  0  0  0  0  0  0  0  0
    2.6295    0.2571    5.6871 H   0  0  0  0  0  0  0  0  0  0  0  0
    3.4240    0.2636    3.3379 H   0  0  0  0  0  0  0  0  0  0  0  0
    1.7065    2.1049   -1.6049 H   0  0  0  0  0  0  0  0  0  0  0  0
    3.0667    2.1080   -3.6878 H   0  0  0  0  0  0  0  0  0  0  0  0
    4.1459    0.0126   -4.4690 H   0  0  0  0  0  0  0  0  0  0  0  0
    3.8598   -2.0918   -3.1860 H   0  0  0  0  0  0  0  0  0  0  0  0
    2.4948   -2.1058   -1.1076 H   0  0  0  0  0  0  0  0  0  0  0  0
  1  2  2  0  0  0  0
  2  3  1  0  0  0  0
  3  4  1  0  0  0  0
  4  5  2  0  0  0  0
  4 12  1  0  0  0  0
  5  6  1  0  0  0  0
  6 21  1  0  0  0  0
  6  7  2  0  0  0  0
  7  8  1  0  0  0  0
  8 10  2  0  0  0  0
  8  9  2  0  0  0  0
 11  7  1  0  0  0  0
 11 22  1  0  0  0  0
 12 11  2  0  0  0  0
 13  2  1  0  0  0  0
 14 24  1  0  0  0  0
 14 13  2  0  0  0  0
 15 14  1  0  0  0  0
 16 15  2  0  0  0  0
 16 17  1  0  0  0  0
 17 18  2  0  0  0  0
 18 13  1  0  0  0  0
 18 28  1  0  0  0  0
 19  3  1  0  0  0  0
 20  5  1  0  0  0  0
 23 12  1  0  0  0  0
 25 15  1  0  0  0  0
 26 16  1  0  0  0  0
 27 17  1  0  0  0  0
M  END
$$$$
