28
rmsd19.gzmat
O          0.00000        0.00000        0.00000
C          1.20550        0.00000        0.00000
N          1.95730        0.00000        1.18830
C          1.43500        0.00970        2.49010
C          0.05840       -0.01670        2.77060
C         -0.37690       -0.00520        4.08680
C          0.55720        0.03610        5.12830
N          0.09790        0.04900        6.50080
O          0.93160        0.14380        7.38920
O         -1.10220       -0.03630        6.71170
C          1.93130        0.06420        4.86170
C          2.37030        0.04850        3.54920
C          2.03360       -0.01790       -1.23460
C          2.96580        0.98770       -1.48710
C          3.70340        0.95490       -2.66830
C          3.50490       -0.07600       -3.58680
C          2.56460       -1.07300       -3.33170
C          1.82040       -1.04400       -2.15410
H          2.97260       -0.02330        1.10490
H         -0.67940       -0.04690        1.96350
H         -1.44980       -0.02900        4.31410
H          2.64950        0.10040        5.68910
H          3.43720        0.06840        3.33900
H          3.10780        1.80250       -0.77720
H          4.43230        1.73690       -2.87640
H          4.08410       -0.09960       -4.50970
H          2.40700       -1.87260       -4.05480
H          1.07050       -1.81150       -1.95480
