rmsd27.gzmat
 OpenBabel08211713373D

 28 29  0  0  0  0  0  0  0  0999 V2000
    0.0000    0.0000    0.0000 O   0  0  0  0  0  0  0  0  0  0  0  0
    1.2051    0.0000    0.0000 C   0  0  0  0  0  0  0  0  0  0  0  0
    1.9585    0.0000    1.1867 N   0  0  0  0  0  0  0  0  0  0  0  0
    1.4345   -0.0229    2.4880 C   0  0  0  0  0  0  0  0  0  0  0  0
    0.0672   -0.1965    2.7640 C   0  0  0  0  0  0  0  0  0  0  0  0
   -0.3713   -0.2294    4.0786 C   0  0  0  0  0  0  0  0  0  0  0  0
    0.5493   -0.0885    5.1235 C   0  0  0  0  0  0  0  0  0  0  0  0
    0.0848   -0.1318    6.4938 N   0  0  0  0  0  0  0  0  0  0  0  0
    0.9119   -0.0444    7.3890 O   0  0  0  0  0  0  0  0  0  0  0  0
   -1.1134   -0.2560    6.6959 O   0  0  0  0  0  0  0  0  0  0  0  0
    1.9127    0.0908    4.8615 C   0  0  0  0  0  0  0  0  0  0  0  0
    2.3560    0.1219    3.5503 C   0  0  0  0  0  0  0  0  0  0  0  0
    2.0361    0.0080   -1.2333 C   0  0  0  0  0  0  0  0  0  0  0  0
    2.0288    1.1461   -2.0377 C   0  0  0  0  0  0  0  0  0  0  0  0
    2.7555    1.1466   -3.2266 C   0  0  0  0  0  0  0  0  0  0  0  0
    3.4708    0.0119   -3.6071 C   0  0  0  0  0  0  0  0  0  0  0  0
    3.4752   -1.1221   -2.7951 C   0  0  0  0  0  0  0  0  0  0  0  0
    2.7555   -1.1280   -1.6022 C   0  0  0  0  0  0  0  0  0  0  0  0
    2.9726    0.0480    1.1022 H   0  0  0  0  0  0  0  0  0  0  0  0
   -0.6603   -0.3084    1.9544 H   0  0  0  0  0  0  0  0  0  0  0  0
   -1.4363   -0.3671    4.3030 H   0  0  0  0  0  0  0  0  0  0  0  0
    2.6192    0.2055    5.6918 H   0  0  0  0  0  0  0  0  0  0  0  0
    3.4144    0.2622    3.3432 H   0  0  0  0  0  0  0  0  0  0  0  0
    1.4489    2.0228   -1.7450 H   0  0  0  0  0  0  0  0  0  0  0  0
    2.7576    2.0313   -3.8621 H   0  0  0  0  0  0  0  0  0  0  0  0
    4.0220    0.0092   -4.5472 H   0  0  0  0  0  0  0  0  0  0  0  0
    4.0364   -2.0055   -3.0967 H   0  0  0  0  0  0  0  0  0  0  0  0
    2.7428   -2.0186   -0.9739 H   0  0  0  0  0  0  0  0  0  0  0  0
  1  2  2  0  0  0  0
  2  3  1  0  0  0  0
  3  4  1  0  0  0  0
  4  5  2  0  0  0  0
  4 12  1  0  0  0  0
  5  6  1  0  0  0  0
  6 21  1  0  0  0  0
  6  7  2  0  0  0  0
  7  8  1  0  0  0  0
  8 10  2  0  0  0  0
  8  9  2  0  0  0  0
 11  7  1  0  0  0  0
 11 22  1  0  0  0  0
 12 11  2  0  0  0  0
 13  2  1  0  0  0  0
 14 24  1  0  0  0  0
 14 13  2  0  0  0  0
 15 14  1  0  0  0  0
 16 15  2  0  0  0  0
 16 17  1  0  0  0  0
 17 18  2  0  0  0  0
 18 13  1  0  0  0  0
 18 28  1  0  0  0  0
 19  3  1  0  0  0  0
 20  5  1  0  0  0  0
 23 12  1  0  0  0  0
 25 15  1  0  0  0  0
 26 16  1  0  0  0  0
 27 17  1  0  0  0  0
M  END
$$$$
