28
rmsd30.gzmat
O          0.00000        0.00000        0.00000
C          1.20510        0.00000        0.00000
N          1.95940        0.00000        1.18680
C          1.43930       -0.00580        2.48920
C          0.06370        0.05650        2.77110
C         -0.37120        0.04210        4.08740
C          0.56210       -0.02790        5.12810
N          0.10400       -0.04360        6.50080
O          0.94100       -0.10160        7.38900
O         -1.09790        0.00160        6.71230
C          1.93520       -0.08320        4.86040
C          2.37430       -0.07370        3.54780
C          2.04110       -0.01200       -1.22960
C          2.85880        1.07430       -1.53670
C          3.61780        1.04840       -2.70440
C          3.55120       -0.05450       -3.55590
C          2.72090       -1.13110       -3.24770
C          1.95730       -1.11110       -2.08230
H          2.97480       -0.02620        1.10010
H         -0.67360        0.11700        1.96490
H         -1.44350        0.08650        4.31520
H          2.65250       -0.13540        5.68760
H          3.44030       -0.12220        3.33720
H          2.89460        1.94290       -0.87930
H          4.26130        1.89090       -2.95340
H          4.14770       -0.07190       -4.46780
H          2.66420       -1.98760       -3.91840
H          1.29360       -1.94330       -1.84270
