rmsd25.gzmat
 OpenBabel08211713373D

 28 29  0  0  0  0  0  0  0  0999 V2000
    0.0000    0.0000    0.0000 O   0  0  0  0  0  0  0  0  0  0  0  0
    1.2051    0.0000    0.0000 C   0  0  0  0  0  0  0  0  0  0  0  0
    1.9579    0.0000    1.1876 N   0  0  0  0  0  0  0  0  0  0  0  0
    1.4322    0.0267    2.4880 C   0  0  0  0  0  0  0  0  0  0  0  0
    2.3450   -0.1634    3.5501 C   0  0  0  0  0  0  0  0  0  0  0  0
    1.9000   -0.1287    4.8604 C   0  0  0  0  0  0  0  0  0  0  0  0
    0.5430    0.0964    5.1209 C   0  0  0  0  0  0  0  0  0  0  0  0
    0.0799    0.1390    6.4917 N   0  0  0  0  0  0  0  0  0  0  0  0
   -1.0975    0.3880    6.6992 O   0  0  0  0  0  0  0  0  0  0  0  0
    0.8889   -0.0740    7.3823 O   0  0  0  0  0  0  0  0  0  0  0  0
   -0.3694    0.2831    4.0760 C   0  0  0  0  0  0  0  0  0  0  0  0
    0.0722    0.2512    2.7622 C   0  0  0  0  0  0  0  0  0  0  0  0
    2.0398   -0.0112   -1.2306 C   0  0  0  0  0  0  0  0  0  0  0  0
    1.9717   -1.1187   -2.0740 C   0  0  0  0  0  0  0  0  0  0  0  0
    2.7226   -1.1303   -3.2477 C   0  0  0  0  0  0  0  0  0  0  0  0
    3.5256   -0.0379   -3.5728 C   0  0  0  0  0  0  0  0  0  0  0  0
    3.5815    1.0703   -2.7275 C   0  0  0  0  0  0  0  0  0  0  0  0
    2.8370    1.0869   -1.5505 C   0  0  0  0  0  0  0  0  0  0  0  0
    2.9716   -0.0597    1.1046 H   0  0  0  0  0  0  0  0  0  0  0  0
    3.3980   -0.3406    3.3443 H   0  0  0  0  0  0  0  0  0  0  0  0
    2.5998   -0.2747    5.6913 H   0  0  0  0  0  0  0  0  0  0  0  0
   -1.4297    0.4545    4.2982 H   0  0  0  0  0  0  0  0  0  0  0  0
   -0.6466    0.4038    1.9514 H   0  0  0  0  0  0  0  0  0  0  0  0
    1.3303   -1.9644   -1.8202 H   0  0  0  0  0  0  0  0  0  0  0  0
    2.6775   -1.9915   -3.9130 H   0  0  0  0  0  0  0  0  0  0  0  0
    4.1093   -0.0484   -4.4931 H   0  0  0  0  0  0  0  0  0  0  0  0
    4.2051    1.9240   -2.9889 H   0  0  0  0  0  0  0  0  0  0  0  0
    2.8691    1.9567   -0.8944 H   0  0  0  0  0  0  0  0  0  0  0  0
  1  2  2  0  0  0  0
  2  3  1  0  0  0  0
  3  4  1  0  0  0  0
  4 12  2  0  0  0  0
  4  5  1  0  0  0  0
  5  6  2  0  0  0  0
  6  7  1  0  0  0  0
  6 21  1  0  0  0  0
  7  8  1  0  0  0  0
  8  9  2  0  0  0  0
  8 10  2  0  0  0  0
 11 22  1  0  0  0  0
 11  7  2  0  0  0  0
 12 11  1  0  0  0  0
 13  2  1  0  0  0  0
 14 24  1  0  0  0  0
 14 13  2  0  0  0  0
 15 14  1  0  0  0  0
 16 15  2  0  0  0  0
 16 17  1  0  0  0  0
 17 18  2  0  0  0  0
 18 13  1  0  0  0  0
 18 28  1  0  0  0  0
 19  3  1  0  0  0  0
 20  5  1  0  0  0  0
 23 12  1  0  0  0  0
 25 15  1  0  0  0  0
 26 16  1  0  0  0  0
 27 17  1  0  0  0  0
M  END
$$$$
