rmsd30.gzmat
 OpenBabel08211713373D

 28 29  0  0  0  0  0  0  0  0999 V2000
    0.0000    0.0000    0.0000 O   0  0  0  0  0  0  0  0  0  0  0  0
    1.2051    0.0000    0.0000 C   0  0  0  0  0  0  0  0  0  0  0  0
    1.9594    0.0000    1.1868 N   0  0  0  0  0  0  0  0  0  0  0  0
    1.4393   -0.0058    2.4892 C   0  0  0  0  0  0  0  0  0  0  0  0
    0.0637    0.0565    2.7711 C   0  0  0  0  0  0  0  0  0  0  0  0
   -0.3712    0.0421    4.0874 C   0  0  0  0  0  0  0  0  0  0  0  0
    0.5621   -0.0279    5.1281 C   0  0  0  0  0  0  0  0  0  0  0  0
    0.1040   -0.0436    6.5008 N   0  0  0  0  0  0  0  0  0  0  0  0
    0.9410   -0.1016    7.3890 O   0  0  0  0  0  0  0  0  0  0  0  0
   -1.0979    0.0016    6.7123 O   0  0  0  0  0  0  0  0  0  0  0  0
    1.9352   -0.0832    4.8604 C   0  0  0  0  0  0  0  0  0  0  0  0
    2.3743   -0.0737    3.5478 C   0  0  0  0  0  0  0  0  0  0  0  0
    2.0411   -0.0120   -1.2296 C   0  0  0  0  0  0  0  0  0  0  0  0
    2.8588    1.0743   -1.5367 C   0  0  0  0  0  0  0  0  0  0  0  0
    3.6178    1.0484   -2.7044 C   0  0  0  0  0  0  0  0  0  0  0  0
    3.5512   -0.0545   -3.5559 C   0  0  0  0  0  0  0  0  0  0  0  0
    2.7209   -1.1311   -3.2477 C   0  0  0  0  0  0  0  0  0  0  0  0
    1.9573   -1.1111   -2.0823 C   0  0  0  0  0  0  0  0  0  0  0  0
    2.9748   -0.0262    1.1001 H   0  0  0  0  0  0  0  0  0  0  0  0
   -0.6736    0.1170    1.9649 H   0  0  0  0  0  0  0  0  0  0  0  0
   -1.4435    0.0865    4.3152 H   0  0  0  0  0  0  0  0  0  0  0  0
    2.6525   -0.1354    5.6876 H   0  0  0  0  0  0  0  0  0  0  0  0
    3.4403   -0.1222    3.3372 H   0  0  0  0  0  0  0  0  0  0  0  0
    2.8946    1.9429   -0.8793 H   0  0  0  0  0  0  0  0  0  0  0  0
    4.2613    1.8909   -2.9534 H   0  0  0  0  0  0  0  0  0  0  0  0
    4.1477   -0.0719   -4.4678 H   0  0  0  0  0  0  0  0  0  0  0  0
    2.6642   -1.9876   -3.9184 H   0  0  0  0  0  0  0  0  0  0  0  0
    1.2936   -1.9433   -1.8427 H   0  0  0  0  0  0  0  0  0  0  0  0
  1  2  2  0  0  0  0
  2  3  1  0  0  0  0
  3  4  1  0  0  0  0
  4  5  2  0  0  0  0
  4 12  1  0  0  0  0
  5  6  1  0  0  0  0
  6 21  1  0  0  0  0
  6  7  2  0  0  0  0
  7  8  1  0  0  0  0
  8 10  2  0  0  0  0
  8  9  2  0  0  0  0
 11  7  1  0  0  0  0
 11 22  1  0  0  0  0
 12 11  2  0  0  0  0
 13  2  1  0  0  0  0
 14 13  1  0  0  0  0
 14 24  1  0  0  0  0
 15 14  2  0  0  0  0
 16 17  2  0  0  0  0
 16 15  1  0  0  0  0
 17 18  1  0  0  0  0
 18 28  1  0  0  0  0
 18 13  2  0  0  0  0
 19  3  1  0  0  0  0
 20  5  1  0  0  0  0
 23 12  1  0  0  0  0
 25 15  1  0  0  0  0
 26 16  1  0  0  0  0
 27 17  1  0  0  0  0
M  END
$$$$
