rmsd24.gzmat
 OpenBabel08211713373D

 28 29  0  0  0  0  0  0  0  0999 V2000
    0.0000    0.0000    0.0000 O   0  0  0  0  0  0  0  0  0  0  0  0
    1.2064    0.0000    0.0000 C   0  0  0  0  0  0  0  0  0  0  0  0
    1.9546    0.0000    1.1899 N   0  0  0  0  0  0  0  0  0  0  0  0
    1.4232   -0.0293    2.4880 C   0  0  0  0  0  0  0  0  0  0  0  0
    0.0453   -0.0953    2.7564 C   0  0  0  0  0  0  0  0  0  0  0  0
   -0.4006   -0.1340    4.0684 C   0  0  0  0  0  0  0  0  0  0  0  0
    0.5240   -0.1078    5.1188 C   0  0  0  0  0  0  0  0  0  0  0  0
    0.0531   -0.1515    6.4867 N   0  0  0  0  0  0  0  0  0  0  0  0
    0.8821   -0.1790    7.3839 O   0  0  0  0  0  0  0  0  0  0  0  0
   -1.1519   -0.1585    6.6848 O   0  0  0  0  0  0  0  0  0  0  0  0
    1.8990   -0.0398    4.8650 C   0  0  0  0  0  0  0  0  0  0  0  0
    2.3490    0.0009    3.5565 C   0  0  0  0  0  0  0  0  0  0  0  0
    2.0220    0.0121   -1.2420 C   0  0  0  0  0  0  0  0  0  0  0  0
    1.6989    0.9498   -2.2231 C   0  0  0  0  0  0  0  0  0  0  0  0
    2.4095    0.9614   -3.4214 C   0  0  0  0  0  0  0  0  0  0  0  0
    3.4299    0.0356   -3.6346 C   0  0  0  0  0  0  0  0  0  0  0  0
    3.7422   -0.9051   -2.6530 C   0  0  0  0  0  0  0  0  0  0  0  0
    3.0359   -0.9218   -1.4527 C   0  0  0  0  0  0  0  0  0  0  0  0
    2.9695    0.0435    1.1132 H   0  0  0  0  0  0  0  0  0  0  0  0
   -0.6872   -0.1175    1.9432 H   0  0  0  0  0  0  0  0  0  0  0  0
   -1.4747   -0.1860    4.2850 H   0  0  0  0  0  0  0  0  0  0  0  0
    2.6081   -0.0199    5.7004 H   0  0  0  0  0  0  0  0  0  0  0  0
    3.4163    0.0565    3.3563 H   0  0  0  0  0  0  0  0  0  0  0  0
    0.8862    1.6596   -2.0536 H   0  0  0  0  0  0  0  0  0  0  0  0
    2.1608    1.6892   -4.1931 H   0  0  0  0  0  0  0  0  0  0  0  0
    3.9814    0.0425   -4.5746 H   0  0  0  0  0  0  0  0  0  0  0  0
    4.5340   -1.6323   -2.8273 H   0  0  0  0  0  0  0  0  0  0  0  0
    3.2643   -1.6736   -0.6977 H   0  0  0  0  0  0  0  0  0  0  0  0
  1  2  2  0  0  0  0
  2  3  1  0  0  0  0
  3  4  1  0  0  0  0
  4  5  2  0  0  0  0
  4 12  1  0  0  0  0
  5  6  1  0  0  0  0
  6 21  1  0  0  0  0
  6  7  2  0  0  0  0
  7  8  1  0  0  0  0
  8 10  2  0  0  0  0
  8  9  2  0  0  0  0
 11  7  1  0  0  0  0
 11 22  1  0  0  0  0
 12 11  2  0  0  0  0
 13  2  1  0  0  0  0
 14 24  1  0  0  0  0
 14 13  2  0  0  0  0
 15 14  1  0  0  0  0
 16 15  2  0  0  0  0
 16 17  1  0  0  0  0
 17 18  2  0  0  0  0
 18 13  1  0  0  0  0
 18 28  1  0  0  0  0
 19  3  1  0  0  0  0
 20  5  1  0  0  0  0
 23 12  1  0  0  0  0
 25 15  1  0  0  0  0
 26 16  1  0  0  0  0
 27 17  1  0  0  0  0
M  END
$$$$
