28
rmsd27.gzmat
O          0.00000        0.00000        0.00000
C          1.20510        0.00000        0.00000
N          1.95850        0.00000        1.18670
C          1.43450       -0.02290        2.48800
C          0.06720       -0.19650        2.76400
C         -0.37130       -0.22940        4.07860
C          0.54930       -0.08850        5.12350
N          0.08480       -0.13180        6.49380
O          0.91190       -0.04440        7.38900
O         -1.11340       -0.25600        6.69590
C          1.91270        0.09080        4.86150
C          2.35600        0.12190        3.55030
C          2.03610        0.00800       -1.23330
C          2.02880        1.14610       -2.03770
C          2.75550        1.14660       -3.22660
C          3.47080        0.01190       -3.60710
C          3.47520       -1.12210       -2.79510
C          2.75550       -1.12800       -1.60220
H          2.97260        0.04800        1.10220
H         -0.66030       -0.30840        1.95440
H         -1.43630       -0.36710        4.30300
H          2.61920        0.20550        5.69180
H          3.41440        0.26220        3.34320
H          1.44890        2.02280       -1.74500
H          2.75760        2.03130       -3.86210
H          4.02200        0.00920       -4.54720
H          4.03640       -2.00550       -3.09670
H          2.74280       -2.01860       -0.97390
