rmsd66.gzmat
 OpenBabel08211713423D

 28 29  0  0  1  0  0  0  0  0999 V2000
    0.0000    0.0000    0.0000 O   0  0  0  0  0  0  0  0  0  0  0  0
    1.3472    0.0000    0.0000 C   0  0  0  0  0  0  0  0  0  0  0  0
    1.9938    0.0000    1.0141 O   0  0  0  0  0  0  0  0  0  0  0  0
    1.8878    0.0216   -1.4252 C   0  0  1  0  0  0  0  0  0  0  0  0
    1.4224    0.8871   -1.9768 H   0  0  0  0  0  0  0  0  0  0  0  0
    3.3545    0.1927   -1.4209 N   0  0  0  0  0  0  0  0  0  0  0  0
    1.5121   -1.2998   -2.1311 C   0  0  0  0  0  0  0  0  0  0  0  0
    1.3953   -1.1197   -3.5865 C   0  0  0  0  0  0  0  0  0  0  0  0
    0.3206   -1.3442   -4.4136 C   0  0  0  0  0  0  0  0  0  0  0  0
    0.6701   -1.0928   -5.7319 O   0  0  0  0  0  0  0  0  0  0  0  0
    1.9849   -0.6842   -5.7610 N   0  0  0  0  0  0  0  0  0  0  0  0
    2.4461   -0.6877   -4.5049 C   0  0  0  0  0  0  0  0  0  0  0  0
    3.6987   -0.3408   -4.2269 O   0  0  0  0  0  0  0  0  0  0  0  0
   -1.0238   -1.7638   -4.1825 C   0  0  0  0  0  0  0  0  0  0  0  0
   -2.0702   -1.6854   -5.0569 N   0  0  0  0  0  0  0  0  0  0  0  0
   -3.1122   -2.1985   -4.3758 N   0  0  0  0  0  0  0  0  0  0  0  0
   -2.7505   -2.5847   -3.1242 N   0  0  0  0  0  0  0  0  0  0  0  0
   -1.4918   -2.3350   -2.9807 N   0  0  0  0  0  0  0  0  0  0  0  0
   -4.4521   -2.2900   -4.9341 C   0  0  0  0  0  0  0  0  0  0  0  0
   -0.4038   -0.0421    0.9052 H   0  0  0  0  0  0  0  0  0  0  0  0
    3.8119   -0.4859   -0.8207 H   0  0  0  0  0  0  0  0  0  0  0  0
    3.6270    1.1178   -1.1118 H   0  0  0  0  0  0  0  0  0  0  0  0
    0.5462   -1.6902   -1.7162 H   0  0  0  0  0  0  0  0  0  0  0  0
    2.2595   -2.0936   -1.8980 H   0  0  0  0  0  0  0  0  0  0  0  0
    3.7909   -0.1576   -3.2201 H   0  0  0  0  0  0  0  0  0  0  0  0
   -4.9795   -3.1693   -4.5125 H   0  0  0  0  0  0  0  0  0  0  0  0
   -4.4058   -2.3916   -6.0383 H   0  0  0  0  0  0  0  0  0  0  0  0
   -5.0344   -1.3778   -4.6906 H   0  0  0  0  0  0  0  0  0  0  0  0
  1 20  1  0  0  0  0
  2  1  1  0  0  0  0
  2  3  2  0  0  0  0
  4  5  1  6  0  0  0
  4  6  1  0  0  0  0
  4  2  1  0  0  0  0
  6 22  1  0  0  0  0
  6 21  1  0  0  0  0
  7 24  1  0  0  0  0
  7 23  1  0  0  0  0
  7  4  1  0  0  0  0
  8  7  1  0  0  0  0
  9 14  1  0  0  0  0
  9  8  2  0  0  0  0
 10  9  1  0  0  0  0
 11 10  1  0  0  0  0
 11 12  2  0  0  0  0
 12 13  1  0  0  0  0
 12  8  1  0  0  0  0
 13 25  1  0  0  0  0
 14 18  2  0  0  0  0
 15 16  1  0  0  0  0
 15 14  2  0  0  0  0
 16 17  1  0  0  0  0
 17 18  1  0  0  0  0
 19 28  1  0  0  0  0
 19 26  1  0  0  0  0
 19 16  1  0  0  0  0
 27 19  1  0  0  0  0
M  RAD  1  17   2
M  END
$$$$
