28
rmsd248.gzmat
O          0.00000        0.00000        0.00000
C          1.34790        0.00000        0.00000
O          1.99480        0.00000        1.01350
C          1.88360        0.02370       -1.42730
H          1.25350        0.71900       -2.05080
N          3.28130        0.49740       -1.44650
C          1.79960       -1.40700       -2.00400
C          1.66230       -1.39560       -3.46880
C          0.69260       -1.96600       -4.25920
O          0.97520       -1.74480       -5.59880
N          2.13880       -1.01380       -5.68110
C          2.57600       -0.79110       -4.43580
O          3.69940       -0.11820       -4.21210
C         -0.48780       -2.71770       -3.97970
N         -1.45860       -3.07980       -4.87000
N         -2.34490       -3.77440       -4.13200
N         -1.96000       -3.85380       -2.83170
N         -0.83970       -3.22230       -2.71070
C         -3.53820       -4.38250       -4.69970
H         -0.40440       -0.04910        0.90450
H          3.86730       -0.02710       -0.80390
H          3.35380        1.47970       -1.21230
H          0.93240       -1.94760       -1.54370
H          2.69260       -2.00340       -1.70380
H          3.76050        0.13860       -3.21900
H         -4.27580       -4.59170       -3.89920
H         -3.27990       -5.33630       -5.20490
H         -3.99950       -3.70640       -5.44850
