28

O          0.25490       -0.07250        0.42250
C          1.56450       -0.01900        0.14620
O          2.42890       -0.05500        0.98740
C          1.83500        0.05580       -1.35420
H          1.15190        0.80490       -1.78390
N          3.21840        0.45620       -1.61610
C          1.52030       -1.30990       -2.00240
C          1.45130       -1.28030       -3.50010
C          0.45610       -1.75480       -4.31770
O          0.79550       -1.60070       -5.60730
N          2.04190       -0.99800       -5.69420
C          2.43450       -0.81100       -4.45060
O          3.60680       -0.25270       -4.18920
C         -0.82640       -2.37100       -4.02820
N         -1.70050       -2.77970       -4.94980
N         -2.68030       -3.25380       -4.20080
N         -2.45710       -3.15890       -2.89690
N         -1.28810       -2.60300       -2.76740
C         -3.89130       -3.82890       -4.74910
H          0.15970       -0.17040        1.38600
H          3.82620       -0.04000       -0.95800
H          3.34910        1.44700       -1.40710
H          0.56230       -1.68140       -1.61680
H          2.29910       -2.02220       -1.67180
H          3.60320        0.04190       -3.23210
H         -4.52050       -4.13480       -3.90560
H         -3.63880       -4.69790       -5.37220
H         -4.41150       -3.08010       -5.36220
