28
rmsd139.gzmat
O          0.00000        0.00000        0.00000
C          1.34730        0.00000        0.00000
O          1.99320        0.00000        1.01460
C          1.88890        0.02960       -1.42400
H          1.41360        0.89230       -1.97270
N          3.35290        0.22120       -1.41650
C          1.53170       -1.29170       -2.13950
C          1.39860       -1.09580       -3.59180
C          0.33080       -1.36140       -4.41580
O          0.65370       -1.06090       -5.73060
N          1.94340       -0.58030       -5.76060
C          2.41650       -0.58790       -4.50870
O          3.65240       -0.18090       -4.23900
C         -0.98940       -1.85320       -4.18770
N         -2.03750       -1.81560       -5.06320
N         -3.05620       -2.37960       -4.38720
N         -2.67850       -2.76000       -3.13870
N         -1.43210       -2.45470       -2.99120
C         -4.38680       -2.53320       -4.95470
H         -0.40380       -0.02880        0.90560
H          3.82280       -0.48490       -0.85910
H          3.61500        1.13060       -1.05460
H          0.57760       -1.70530       -1.71960
H          2.29360       -2.07620       -1.92300
H          3.75710       -0.02870       -3.22820
H         -5.05220       -3.04250       -4.22890
H         -4.34240       -3.13470       -5.88620
H         -4.81850       -1.54160       -5.20350
