28
rmsd200.gzmat
O          0.00000        0.00000        0.00000
C          1.34730        0.00000        0.00000
O          1.99530        0.00000        1.01290
C          1.88350        0.02740       -1.42700
H          1.28510        0.76470       -2.03390
N          3.30120        0.43960       -1.43680
C          1.73510       -1.38370       -2.03710
C          1.60770       -1.33560       -3.50230
C          0.62550       -1.85970       -4.30940
O          0.92180       -1.61890       -5.64270
N          2.10660       -0.92110       -5.70380
C          2.54460       -0.73910       -4.45200
O          3.68680       -0.10520       -4.21180
C         -0.58000       -2.57920       -4.05250
N         -1.52600       -2.94470       -4.96800
N         -2.45300       -3.60090       -4.24470
N         -2.11780       -3.65160       -2.92920
N         -0.98830       -3.04200       -2.78420
C         -3.65650       -4.16640       -4.83450
H         -0.40510       -0.04660        0.90430
H          3.86560       -0.12940       -0.81300
H          3.41690        1.40950       -1.17040
H          0.83950       -1.89170       -1.59280
H          2.59650       -2.02890       -1.74560
H          3.75880        0.12100       -3.21130
H         -4.19670       -4.77670       -4.08320
H         -3.39770       -4.80860       -5.70160
H         -4.32880       -3.35870       -5.19050
