28
rmsd66.gzmat
O          0.00000        0.00000        0.00000
C          1.34720        0.00000        0.00000
O          1.99380        0.00000        1.01410
C          1.88780        0.02160       -1.42520
H          1.42240        0.88710       -1.97680
N          3.35450        0.19270       -1.42090
C          1.51210       -1.29980       -2.13110
C          1.39530       -1.11970       -3.58650
C          0.32060       -1.34420       -4.41360
O          0.67010       -1.09280       -5.73190
N          1.98490       -0.68420       -5.76100
C          2.44610       -0.68770       -4.50490
O          3.69870       -0.34080       -4.22690
C         -1.02380       -1.76380       -4.18250
N         -2.07020       -1.68540       -5.05690
N         -3.11220       -2.19850       -4.37580
N         -2.75050       -2.58470       -3.12420
N         -1.49180       -2.33500       -2.98070
C         -4.45210       -2.29000       -4.93410
H         -0.40380       -0.04210        0.90520
H          3.81190       -0.48590       -0.82070
H          3.62700        1.11780       -1.11180
H          0.54620       -1.69020       -1.71620
H          2.25950       -2.09360       -1.89800
H          3.79090       -0.15760       -3.22010
H         -4.97950       -3.16930       -4.51250
H         -4.40580       -2.39160       -6.03830
H         -5.03440       -1.37780       -4.69060
