28
rmsd140.gzmat
O          0.00000        0.00000        0.00000
C          1.34790        0.00000        0.00000
O          1.99420        0.00000        1.01420
C          1.88630        0.02360       -1.42550
H          1.38640        0.86300       -1.98810
N          3.34490        0.25050       -1.42710
C          1.55980       -1.32110       -2.11280
C          1.41960       -1.15660       -3.56790
C          0.34860       -1.43820       -4.38240
O          0.66680       -1.16340       -5.70380
N          1.95750       -0.68560       -5.74820
C          2.43480       -0.66860       -4.49810
O          3.67260       -0.26020       -4.23730
C         -0.96760       -1.93210       -4.13630
N         -2.02820       -1.90220       -4.99630
N         -3.03340       -2.47260       -4.30540
N         -2.63560       -2.84820       -3.06210
N         -1.38940       -2.53440       -2.93290
C         -4.37120       -2.63860       -4.85210
H         -0.40270       -0.04700        0.90570
H          3.83050       -0.40690       -0.82560
H          3.58330        1.18690       -1.12440
H          0.61640       -1.74820       -1.68300
H          2.34200       -2.08080       -1.88150
H          3.77340       -0.07980       -3.23090
H         -5.01820       -3.16080       -4.11890
H         -4.33600       -3.23370       -5.78810
H         -4.81860       -1.65080       -5.08690
