rmsd104.gzmat
 OpenBabel08211713423D

 28 29  0  0  1  0  0  0  0  0999 V2000
    0.0000    0.0000    0.0000 O   0  0  0  0  0  0  0  0  0  0  0  0
    1.3473    0.0000    0.0000 C   0  0  0  0  0  0  0  0  0  0  0  0
    1.9948    0.0000    1.0133 O   0  0  0  0  0  0  0  0  0  0  0  0
    1.8866    0.0216   -1.4255 C   0  0  1  0  0  0  0  0  0  0  0  0
    1.3647    0.8381   -2.0016 H   0  0  0  0  0  0  0  0  0  0  0  0
    3.3378    0.2930   -1.4266 N   0  0  0  0  0  0  0  0  0  0  0  0
    1.6016   -1.3435   -2.0900 C   0  0  0  0  0  0  0  0  0  0  0  0
    1.4551   -1.2194   -3.5489 C   0  0  0  0  0  0  0  0  0  0  0  0
    0.4203   -1.6268   -4.3576 C   0  0  0  0  0  0  0  0  0  0  0  0
    0.7083   -1.3425   -5.6840 O   0  0  0  0  0  0  0  0  0  0  0  0
    1.9433   -0.7369   -5.7387 N   0  0  0  0  0  0  0  0  0  0  0  0
    2.4179   -0.6516   -4.4898 C   0  0  0  0  0  0  0  0  0  0  0  0
    3.6111   -0.1211   -4.2458 O   0  0  0  0  0  0  0  0  0  0  0  0
   -0.8309   -2.2657   -4.1060 C   0  0  0  0  0  0  0  0  0  0  0  0
   -1.8318   -2.4911   -5.0082 N   0  0  0  0  0  0  0  0  0  0  0  0
   -2.7866   -3.1190   -4.2960 N   0  0  0  0  0  0  0  0  0  0  0  0
   -2.4154   -3.2869   -3.0000 N   0  0  0  0  0  0  0  0  0  0  0  0
   -1.2357   -2.7809   -2.8569 N   0  0  0  0  0  0  0  0  0  0  0  0
   -4.0491   -3.5481   -4.8769 C   0  0  0  0  0  0  0  0  0  0  0  0
   -0.4041   -0.0545    0.9042 H   0  0  0  0  0  0  0  0  0  0  0  0
    3.8464   -0.3663   -0.8460 H   0  0  0  0  0  0  0  0  0  0  0  0
    3.5499    1.2272   -1.0989 H   0  0  0  0  0  0  0  0  0  0  0  0
    0.6708   -1.7889   -1.6501 H   0  0  0  0  0  0  0  0  0  0  0  0
    2.4051   -2.0761   -1.8429 H   0  0  0  0  0  0  0  0  0  0  0  0
    3.7273    0.0347   -3.2366 H   0  0  0  0  0  0  0  0  0  0  0  0
   -4.6695   -4.0488   -4.1066 H   0  0  0  0  0  0  0  0  0  0  0  0
   -3.8695   -4.2577   -5.7108 H   0  0  0  0  0  0  0  0  0  0  0  0
   -4.6062   -2.6764   -5.2777 H   0  0  0  0  0  0  0  0  0  0  0  0
  1  2  1  0  0  0  0
  1 20  1  0  0  0  0
  2  3  2  0  0  0  0
  4  5  1  6  0  0  0
  4  2  1  0  0  0  0
  6  4  1  0  0  0  0
  6 22  1  0  0  0  0
  6 21  1  0  0  0  0
  7 24  1  0  0  0  0
  7 23  1  0  0  0  0
  7  4  1  0  0  0  0
  8  7  1  0  0  0  0
  9 14  1  0  0  0  0
  9  8  2  0  0  0  0
 10  9  1  0  0  0  0
 11 10  1  0  0  0  0
 11 12  2  0  0  0  0
 12 13  1  0  0  0  0
 12  8  1  0  0  0  0
 13 25  1  0  0  0  0
 14 18  2  0  0  0  0
 15 16  1  0  0  0  0
 15 14  2  0  0  0  0
 16 17  1  0  0  0  0
 17 18  1  0  0  0  0
 19 16  1  0  0  0  0
 19 26  1  0  0  0  0
 27 19  1  0  0  0  0
 28 19  1  0  0  0  0
M  RAD  1  17   2
M  END
$$$$
