rmsd82.gzmat
 OpenBabel08211713423D

 28 29  0  0  1  0  0  0  0  0999 V2000
    0.0000    0.0000    0.0000 O   0  0  0  0  0  0  0  0  0  0  0  0
    1.3476    0.0000    0.0000 C   0  0  0  0  0  0  0  0  0  0  0  0
    1.9948    0.0000    1.0136 O   0  0  0  0  0  0  0  0  0  0  0  0
    1.8845    0.0234   -1.4267 C   0  0  1  0  0  0  0  0  0  0  0  0
    1.3132    0.7900   -2.0234 H   0  0  0  0  0  0  0  0  0  0  0  0
    3.3162    0.3823   -1.4344 N   0  0  0  0  0  0  0  0  0  0  0  0
    1.6787   -1.3730   -2.0541 C   0  0  0  0  0  0  0  0  0  0  0  0
    1.5531   -1.2984   -3.5184 C   0  0  0  0  0  0  0  0  0  0  0  0
    0.5424   -1.7580   -4.3299 C   0  0  0  0  0  0  0  0  0  0  0  0
    0.8470   -1.5131   -5.6603 O   0  0  0  0  0  0  0  0  0  0  0  0
    2.0667   -0.8771   -5.7149 N   0  0  0  0  0  0  0  0  0  0  0  0
    2.5163   -0.7359   -4.4620 C   0  0  0  0  0  0  0  0  0  0  0  0
    3.6888   -0.1625   -4.2150 O   0  0  0  0  0  0  0  0  0  0  0  0
   -0.6990   -2.4147   -4.0762 C   0  0  0  0  0  0  0  0  0  0  0  0
   -1.6726   -2.7090   -4.9882 N   0  0  0  0  0  0  0  0  0  0  0  0
   -2.6288   -3.3251   -4.2675 N   0  0  0  0  0  0  0  0  0  0  0  0
   -2.2848   -3.4198   -2.9569 N   0  0  0  0  0  0  0  0  0  0  0  0
   -1.1214   -2.8780   -2.8124 N   0  0  0  0  0  0  0  0  0  0  0  0
   -3.8696   -3.8084   -4.8527 C   0  0  0  0  0  0  0  0  0  0  0  0
   -0.4043   -0.0481    0.9047 H   0  0  0  0  0  0  0  0  0  0  0  0
    3.8577   -0.2069   -0.8105 H   0  0  0  0  0  0  0  0  0  0  0  0
    3.4662    1.3467   -1.1664 H   0  0  0  0  0  0  0  0  0  0  0  0
    0.7601   -1.8462   -1.6171 H   0  0  0  0  0  0  0  0  0  0  0  0
    2.5103   -2.0589   -1.7695 H   0  0  0  0  0  0  0  0  0  0  0  0
    3.7696    0.0503   -3.2125 H   0  0  0  0  0  0  0  0  0  0  0  0
   -4.4271   -4.4155   -4.1113 H   0  0  0  0  0  0  0  0  0  0  0  0
   -3.6599   -4.4333   -5.7452 H   0  0  0  0  0  0  0  0  0  0  0  0
   -4.5052   -2.9559   -5.1684 H   0  0  0  0  0  0  0  0  0  0  0  0
  1  2  1  0  0  0  0
  1 20  1  0  0  0  0
  2  3  2  0  0  0  0
  4  5  1  6  0  0  0
  4  2  1  0  0  0  0
  6  4  1  0  0  0  0
  6 22  1  0  0  0  0
  6 21  1  0  0  0  0
  7 24  1  0  0  0  0
  7 23  1  0  0  0  0
  7  4  1  0  0  0  0
  8  7  1  0  0  0  0
  9 14  1  0  0  0  0
  9  8  2  0  0  0  0
 10  9  1  0  0  0  0
 11 10  1  0  0  0  0
 11 12  2  0  0  0  0
 12 13  1  0  0  0  0
 12  8  1  0  0  0  0
 13 25  1  0  0  0  0
 14 18  2  0  0  0  0
 15 16  1  0  0  0  0
 15 14  2  0  0  0  0
 16 17  1  0  0  0  0
 17 18  1  0  0  0  0
 19 16  1  0  0  0  0
 19 26  1  0  0  0  0
 27 19  1  0  0  0  0
 28 19  1  0  0  0  0
M  RAD  1  17   2
M  END
$$$$
