rmsd248.gzmat
 OpenBabel08211713423D

 28 29  0  0  1  0  0  0  0  0999 V2000
    0.0000    0.0000    0.0000 O   0  0  0  0  0  0  0  0  0  0  0  0
    1.3479    0.0000    0.0000 C   0  0  0  0  0  0  0  0  0  0  0  0
    1.9948    0.0000    1.0135 O   0  0  0  0  0  0  0  0  0  0  0  0
    1.8836    0.0237   -1.4273 C   0  0  1  0  0  0  0  0  0  0  0  0
    1.2535    0.7190   -2.0508 H   0  0  0  0  0  0  0  0  0  0  0  0
    3.2813    0.4974   -1.4465 N   0  0  0  0  0  0  0  0  0  0  0  0
    1.7996   -1.4070   -2.0040 C   0  0  0  0  0  0  0  0  0  0  0  0
    1.6623   -1.3956   -3.4688 C   0  0  0  0  0  0  0  0  0  0  0  0
    0.6926   -1.9660   -4.2592 C   0  0  0  0  0  0  0  0  0  0  0  0
    0.9752   -1.7448   -5.5988 O   0  0  0  0  0  0  0  0  0  0  0  0
    2.1388   -1.0138   -5.6811 N   0  0  0  0  0  0  0  0  0  0  0  0
    2.5760   -0.7911   -4.4358 C   0  0  0  0  0  0  0  0  0  0  0  0
    3.6994   -0.1182   -4.2121 O   0  0  0  0  0  0  0  0  0  0  0  0
   -0.4878   -2.7177   -3.9797 C   0  0  0  0  0  0  0  0  0  0  0  0
   -1.4586   -3.0798   -4.8700 N   0  0  0  0  0  0  0  0  0  0  0  0
   -2.3449   -3.7744   -4.1320 N   0  0  0  0  0  0  0  0  0  0  0  0
   -1.9600   -3.8538   -2.8317 N   0  0  0  0  0  0  0  0  0  0  0  0
   -0.8397   -3.2223   -2.7107 N   0  0  0  0  0  0  0  0  0  0  0  0
   -3.5382   -4.3825   -4.6997 C   0  0  0  0  0  0  0  0  0  0  0  0
   -0.4044   -0.0491    0.9045 H   0  0  0  0  0  0  0  0  0  0  0  0
    3.8673   -0.0271   -0.8039 H   0  0  0  0  0  0  0  0  0  0  0  0
    3.3538    1.4797   -1.2123 H   0  0  0  0  0  0  0  0  0  0  0  0
    0.9324   -1.9476   -1.5437 H   0  0  0  0  0  0  0  0  0  0  0  0
    2.6926   -2.0034   -1.7038 H   0  0  0  0  0  0  0  0  0  0  0  0
    3.7605    0.1386   -3.2190 H   0  0  0  0  0  0  0  0  0  0  0  0
   -4.2758   -4.5917   -3.8992 H   0  0  0  0  0  0  0  0  0  0  0  0
   -3.2799   -5.3363   -5.2049 H   0  0  0  0  0  0  0  0  0  0  0  0
   -3.9995   -3.7064   -5.4485 H   0  0  0  0  0  0  0  0  0  0  0  0
  1  2  1  0  0  0  0
  1 20  1  0  0  0  0
  2  3  2  0  0  0  0
  4  5  1  6  0  0  0
  4  2  1  0  0  0  0
  6  4  1  0  0  0  0
  6 22  1  0  0  0  0
  6 21  1  0  0  0  0
  7 24  1  0  0  0  0
  7 23  1  0  0  0  0
  7  4  1  0  0  0  0
  8  7  1  0  0  0  0
  9 14  1  0  0  0  0
  9  8  2  0  0  0  0
 10  9  1  0  0  0  0
 11 10  1  0  0  0  0
 11 12  2  0  0  0  0
 12 13  1  0  0  0  0
 12  8  1  0  0  0  0
 13 25  1  0  0  0  0
 14 18  2  0  0  0  0
 15 16  1  0  0  0  0
 15 14  2  0  0  0  0
 16 17  1  0  0  0  0
 17 18  1  0  0  0  0
 19 16  1  0  0  0  0
 19 26  1  0  0  0  0
 27 19  1  0  0  0  0
 28 19  1  0  0  0  0
M  RAD  1  17   2
M  END
$$$$
