rmsd103.gzmat
 OpenBabel08211713423D

 28 29  0  0  1  0  0  0  0  0999 V2000
    0.0000    0.0000    0.0000 O   0  0  0  0  0  0  0  0  0  0  0  0
    1.3469    0.0000    0.0000 C   0  0  0  0  0  0  0  0  0  0  0  0
    1.9943    0.0000    1.0138 O   0  0  0  0  0  0  0  0  0  0  0  0
    1.8882    0.0286   -1.4247 C   0  0  1  0  0  0  0  0  0  0  0  0
    1.3816    0.8623   -1.9893 H   0  0  0  0  0  0  0  0  0  0  0  0
    3.3442    0.2738   -1.4177 N   0  0  0  0  0  0  0  0  0  0  0  0
    1.5791   -1.3187   -2.1130 C   0  0  0  0  0  0  0  0  0  0  0  0
    1.4514   -1.1669   -3.5713 C   0  0  0  0  0  0  0  0  0  0  0  0
    0.4132   -1.5281   -4.3976 C   0  0  0  0  0  0  0  0  0  0  0  0
    0.7272   -1.2373   -5.7168 O   0  0  0  0  0  0  0  0  0  0  0  0
    1.9821   -0.6723   -5.7486 N   0  0  0  0  0  0  0  0  0  0  0  0
    2.4436   -0.6184   -4.4932 C   0  0  0  0  0  0  0  0  0  0  0  0
    3.6500   -0.1297   -4.2283 O   0  0  0  0  0  0  0  0  0  0  0  0
   -0.8614   -2.1288   -4.1706 C   0  0  0  0  0  0  0  0  0  0  0  0
   -1.8375   -2.3548   -5.0996 N   0  0  0  0  0  0  0  0  0  0  0  0
   -2.8319   -2.9369   -4.4031 N   0  0  0  0  0  0  0  0  0  0  0  0
   -2.5070   -3.0802   -3.0917 N   0  0  0  0  0  0  0  0  0  0  0  0
   -1.3208   -2.5983   -2.9224 N   0  0  0  0  0  0  0  0  0  0  0  0
   -4.0730   -3.3787   -5.0198 C   0  0  0  0  0  0  0  0  0  0  0  0
   -0.4038   -0.0430    0.9054 H   0  0  0  0  0  0  0  0  0  0  0  0
    3.8381   -0.3999   -0.8407 H   0  0  0  0  0  0  0  0  0  0  0  0
    3.5715    1.2013   -1.0800 H   0  0  0  0  0  0  0  0  0  0  0  0
    0.6327   -1.7474   -1.6896 H   0  0  0  0  0  0  0  0  0  0  0  0
    2.3622   -2.0739   -1.8700 H   0  0  0  0  0  0  0  0  0  0  0  0
    3.7542    0.0211   -3.2168 H   0  0  0  0  0  0  0  0  0  0  0  0
   -4.8661   -3.4740   -4.2513 H   0  0  0  0  0  0  0  0  0  0  0  0
   -3.9305   -4.3646   -5.5085 H   0  0  0  0  0  0  0  0  0  0  0  0
   -4.4030   -2.6530   -5.7916 H   0  0  0  0  0  0  0  0  0  0  0  0
  1  2  1  0  0  0  0
  1 20  1  0  0  0  0
  2  3  2  0  0  0  0
  4  5  1  6  0  0  0
  4  6  1  0  0  0  0
  4  2  1  0  0  0  0
  6 22  1  0  0  0  0
  6 21  1  0  0  0  0
  7 24  1  0  0  0  0
  7 23  1  0  0  0  0
  7  4  1  0  0  0  0
  8  7  1  0  0  0  0
  9 14  1  0  0  0  0
  9  8  2  0  0  0  0
 10  9  1  0  0  0  0
 11 10  1  0  0  0  0
 11 12  2  0  0  0  0
 12 13  1  0  0  0  0
 12  8  1  0  0  0  0
 13 25  1  0  0  0  0
 14 18  2  0  0  0  0
 15 16  1  0  0  0  0
 15 14  2  0  0  0  0
 16 17  1  0  0  0  0
 17 18  1  0  0  0  0
 19 16  1  0  0  0  0
 19 26  1  0  0  0  0
 27 19  1  0  0  0  0
 28 19  1  0  0  0  0
M  RAD  1  17   2
M  END
$$$$
