50
rmsd86.gzmat
O          0.00000        0.00000        0.00000
S          1.64640        0.00000        0.00000
O          2.12070        0.00000        1.34910
O          2.01370       -0.99520       -0.96650
N          1.94360        1.58890       -0.59280
C          1.60910        2.04480       -1.88210
C          1.46170        3.43130       -2.07920
C          1.19170        3.92680       -3.34850
C          1.04290        3.05470       -4.42560
C          1.17530        1.67870       -4.22150
C          1.47270        1.16450       -2.96470
C          0.97410        0.74170       -5.37480
N          1.50200        1.28020       -6.64660
C          1.70250        2.72890       -6.78430
H          1.49760        3.04100       -7.85250
C          3.16290        3.14550       -6.48370
O          3.53510        4.25540       -6.81470
N          3.97960        2.26320       -5.83360
C          5.33030        2.65610       -5.43680
C          0.80650        3.53290       -5.81880
C          1.17740        0.58160       -7.80470
O          1.35150        0.97610       -8.93400
O          0.72050       -0.66590       -7.47980
C          0.26480       -1.45960       -8.58190
C         -1.11870       -1.02010       -8.94990
C         -1.30070       -0.02790       -9.91440
C         -2.58620        0.40420      -10.23210
C         -3.68930       -0.15430       -9.58850
C         -3.50710       -1.14370       -8.62350
C         -2.22240       -1.57680       -8.30250
H         -0.44020       -0.64320       -0.57630
H          2.10960        2.31570        0.10450
H          1.56510        4.11770       -1.24300
H          1.10250        5.00270       -3.50320
H          1.62540        0.08890       -2.85440
H          1.48020       -0.24230       -5.19720
H         -0.11990        0.51430       -5.46830
H          3.64590        1.36550       -5.52790
H          5.41870        2.69210       -4.33770
H          5.58120        3.66210       -5.83110
H          6.06940        1.94040       -5.83620
H         -0.26170        3.41610       -6.09770
H          1.03060        4.61710       -5.93210
H          0.30430       -2.47720       -8.14480
H          0.98190       -1.39270       -9.42340
H         -0.43370        0.41830      -10.40980
H         -2.72810        1.18050      -10.98180
H         -4.69350        0.18220       -9.83910
H         -4.36840       -1.57690       -8.12010
H         -2.08210       -2.34480       -7.54430
