50

O         -0.94850        1.67160        0.10800
S          0.20690        0.52160        0.26870
O          0.56680        0.51300        1.66920
O         -0.25680       -0.64950       -0.45700
N          1.53210        1.16500       -0.53950
C          1.38010        1.63350       -1.87460
C          0.98400        0.75410       -2.89370
C          0.82430        1.24230       -4.18590
C          1.07530        2.58460       -4.50480
C          1.49300        3.45190       -3.48730
C          1.62440        2.97390       -2.17770
C          1.75950        4.91770       -3.73600
N          1.64580        5.30010       -5.14190
C          0.66540        4.59000       -5.97200
H          0.81110        4.95680       -6.99570
C         -0.76810        4.96710       -5.52270
O         -1.51950        4.16070       -4.99840
N         -1.06970        6.27550       -5.73490
C         -2.30850        6.87910       -5.29400
C          0.91420        3.09030       -5.91500
C          2.00110        6.55500       -5.54050
O          1.67460        7.06330       -6.60220
O          2.73690        7.19680       -4.60910
C          2.82720        8.62620       -4.77380
C          1.50270        9.27950       -4.46490
C          0.99870        9.25000       -3.15620
C         -0.25500        9.79090       -2.86570
C         -1.01860       10.37130       -3.88400
C         -0.52470       10.40260       -5.19110
C          0.72710        9.85290       -5.48060
H         -1.44630        1.48850       -0.70790
H          2.00960        1.80790        0.08970
H          0.79570       -0.29250       -2.65770
H          0.49780        0.56220       -4.97670
H          1.91260        3.66180       -1.37690
H          1.06110        5.52010       -3.12310
H          2.77070        5.17250       -3.39140
H         -0.38270        6.84940       -6.21900
H         -2.87240        6.12470       -4.73030
H         -2.92390        7.21170       -6.14730
H         -2.11120        7.74930       -4.64800
H          1.82730        2.87090       -6.49490
H          0.08030        2.56830       -6.40430
H          3.15880        8.86030       -5.79390
H          3.60240        8.92910       -4.05760
H          1.59400        8.79420       -2.36030
H         -0.63700        9.76380       -1.84250
H         -1.99880       10.79770       -3.65790
H         -1.12000       10.84990       -5.99060
H          1.10310        9.84950       -6.50560
