
     RDKit          3D

 50 52  0  0  0  0  0  0  0  0999 V2000
   -0.2771    0.4385   -0.2786 O   0  0  0  0  0  0  0  0  0  0  0  0
    1.3210    0.1368   -0.0817 S   0  0  0  0  0  0  0  0  0  0  0  0
    1.5566    0.1583    1.3448 O   0  0  0  0  0  0  0  0  0  0  0  0
    1.6477   -0.9897   -0.9406 O   0  0  0  0  0  0  0  0  0  0  0  0
    2.0699    1.5119   -0.6898 N   0  0  0  0  0  0  0  0  0  0  0  0
    1.7399    1.9740   -1.9946 C   0  0  0  0  0  0  0  0  0  0  0  0
    1.9645    1.1581   -3.1139 C   0  0  0  0  0  0  0  0  0  0  0  0
    1.6179    1.6285   -4.3759 C   0  0  0  0  0  0  0  0  0  0  0  0
    1.0748    2.9075   -4.5639 C   0  0  0  0  0  0  0  0  0  0  0  0
    0.8745    3.7260   -3.4442 C   0  0  0  0  0  0  0  0  0  0  0  0
    1.1919    3.2461   -2.1677 C   0  0  0  0  0  0  0  0  0  0  0  0
    0.2636    5.1013   -3.5578 C   0  0  0  0  0  0  0  0  0  0  0  0
    0.0726    5.5389   -4.9366 N   0  0  0  0  0  0  0  0  0  0  0  0
   -0.3105    4.5219   -5.9209 C   0  0  2  0  0  0  0  0  0  0  0  0
   -0.3356    5.0142   -6.8989 H   0  0  0  0  0  0  0  0  0  0  0  0
   -1.7320    3.9889   -5.6127 C   0  0  0  0  0  0  0  0  0  0  0  0
   -1.9340    2.8341   -5.2756 O   0  0  0  0  0  0  0  0  0  0  0  0
   -2.7048    4.9328   -5.7276 N   0  0  0  0  0  0  0  0  0  0  0  0
   -4.0958    4.6726   -5.4269 C   0  0  0  0  0  0  0  0  0  0  0  0
    0.7258    3.4050   -5.9432 C   0  0  0  0  0  0  0  0  0  0  0  0
   -0.1681    6.8699   -5.1154 C   0  0  0  0  0  0  0  0  0  0  0  0
   -0.0693    7.7129   -4.2471 O   0  0  0  0  0  0  0  0  0  0  0  0
   -0.5552    7.1472   -6.3919 O   0  0  0  0  0  0  0  0  0  0  0  0
   -1.1137    8.4577   -6.6195 C   0  0  0  0  0  0  0  0  0  0  0  0
   -2.5963    8.4301   -6.3452 C   0  0  0  0  0  0  0  0  0  0  0  0
   -3.0817    8.6017   -5.0384 C   0  0  0  0  0  0  0  0  0  0  0  0
   -4.4485    8.4884   -4.7742 C   0  0  0  0  0  0  0  0  0  0  0  0
   -5.3442    8.2002   -5.8088 C   0  0  0  0  0  0  0  0  0  0  0  0
   -4.8692    8.0245   -7.1113 C   0  0  0  0  0  0  0  0  0  0  0  0
   -3.5017    8.1380   -7.3758 C   0  0  0  0  0  0  0  0  0  0  0  0
   -0.5404    0.1103   -1.1559 H   0  0  0  0  0  0  0  0  0  0  0  0
    2.0622    2.2282    0.0343 H   0  0  0  0  0  0  0  0  0  0  0  0
    2.3955    0.1669   -2.9791 H   0  0  0  0  0  0  0  0  0  0  0  0
    1.7766    0.9867   -5.2464 H   0  0  0  0  0  0  0  0  0  0  0  0
    0.9998    3.8730   -1.2918 H   0  0  0  0  0  0  0  0  0  0  0  0
   -0.7069    5.1131   -3.0232 H   0  0  0  0  0  0  0  0  0  0  0  0
    0.8949    5.8469   -3.0556 H   0  0  0  0  0  0  0  0  0  0  0  0
   -2.4532    5.8516   -6.0757 H   0  0  0  0  0  0  0  0  0  0  0  0
   -4.4656    5.3565   -4.6463 H   0  0  0  0  0  0  0  0  0  0  0  0
   -4.1775    3.6363   -5.0749 H   0  0  0  0  0  0  0  0  0  0  0  0
   -4.7297    4.8001   -6.3198 H   0  0  0  0  0  0  0  0  0  0  0  0
    1.6334    3.7924   -6.4376 H   0  0  0  0  0  0  0  0  0  0  0  0
    0.3469    2.5738   -6.5538 H   0  0  0  0  0  0  0  0  0  0  0  0
   -0.9078    8.6758   -7.6752 H   0  0  0  0  0  0  0  0  0  0  0  0
   -0.5938    9.1823   -5.9803 H   0  0  0  0  0  0  0  0  0  0  0  0
   -2.3748    8.8082   -4.2327 H   0  0  0  0  0  0  0  0  0  0  0  0
   -4.8169    8.6265   -3.7549 H   0  0  0  0  0  0  0  0  0  0  0  0
   -6.4129    8.1121   -5.5996 H   0  0  0  0  0  0  0  0  0  0  0  0
   -5.5648    7.8007   -7.9235 H   0  0  0  0  0  0  0  0  0  0  0  0
   -3.1308    7.9988   -8.3951 H   0  0  0  0  0  0  0  0  0  0  0  0
  2  1  1  0
  1 31  1  0
  2  3  2  0
  2  4  2  0
  2  5  1  0
  5  6  1  0
  5 32  1  0
  6  7  2  0
  6 11  1  0
  7  8  1  0
  7 33  1  0
  8  9  2  0
  8 34  1  0
  9 10  1  0
  9 20  1  0
 10 11  2  0
 10 12  1  0
 11 35  1  0
 12 13  1  0
 12 36  1  0
 12 37  1  0
 13 14  1  0
 13 21  1  0
 14 15  1  6
 14 16  1  0
 14 20  1  0
 16 17  2  0
 16 18  1  0
 18 19  1  0
 18 38  1  0
 19 39  1  0
 19 40  1  0
 19 41  1  0
 20 42  1  0
 20 43  1  0
 21 22  2  0
 21 23  1  0
 23 24  1  0
 24 25  1  0
 24 44  1  0
 24 45  1  0
 25 26  2  0
 25 30  1  0
 26 27  1  0
 26 46  1  0
 27 28  2  0
 27 47  1  0
 28 29  1  0
 28 48  1  0
 29 30  2  0
 29 49  1  0
 30 50  1  0
M  END

