
     RDKit          3D

 50 52  0  0  0  0  0  0  0  0999 V2000
   -0.9485    1.6716    0.1080 O   0  0  0  0  0  0  0  0  0  0  0  0
    0.2069    0.5216    0.2687 S   0  0  0  0  0  0  0  0  0  0  0  0
    0.5668    0.5130    1.6692 O   0  0  0  0  0  0  0  0  0  0  0  0
   -0.2568   -0.6495   -0.4570 O   0  0  0  0  0  0  0  0  0  0  0  0
    1.5321    1.1650   -0.5395 N   0  0  0  0  0  0  0  0  0  0  0  0
    1.3801    1.6335   -1.8746 C   0  0  0  0  0  0  0  0  0  0  0  0
    0.9840    0.7541   -2.8937 C   0  0  0  0  0  0  0  0  0  0  0  0
    0.8243    1.2423   -4.1859 C   0  0  0  0  0  0  0  0  0  0  0  0
    1.0753    2.5846   -4.5048 C   0  0  0  0  0  0  0  0  0  0  0  0
    1.4930    3.4519   -3.4873 C   0  0  0  0  0  0  0  0  0  0  0  0
    1.6244    2.9739   -2.1777 C   0  0  0  0  0  0  0  0  0  0  0  0
    1.7595    4.9177   -3.7360 C   0  0  0  0  0  0  0  0  0  0  0  0
    1.6458    5.3001   -5.1419 N   0  0  0  0  0  0  0  0  0  0  0  0
    0.6654    4.5900   -5.9720 C   0  0  2  0  0  0  0  0  0  0  0  0
    0.8111    4.9568   -6.9957 H   0  0  0  0  0  0  0  0  0  0  0  0
   -0.7681    4.9671   -5.5227 C   0  0  0  0  0  0  0  0  0  0  0  0
   -1.5195    4.1607   -4.9984 O   0  0  0  0  0  0  0  0  0  0  0  0
   -1.0697    6.2755   -5.7349 N   0  0  0  0  0  0  0  0  0  0  0  0
   -2.3085    6.8791   -5.2940 C   0  0  0  0  0  0  0  0  0  0  0  0
    0.9142    3.0903   -5.9150 C   0  0  0  0  0  0  0  0  0  0  0  0
    2.0011    6.5550   -5.5405 C   0  0  0  0  0  0  0  0  0  0  0  0
    1.6746    7.0633   -6.6022 O   0  0  0  0  0  0  0  0  0  0  0  0
    2.7369    7.1968   -4.6091 O   0  0  0  0  0  0  0  0  0  0  0  0
    2.8272    8.6262   -4.7738 C   0  0  0  0  0  0  0  0  0  0  0  0
    1.5027    9.2795   -4.4649 C   0  0  0  0  0  0  0  0  0  0  0  0
    0.9987    9.2500   -3.1562 C   0  0  0  0  0  0  0  0  0  0  0  0
   -0.2550    9.7909   -2.8657 C   0  0  0  0  0  0  0  0  0  0  0  0
   -1.0186   10.3713   -3.8840 C   0  0  0  0  0  0  0  0  0  0  0  0
   -0.5247   10.4026   -5.1911 C   0  0  0  0  0  0  0  0  0  0  0  0
    0.7271    9.8529   -5.4806 C   0  0  0  0  0  0  0  0  0  0  0  0
   -1.4463    1.4885   -0.7079 H   0  0  0  0  0  0  0  0  0  0  0  0
    2.0096    1.8079    0.0897 H   0  0  0  0  0  0  0  0  0  0  0  0
    0.7957   -0.2925   -2.6577 H   0  0  0  0  0  0  0  0  0  0  0  0
    0.4978    0.5622   -4.9767 H   0  0  0  0  0  0  0  0  0  0  0  0
    1.9126    3.6618   -1.3769 H   0  0  0  0  0  0  0  0  0  0  0  0
    1.0611    5.5201   -3.1231 H   0  0  0  0  0  0  0  0  0  0  0  0
    2.7707    5.1725   -3.3914 H   0  0  0  0  0  0  0  0  0  0  0  0
   -0.3827    6.8494   -6.2190 H   0  0  0  0  0  0  0  0  0  0  0  0
   -2.8724    6.1247   -4.7303 H   0  0  0  0  0  0  0  0  0  0  0  0
   -2.9239    7.2117   -6.1473 H   0  0  0  0  0  0  0  0  0  0  0  0
   -2.1112    7.7493   -4.6480 H   0  0  0  0  0  0  0  0  0  0  0  0
    1.8273    2.8709   -6.4949 H   0  0  0  0  0  0  0  0  0  0  0  0
    0.0803    2.5683   -6.4043 H   0  0  0  0  0  0  0  0  0  0  0  0
    3.1588    8.8603   -5.7939 H   0  0  0  0  0  0  0  0  0  0  0  0
    3.6024    8.9291   -4.0576 H   0  0  0  0  0  0  0  0  0  0  0  0
    1.5940    8.7942   -2.3603 H   0  0  0  0  0  0  0  0  0  0  0  0
   -0.6370    9.7638   -1.8425 H   0  0  0  0  0  0  0  0  0  0  0  0
   -1.9988   10.7977   -3.6579 H   0  0  0  0  0  0  0  0  0  0  0  0
   -1.1200   10.8499   -5.9906 H   0  0  0  0  0  0  0  0  0  0  0  0
    1.1031    9.8495   -6.5056 H   0  0  0  0  0  0  0  0  0  0  0  0
  2  1  1  0
  1 31  1  0
  2  3  2  0
  2  4  2  0
  2  5  1  0
  5  6  1  0
  5 32  1  0
  6  7  2  0
  6 11  1  0
  7  8  1  0
  7 33  1  0
  8  9  2  0
  8 34  1  0
  9 10  1  0
  9 20  1  0
 10 11  2  0
 10 12  1  0
 11 35  1  0
 12 13  1  0
 12 36  1  0
 12 37  1  0
 13 14  1  0
 13 21  1  0
 14 15  1  6
 14 16  1  0
 14 20  1  0
 16 17  2  0
 16 18  1  0
 18 19  1  0
 18 38  1  0
 19 39  1  0
 19 40  1  0
 19 41  1  0
 20 42  1  0
 20 43  1  0
 21 22  2  0
 21 23  1  0
 23 24  1  0
 24 25  1  0
 24 44  1  0
 24 45  1  0
 25 26  2  0
 25 30  1  0
 26 27  1  0
 26 46  1  0
 27 28  2  0
 27 47  1  0
 28 29  1  0
 28 48  1  0
 29 30  2  0
 29 49  1  0
 30 50  1  0
M  END

