50

O         -0.33480        0.41490        0.02640
S          1.26310        0.07240        0.12750
O          1.59910        0.15150        1.53170
O          1.50080       -1.10050       -0.69720
N          2.00440        1.39840       -0.59630
C          1.55730        1.82850       -1.87650
C          1.62530        0.96150       -2.97700
C          1.13310        1.38040       -4.21080
C          0.61310        2.66600       -4.38230
C          0.57500        3.53970       -3.28730
C          1.02570        3.11280       -2.03580
C          0.05570        4.93960       -3.48410
N         -1.04420        5.00590       -4.45700
C         -1.27250        3.91660       -5.42070
H         -1.61970        4.39410       -6.34900
C         -2.39180        2.95020       -4.95270
O         -2.16980        1.77450       -4.70540
N         -3.61260        3.53430       -4.87080
C         -4.78950        2.82170       -4.42700
C          0.02910        3.15770       -5.67780
C         -1.80380        6.12620       -4.56750
O         -2.75580        6.24120       -5.33220
O         -1.39760        7.09770       -3.72910
C         -2.09050        8.36270       -3.80460
C         -1.45650        9.27890       -4.81870
C         -1.81540        9.20270       -6.17360
C         -1.20040       10.03300       -7.11270
C         -0.22200       10.94740       -6.71000
C          0.14080       11.02900       -5.36290
C         -0.47390       10.19720       -4.42410
H         -0.66420        0.08270       -0.82740
H          2.08300        2.13750        0.10010
H          2.03820       -0.03810       -2.84600
H          1.14670        0.69090       -5.05780
H          0.94940        3.77780       -1.17090
H         -0.28970        5.35640       -2.52900
H          0.87960        5.59430       -3.82620
H         -3.67710        4.51990       -5.12650
H         -5.21600        3.27450       -3.51570
H         -4.49820        1.78670       -4.20620
H         -5.57090        2.81150       -5.20540
H          0.73260        3.84070       -6.18620
H         -0.17130        2.31840       -6.35550
H         -2.01010        8.78160       -2.79330
H         -3.14470        8.17150       -4.04370
H         -2.56960        8.47650       -6.48210
H         -1.48760        9.96810       -8.16500
H          0.25610       11.59820       -7.44610
H          0.90290       11.74340       -5.04240
H         -0.18980       10.26250       -3.37000
