50

O         -0.27710        0.43850       -0.27860
S          1.32100        0.13680       -0.08170
O          1.55660        0.15830        1.34480
O          1.64770       -0.98970       -0.94060
N          2.06990        1.51190       -0.68980
C          1.73990        1.97400       -1.99460
C          1.96450        1.15810       -3.11390
C          1.61790        1.62850       -4.37590
C          1.07480        2.90750       -4.56390
C          0.87450        3.72600       -3.44420
C          1.19190        3.24610       -2.16770
C          0.26360        5.10130       -3.55780
N          0.07260        5.53890       -4.93660
C         -0.31050        4.52190       -5.92090
H         -0.33560        5.01420       -6.89890
C         -1.73200        3.98890       -5.61270
O         -1.93400        2.83410       -5.27560
N         -2.70480        4.93280       -5.72760
C         -4.09580        4.67260       -5.42690
C          0.72580        3.40500       -5.94320
C         -0.16810        6.86990       -5.11540
O         -0.06930        7.71290       -4.24710
O         -0.55520        7.14720       -6.39190
C         -1.11370        8.45770       -6.61950
C         -2.59630        8.43010       -6.34520
C         -3.08170        8.60170       -5.03840
C         -4.44850        8.48840       -4.77420
C         -5.34420        8.20020       -5.80880
C         -4.86920        8.02450       -7.11130
C         -3.50170        8.13800       -7.37580
H         -0.54040        0.11030       -1.15590
H          2.06220        2.22820        0.03430
H          2.39550        0.16690       -2.97910
H          1.77660        0.98670       -5.24640
H          0.99980        3.87300       -1.29180
H         -0.70690        5.11310       -3.02320
H          0.89490        5.84690       -3.05560
H         -2.45320        5.85160       -6.07570
H         -4.46560        5.35650       -4.64630
H         -4.17750        3.63630       -5.07490
H         -4.72970        4.80010       -6.31980
H          1.63340        3.79240       -6.43760
H          0.34690        2.57380       -6.55380
H         -0.90780        8.67580       -7.67520
H         -0.59380        9.18230       -5.98030
H         -2.37480        8.80820       -4.23270
H         -4.81690        8.62650       -3.75490
H         -6.41290        8.11210       -5.59960
H         -5.56480        7.80070       -7.92350
H         -3.13080        7.99880       -8.39510
