50
rmsd158.gzmat
O          0.00000        0.00000        0.00000
S          1.64530        0.00000        0.00000
O          2.11150        0.00000        1.35310
O          2.03110       -0.98580       -0.96840
N          1.93890        1.59230       -0.60070
C          1.45350        2.01270       -1.86250
C          1.59630        1.19380       -2.99320
C          1.11510        1.63150       -4.22020
C          0.51260        2.88440       -4.33800
C          0.40020        3.70880       -3.21710
C          0.86530        3.28130       -1.97670
C         -0.21270        5.07210       -3.34960
N         -1.24090        5.14250       -4.40170
C         -1.38260        4.08760       -5.40780
H         -1.72090        4.55570       -6.37830
C         -2.46400        3.06810       -4.95810
O         -2.20400        1.91890       -4.67060
N         -3.74530        3.55330       -4.98530
C         -4.86190        2.72420       -4.53590
C         -0.04760        3.36070       -5.63670
C         -2.04700        6.24640       -4.49190
O         -2.98050        6.35770       -5.26840
O         -1.68650        7.19620       -3.57990
C         -2.26890        8.49050       -3.79310
C         -1.44170        9.21110       -4.81220
C         -1.68270        9.00400       -6.17120
C         -0.88430        9.63520       -7.12170
C          0.15000       10.47770       -6.71630
C          0.38580       10.68910       -5.35900
C         -0.40780       10.05390       -4.40560
H         -0.44620       -0.48610       -0.71260
H          2.02750        2.33090        0.09730
H          2.08600        0.21830       -2.92620
H          1.20000        0.98540       -5.09410
H          0.75950        3.91870       -1.10360
H         -0.67870        5.39080       -2.38190
H          0.58960        5.82100       -3.58230
H         -3.93300        4.53380       -5.16850
H         -5.32990        3.14980       -3.63160
H         -4.52250        1.69750       -4.29260
H         -5.62200        2.65020       -5.33340
H          0.67460        4.04200       -6.13710
H         -0.21360        2.51320       -6.33760
H         -2.20450        8.92630       -2.77680
H         -3.33300        8.39570       -4.08620
H         -2.49170        8.33990       -6.48730
H         -1.06850        9.46910       -8.18140
H          0.77390       10.97060       -7.45960
H          1.19230       11.34770       -5.04350
H         -0.21500       10.21260       -3.34640
