rmsd168.gzmat
 OpenBabel08211713433D

 50 52  0  0  1  0  0  0  0  0999 V2000
    0.0000    0.0000    0.0000 O   0  0  0  0  0  0  0  0  0  0  0  0
    1.6490    0.0000    0.0000 S   0  0  0  0  0  0  0  0  0  0  0  0
    2.1087    0.0000    1.3526 O   0  0  0  0  0  0  0  0  0  0  0  0
    2.0183   -1.0131   -0.9503 O   0  0  0  0  0  0  0  0  0  0  0  0
    1.9489    1.5099   -0.7604 N   0  0  0  0  0  0  0  0  0  0  0  0
    1.8391    2.7813   -0.1593 C   0  0  0  0  0  0  0  0  0  0  0  0
    1.9443    2.9738    1.2267 C   0  0  0  0  0  0  0  0  0  0  0  0
    1.8736    4.2601    1.7428 C   0  0  0  0  0  0  0  0  0  0  0  0
    1.7076    5.3685    0.9063 C   0  0  0  0  0  0  0  0  0  0  0  0
    1.6147    5.1722   -0.4710 C   0  0  0  0  0  0  0  0  0  0  0  0
    1.6732    3.8880   -1.0080 C   0  0  0  0  0  0  0  0  0  0  0  0
    1.4991    6.3327   -1.4210 C   0  0  0  0  0  0  0  0  0  0  0  0
    1.1489    7.6083   -0.7741 N   0  0  0  0  0  0  0  0  0  0  0  0
    1.8365    7.8652    0.5046 C   0  0  2  0  0  0  0  0  0  0  0  0
    1.4343    8.8298    0.9426 H   0  0  0  0  0  0  0  0  0  0  0  0
    3.3453    8.0933    0.2774 C   0  0  0  0  0  0  0  0  0  0  0  0
    4.1555    7.8286    1.1424 O   0  0  0  0  0  0  0  0  0  0  0  0
    3.7108    8.6909   -0.9017 N   0  0  0  0  0  0  0  0  0  0  0  0
    5.1220    8.9379   -1.1909 C   0  0  0  0  0  0  0  0  0  0  0  0
    1.6216    6.7284    1.5171 C   0  0  0  0  0  0  0  0  0  0  0  0
   -0.1713    8.0607   -0.8317 C   0  0  0  0  0  0  0  0  0  0  0  0
   -0.6277    8.9357   -0.1302 O   0  0  0  0  0  0  0  0  0  0  0  0
   -0.8505    7.4681   -1.8537 O   0  0  0  0  0  0  0  0  0  0  0  0
   -2.0554    8.1310   -2.2581 C   0  0  0  0  0  0  0  0  0  0  0  0
   -1.7012    9.2745   -3.1571 C   0  0  0  0  0  0  0  0  0  0  0  0
   -1.6074    9.0776   -4.5352 C   0  0  0  0  0  0  0  0  0  0  0  0
   -1.2593   10.1406   -5.3663 C   0  0  0  0  0  0  0  0  0  0  0  0
   -0.9986   11.3968   -4.8208 C   0  0  0  0  0  0  0  0  0  0  0  0
   -1.0866   11.5914   -3.4432 C   0  0  0  0  0  0  0  0  0  0  0  0
   -1.4381   10.5317   -2.6106 C   0  0  0  0  0  0  0  0  0  0  0  0
   -0.4364   -0.8016   -0.3231 H   0  0  0  0  0  0  0  0  0  0  0  0
    1.9576    1.5096   -1.7807 H   0  0  0  0  0  0  0  0  0  0  0  0
    2.0981    2.1376    1.9139 H   0  0  0  0  0  0  0  0  0  0  0  0
    1.9601    4.4086    2.8204 H   0  0  0  0  0  0  0  0  0  0  0  0
    1.5935    3.7472   -2.0820 H   0  0  0  0  0  0  0  0  0  0  0  0
    2.4880    6.4815   -1.9300 H   0  0  0  0  0  0  0  0  0  0  0  0
    0.7704    6.1047   -2.2373 H   0  0  0  0  0  0  0  0  0  0  0  0
    3.0393    8.8773   -1.6284 H   0  0  0  0  0  0  0  0  0  0  0  0
    5.5423    8.1413   -1.8297 H   0  0  0  0  0  0  0  0  0  0  0  0
    5.7162    8.9610   -0.2544 H   0  0  0  0  0  0  0  0  0  0  0  0
    5.2425    9.9094   -1.6979 H   0  0  0  0  0  0  0  0  0  0  0  0
    0.6273    6.8505    2.0025 H   0  0  0  0  0  0  0  0  0  0  0  0
    2.3721    6.8326    2.3388 H   0  0  0  0  0  0  0  0  0  0  0  0
   -2.6371    8.4433   -1.3682 H   0  0  0  0  0  0  0  0  0  0  0  0
   -2.5885    7.3086   -2.7749 H   0  0  0  0  0  0  0  0  0  0  0  0
   -1.8005    8.0954   -4.9622 H   0  0  0  0  0  0  0  0  0  0  0  0
   -1.1893    9.9902   -6.4411 H   0  0  0  0  0  0  0  0  0  0  0  0
   -0.7258   12.2255   -5.4712 H   0  0  0  0  0  0  0  0  0  0  0  0
   -0.8795   12.5710   -3.0165 H   0  0  0  0  0  0  0  0  0  0  0  0
   -1.4972   10.6800   -1.5288 H   0  0  0  0  0  0  0  0  0  0  0  0
  2  1  1  0  0  0  0
  2  3  1  0  0  0  0
  4  2  1  0  0  0  0
  5  6  1  0  0  0  0
  5  2  1  0  0  0  0
  6  7  2  0  0  0  0
  7  8  1  0  0  0  0
  7 33  1  0  0  0  0
  8 34  1  0  0  0  0
  9 20  1  0  0  0  0
  9  8  2  0  0  0  0
 10  9  1  0  0  0  0
 11 10  2  0  0  0  0
 11  6  1  0  0  0  0
 12 13  1  0  0  0  0
 12 10  1  0  0  0  0
 13 14  1  0  0  0  0
 14 15  1  1  0  0  0
 14 20  1  0  0  0  0
 16 14  1  0  0  0  0
 16 17  2  0  0  0  0
 18 16  1  0  0  0  0
 19 18  1  0  0  0  0
 19 40  1  0  0  0  0
 20 42  1  0  0  0  0
 20 43  1  0  0  0  0
 21 13  1  0  0  0  0
 21 22  2  0  0  0  0
 23 21  1  0  0  0  0
 24 23  1  0  0  0  0
 24 44  1  0  0  0  0
 25 30  1  0  0  0  0
 25 24  1  0  0  0  0
 26 25  2  0  0  0  0
 27 28  2  0  0  0  0
 27 26  1  0  0  0  0
 28 29  1  0  0  0  0
 29 49  1  0  0  0  0
 29 30  2  0  0  0  0
 30 50  1  0  0  0  0
 31  1  1  0  0  0  0
 32  5  1  0  0  0  0
 35 11  1  0  0  0  0
 36 12  1  0  0  0  0
 37 12  1  0  0  0  0
 38 18  1  0  0  0  0
 39 19  1  0  0  0  0
 41 19  1  0  0  0  0
 45 24  1  0  0  0  0
 46 26  1  0  0  0  0
 47 27  1  0  0  0  0
 48 28  1  0  0  0  0
M  RAD  2   3   2   4   2
M  END
$$$$
