50

O          0.25240        0.21790        0.15650
S          1.78650       -0.07620       -0.34370
O          2.58130       -0.27520        0.85790
O          1.68420       -1.04440       -1.41280
N          2.25520        1.35680       -1.07390
C          2.14060        2.59500       -0.38400
C          2.80070        2.79610        0.83790
C          2.67490        4.02210        1.48220
C          1.92640        5.07370        0.93340
C          1.28110        4.86990       -0.29300
C          1.38230        3.62950       -0.93490
C          0.48710        5.96020       -0.97190
N          0.28460        7.13500       -0.12780
C          1.39520        7.53690        0.74400
H          1.02560        8.38040        1.34060
C          2.57730        8.03920       -0.12100
O          3.63840        7.44020       -0.18250
N          2.28970        9.17040       -0.81900
C          3.20460        9.76010       -1.77210
C          1.79420        6.38840        1.65920
C         -0.59160        8.11090       -0.50360
O         -0.60260        9.24390       -0.04760
O         -1.43860        7.69520       -1.46840
C         -2.12660        8.74510       -2.17740
C         -1.17010        9.49610       -3.07040
C         -0.59430        8.85090       -4.17490
C          0.34210        9.50960       -4.97340
C          0.71180       10.82550       -4.67570
C          0.14500       11.47460       -3.57550
C         -0.78640       10.81010       -2.77310
H          0.29540        0.49580        1.08730
H          1.91600        1.36050       -2.03380
H          3.40520        1.99520        1.26170
H          3.19410        4.18080        2.43090
H          0.86000        3.46710       -1.88260
H          1.00430        6.25290       -1.90710
H         -0.49670        5.57470       -1.26780
H          1.39000        9.61610       -0.65400
H          2.72340        9.87450       -2.75630
H          4.07390        9.09620       -1.86390
H          3.55490       10.75200       -1.43880
H          1.02790        6.29490        2.44790
H          2.74430        6.63740        2.15210
H         -2.61350        9.41790       -1.45940
H         -2.89140        8.21630       -2.76140
H         -0.88100        7.82150       -4.40640
H          0.78280        8.99810       -5.83240
H          1.44270       11.34360       -5.30120
H          0.43500       12.50040       -3.33590
H         -1.20960       11.30390       -1.89620
