50
rmsd168.gzmat
O          0.00000        0.00000        0.00000
S          1.64900        0.00000        0.00000
O          2.10870        0.00000        1.35260
O          2.01830       -1.01310       -0.95030
N          1.94890        1.50990       -0.76040
C          1.83910        2.78130       -0.15930
C          1.94430        2.97380        1.22670
C          1.87360        4.26010        1.74280
C          1.70760        5.36850        0.90630
C          1.61470        5.17220       -0.47100
C          1.67320        3.88800       -1.00800
C          1.49910        6.33270       -1.42100
N          1.14890        7.60830       -0.77410
C          1.83650        7.86520        0.50460
H          1.43430        8.82980        0.94260
C          3.34530        8.09330        0.27740
O          4.15550        7.82860        1.14240
N          3.71080        8.69090       -0.90170
C          5.12200        8.93790       -1.19090
C          1.62160        6.72840        1.51710
C         -0.17130        8.06070       -0.83170
O         -0.62770        8.93570       -0.13020
O         -0.85050        7.46810       -1.85370
C         -2.05540        8.13100       -2.25810
C         -1.70120        9.27450       -3.15710
C         -1.60740        9.07760       -4.53520
C         -1.25930       10.14060       -5.36630
C         -0.99860       11.39680       -4.82080
C         -1.08660       11.59140       -3.44320
C         -1.43810       10.53170       -2.61060
H         -0.43640       -0.80160       -0.32310
H          1.95760        1.50960       -1.78070
H          2.09810        2.13760        1.91390
H          1.96010        4.40860        2.82040
H          1.59350        3.74720       -2.08200
H          2.48800        6.48150       -1.93000
H          0.77040        6.10470       -2.23730
H          3.03930        8.87730       -1.62840
H          5.54230        8.14130       -1.82970
H          5.71620        8.96100       -0.25440
H          5.24250        9.90940       -1.69790
H          0.62730        6.85050        2.00250
H          2.37210        6.83260        2.33880
H         -2.63710        8.44330       -1.36820
H         -2.58850        7.30860       -2.77490
H         -1.80050        8.09540       -4.96220
H         -1.18930        9.99020       -6.44110
H         -0.72580       12.22550       -5.47120
H         -0.87950       12.57100       -3.01650
H         -1.49720       10.68000       -1.52880
