rmsd202.gzmat
 OpenBabel08211713433D

 50 52  0  0  1  0  0  0  0  0999 V2000
    0.0000    0.0000    0.0000 O   0  0  0  0  0  0  0  0  0  0  0  0
    1.6473    0.0000    0.0000 S   0  0  0  0  0  0  0  0  0  0  0  0
    2.0977    0.0000    1.3554 O   0  0  0  0  0  0  0  0  0  0  0  0
    2.0278   -1.0030   -0.9568 O   0  0  0  0  0  0  0  0  0  0  0  0
    1.9608    1.5115   -0.7556 N   0  0  0  0  0  0  0  0  0  0  0  0
    1.6381    2.7757   -0.2218 C   0  0  0  0  0  0  0  0  0  0  0  0
    1.4666    2.9888    1.1548 C   0  0  0  0  0  0  0  0  0  0  0  0
    1.1577    4.2617    1.6136 C   0  0  0  0  0  0  0  0  0  0  0  0
    1.0267    5.3385    0.7306 C   0  0  0  0  0  0  0  0  0  0  0  0
    1.2326    5.1263   -0.6321 C   0  0  0  0  0  0  0  0  0  0  0  0
    1.5306    3.8543   -1.1148 C   0  0  0  0  0  0  0  0  0  0  0  0
    1.1756    6.2660   -1.6094 C   0  0  0  0  0  0  0  0  0  0  0  0
    0.4524    7.4450   -1.0987 N   0  0  0  0  0  0  0  0  0  0  0  0
    0.7997    7.8313    0.2758 C   0  0  2  0  0  0  0  0  0  0  0  0
    0.1361    8.6863    0.6015 H   0  0  0  0  0  0  0  0  0  0  0  0
    2.2435    8.3863    0.3109 C   0  0  0  0  0  0  0  0  0  0  0  0
    2.9549    8.2433    1.2837 O   0  0  0  0  0  0  0  0  0  0  0  0
    2.6256    9.1348   -0.7735 N   0  0  0  0  0  0  0  0  0  0  0  0
    3.9643    9.7163   -0.8413 C   0  0  0  0  0  0  0  0  0  0  0  0
    0.6465    6.6753    1.2786 C   0  0  0  0  0  0  0  0  0  0  0  0
   -0.8642    7.5845   -1.5393 C   0  0  0  0  0  0  0  0  0  0  0  0
   -1.2884    7.1628   -2.5880 O   0  0  0  0  0  0  0  0  0  0  0  0
   -1.5904    8.3582   -0.6745 O   0  0  0  0  0  0  0  0  0  0  0  0
   -2.6700    9.0824   -1.2716 C   0  0  0  0  0  0  0  0  0  0  0  0
   -2.1214   10.3246   -1.9037 C   0  0  0  0  0  0  0  0  0  0  0  0
   -2.5338   10.7140   -3.1772 C   0  0  0  0  0  0  0  0  0  0  0  0
   -2.0045   11.8675   -3.7534 C   0  0  0  0  0  0  0  0  0  0  0  0
   -1.0581   12.6229   -3.0635 C   0  0  0  0  0  0  0  0  0  0  0  0
   -0.6395   12.2268   -1.7939 C   0  0  0  0  0  0  0  0  0  0  0  0
   -1.1754   11.0819   -1.2105 C   0  0  0  0  0  0  0  0  0  0  0  0
   -0.4392   -0.7331   -0.4549 H   0  0  0  0  0  0  0  0  0  0  0  0
    2.1393    1.4914   -1.7601 H   0  0  0  0  0  0  0  0  0  0  0  0
    1.5851    2.1802    1.8796 H   0  0  0  0  0  0  0  0  0  0  0  0
    1.0220    4.4249    2.6836 H   0  0  0  0  0  0  0  0  0  0  0  0
    1.6751    3.7013   -2.1805 H   0  0  0  0  0  0  0  0  0  0  0  0
    2.2199    6.5941   -1.8510 H   0  0  0  0  0  0  0  0  0  0  0  0
    0.7162    5.9456   -2.5793 H   0  0  0  0  0  0  0  0  0  0  0  0
    2.0423    9.2018   -1.5928 H   0  0  0  0  0  0  0  0  0  0  0  0
    4.4862    9.6216    0.1323 H   0  0  0  0  0  0  0  0  0  0  0  0
    3.9000   10.7896   -1.0887 H   0  0  0  0  0  0  0  0  0  0  0  0
    4.5791    9.2083   -1.6041 H   0  0  0  0  0  0  0  0  0  0  0  0
   -0.4088    6.6359    1.6310 H   0  0  0  0  0  0  0  0  0  0  0  0
    1.2586    6.9035    2.1860 H   0  0  0  0  0  0  0  0  0  0  0  0
   -3.3097    9.2998   -0.3920 H   0  0  0  0  0  0  0  0  0  0  0  0
   -3.2222    8.4325   -1.9776 H   0  0  0  0  0  0  0  0  0  0  0  0
   -3.2587   10.1161   -3.7275 H   0  0  0  0  0  0  0  0  0  0  0  0
   -2.3277   12.1755   -4.7458 H   0  0  0  0  0  0  0  0  0  0  0  0
   -0.6455   13.5225   -3.5156 H   0  0  0  0  0  0  0  0  0  0  0  0
    0.1037   12.8133   -1.2578 H   0  0  0  0  0  0  0  0  0  0  0  0
   -0.8534   10.7717   -0.2168 H   0  0  0  0  0  0  0  0  0  0  0  0
  2  1  1  0  0  0  0
  2  3  1  0  0  0  0
  4  2  1  0  0  0  0
  5  6  1  0  0  0  0
  5  2  1  0  0  0  0
  6  7  2  0  0  0  0
  7  8  1  0  0  0  0
  7 33  1  0  0  0  0
  8 34  1  0  0  0  0
  9 20  1  0  0  0  0
  9  8  2  0  0  0  0
 10  9  1  0  0  0  0
 11 10  2  0  0  0  0
 11  6  1  0  0  0  0
 12 13  1  0  0  0  0
 12 10  1  0  0  0  0
 13 14  1  0  0  0  0
 14 16  1  0  0  0  0
 14 15  1  1  0  0  0
 14 20  1  0  0  0  0
 16 17  2  0  0  0  0
 18 16  1  0  0  0  0
 19 18  1  0  0  0  0
 19 39  1  0  0  0  0
 20 42  1  0  0  0  0
 20 43  1  0  0  0  0
 21 13  1  0  0  0  0
 21 23  1  0  0  0  0
 22 21  2  0  0  0  0
 24 23  1  0  0  0  0
 24 44  1  0  0  0  0
 25 24  1  0  0  0  0
 25 30  2  0  0  0  0
 26 25  1  0  0  0  0
 27 26  2  0  0  0  0
 27 28  1  0  0  0  0
 28 29  2  0  0  0  0
 29 49  1  0  0  0  0
 29 30  1  0  0  0  0
 30 50  1  0  0  0  0
 31  1  1  0  0  0  0
 32  5  1  0  0  0  0
 35 11  1  0  0  0  0
 36 12  1  0  0  0  0
 37 12  1  0  0  0  0
 38 18  1  0  0  0  0
 40 19  1  0  0  0  0
 41 19  1  0  0  0  0
 45 24  1  0  0  0  0
 46 26  1  0  0  0  0
 47 27  1  0  0  0  0
 48 28  1  0  0  0  0
M  RAD  2   3   2   4   2
M  END
$$$$
