
     RDKit          3D

 50 52  0  0  0  0  0  0  0  0999 V2000
    0.4983    0.0915   -0.0779 O   0  0  0  0  0  0  0  0  0  0  0  0
    2.0628    0.1391   -0.5649 S   0  0  0  0  0  0  0  0  0  0  0  0
    2.8737    0.0287    0.6374 O   0  0  0  0  0  0  0  0  0  0  0  0
    2.1644   -0.7617   -1.6913 O   0  0  0  0  0  0  0  0  0  0  0  0
    2.2407    1.6783   -1.2020 N   0  0  0  0  0  0  0  0  0  0  0  0
    1.8810    2.8296   -0.4510 C   0  0  0  0  0  0  0  0  0  0  0  0
    2.4438    3.0672    0.8129 C   0  0  0  0  0  0  0  0  0  0  0  0
    2.0773    4.2112    1.5137 C   0  0  0  0  0  0  0  0  0  0  0  0
    1.1763    5.1478    0.9853 C   0  0  0  0  0  0  0  0  0  0  0  0
    0.6304    4.9114   -0.2848 C   0  0  0  0  0  0  0  0  0  0  0  0
    0.9774    3.7498   -0.9860 C   0  0  0  0  0  0  0  0  0  0  0  0
   -0.3241    5.8829   -0.9390 C   0  0  0  0  0  0  0  0  0  0  0  0
   -0.7178    6.9770   -0.0619 N   0  0  0  0  0  0  0  0  0  0  0  0
    0.2872    7.4981    0.8599 C   0  0  2  0  0  0  0  0  0  0  0  0
   -0.2002    8.2679    1.4695 H   0  0  0  0  0  0  0  0  0  0  0  0
    1.4566    8.2043    0.1312 C   0  0  0  0  0  0  0  0  0  0  0  0
    2.5920    8.1644    0.5746 O   0  0  0  0  0  0  0  0  0  0  0  0
    1.1121    8.8866   -0.9939 N   0  0  0  0  0  0  0  0  0  0  0  0
    2.0696    9.6873   -1.7269 C   0  0  0  0  0  0  0  0  0  0  0  0
    0.7954    6.3811    1.7663 C   0  0  0  0  0  0  0  0  0  0  0  0
   -1.9141    7.5841   -0.3112 C   0  0  0  0  0  0  0  0  0  0  0  0
   -2.6841    7.2506   -1.1902 O   0  0  0  0  0  0  0  0  0  0  0  0
   -2.1344    8.6337    0.5235 O   0  0  0  0  0  0  0  0  0  0  0  0
   -2.9859    9.6695   -0.0045 C   0  0  0  0  0  0  0  0  0  0  0  0
   -2.1956   10.5134   -0.9734 C   0  0  0  0  0  0  0  0  0  0  0  0
   -2.1449   10.1771   -2.3359 C   0  0  0  0  0  0  0  0  0  0  0  0
   -1.3271   10.8982   -3.2111 C   0  0  0  0  0  0  0  0  0  0  0  0
   -0.5545   11.9616   -2.7358 C   0  0  0  0  0  0  0  0  0  0  0  0
   -0.5988   12.3019   -1.3802 C   0  0  0  0  0  0  0  0  0  0  0  0
   -1.4113   11.5780   -0.5054 C   0  0  0  0  0  0  0  0  0  0  0  0
    0.4779    0.3071    0.8701 H   0  0  0  0  0  0  0  0  0  0  0  0
    1.9203    1.6713   -2.1683 H   0  0  0  0  0  0  0  0  0  0  0  0
    3.1640    2.3610    1.2239 H   0  0  0  0  0  0  0  0  0  0  0  0
    2.5219    4.4005    2.4942 H   0  0  0  0  0  0  0  0  0  0  0  0
    0.5327    3.5593   -1.9674 H   0  0  0  0  0  0  0  0  0  0  0  0
    0.1452    6.2891   -1.8561 H   0  0  0  0  0  0  0  0  0  0  0  0
   -1.2397    5.3704   -1.2638 H   0  0  0  0  0  0  0  0  0  0  0  0
    0.1332    8.9703   -1.2417 H   0  0  0  0  0  0  0  0  0  0  0  0
    3.0763    9.3149   -1.4976 H   0  0  0  0  0  0  0  0  0  0  0  0
    2.0162   10.7522   -1.4435 H   0  0  0  0  0  0  0  0  0  0  0  0
    1.8822    9.6089   -2.8079 H   0  0  0  0  0  0  0  0  0  0  0  0
    0.0005    6.1345    2.4907 H   0  0  0  0  0  0  0  0  0  0  0  0
    1.6624    6.7511    2.3291 H   0  0  0  0  0  0  0  0  0  0  0  0
   -3.3019   10.2503    0.8711 H   0  0  0  0  0  0  0  0  0  0  0  0
   -3.8615    9.2104   -0.4818 H   0  0  0  0  0  0  0  0  0  0  0  0
   -2.7383    9.3361   -2.6991 H   0  0  0  0  0  0  0  0  0  0  0  0
   -1.2966   10.6299   -4.2699 H   0  0  0  0  0  0  0  0  0  0  0  0
    0.0831   12.5251   -3.4210 H   0  0  0  0  0  0  0  0  0  0  0  0
    0.0038   13.1317   -1.0037 H   0  0  0  0  0  0  0  0  0  0  0  0
   -1.4371   11.8390    0.5560 H   0  0  0  0  0  0  0  0  0  0  0  0
  2  1  1  0
  1 31  1  0
  2  3  2  0
  2  4  2  0
  2  5  1  0
  5  6  1  0
  5 32  1  0
  6  7  2  0
  6 11  1  0
  7  8  1  0
  7 33  1  0
  8  9  2  0
  8 34  1  0
  9 10  1  0
  9 20  1  0
 10 11  2  0
 10 12  1  0
 11 35  1  0
 12 13  1  0
 12 36  1  0
 12 37  1  0
 13 14  1  0
 13 21  1  0
 14 15  1  1
 14 16  1  0
 14 20  1  0
 16 17  2  0
 16 18  1  0
 18 19  1  0
 18 38  1  0
 19 39  1  0
 19 40  1  0
 19 41  1  0
 20 42  1  0
 20 43  1  0
 21 22  2  0
 21 23  1  0
 23 24  1  0
 24 25  1  0
 24 44  1  0
 24 45  1  0
 25 26  2  0
 25 30  1  0
 26 27  1  0
 26 46  1  0
 27 28  2  0
 27 47  1  0
 28 29  1  0
 28 48  1  0
 29 30  2  0
 29 49  1  0
 30 50  1  0
M  END

