50

O          1.09030        0.87100       -1.33690
S          2.49330        0.52670       -0.56370
O          2.13450        0.04540        0.76150
O          3.29310       -0.22280       -1.50600
N          3.24680        2.01680       -0.40640
C          2.56640        3.09670        0.22230
C          2.30760        4.27680       -0.48940
C          1.65710        5.33210        0.14140
C          1.23150        5.23750        1.47450
C          1.48940        4.05040        2.17860
C          2.16100        2.99250        1.55480
C          1.05370        3.86380        3.61800
N          0.50560        5.07860        4.20950
C         -0.30640        5.92240        3.33820
H         -0.60350        6.79200        3.94090
C         -1.61030        5.22780        2.89750
O         -2.13640        5.48300        1.82750
N         -2.12820        4.36390        3.81180
C         -3.39250        3.68750        3.62340
C          0.51310        6.38770        2.13800
C          0.94470        5.60670        5.39830
O          0.61350        6.69540        5.82590
O          1.76440        4.75640        6.05160
C          2.41640        5.26990        7.23320
C          3.68460        6.00380        6.88290
C          3.65800        7.37480        6.58350
C          4.83120        8.03900        6.21920
C          6.04130        7.34240        6.14900
C          6.07590        5.97680        6.44510
C          4.90240        5.31310        6.80920
H          0.40760        1.03200       -0.66320
H          3.70190        2.24660       -1.28800
H          2.60670        4.35760       -1.53740
H          1.45170        6.24850       -0.41760
H          2.37240        2.07370        2.10290
H          0.30260        3.05310        3.65790
H          1.90370        3.53760        4.22720
H         -1.62040        4.24550        4.68030
H         -3.74840        3.92410        2.61210
H         -4.14890        4.02660        4.35150
H         -3.28090        2.59500        3.71840
H          1.24310        7.13730        2.48830
H         -0.15510        6.87940        1.41850
H          2.63090        4.37850        7.83680
H          1.71250        5.91990        7.76900
H          2.70680        7.90850        6.62410
H          4.80100        9.10690        5.98960
H          6.95860        7.86430        5.86550
H          7.01950        5.42820        6.39400
H          4.93060        4.24470        7.04120
