rmsd83.gzmat
 OpenBabel08211713433D

 50 52  0  0  1  0  0  0  0  0999 V2000
    0.0000    0.0000    0.0000 O   0  0  0  0  0  0  0  0  0  0  0  0
    1.6457    0.0000    0.0000 S   0  0  0  0  0  0  0  0  0  0  0  0
    2.1121    0.0000    1.3531 O   0  0  0  0  0  0  0  0  0  0  0  0
    2.0215   -0.9961   -0.9623 O   0  0  0  0  0  0  0  0  0  0  0  0
    1.9501    1.5881   -0.5931 N   0  0  0  0  0  0  0  0  0  0  0  0
    1.6023    2.0335   -1.8876 C   0  0  0  0  0  0  0  0  0  0  0  0
    1.6609    1.1805   -3.0010 C   0  0  0  0  0  0  0  0  0  0  0  0
    1.3477    1.6789   -4.2576 C   0  0  0  0  0  0  0  0  0  0  0  0
    0.9943    3.0204   -4.4352 C   0  0  0  0  0  0  0  0  0  0  0  0
    0.9497    3.8662   -3.3289 C   0  0  0  0  0  0  0  0  0  0  0  0
    1.2476    3.3801   -2.0556 C   0  0  0  0  0  0  0  0  0  0  0  0
    0.5692    5.3145   -3.4434 C   0  0  0  0  0  0  0  0  0  0  0  0
    0.3412    5.7572   -4.8286 N   0  0  0  0  0  0  0  0  0  0  0  0
   -0.1686    4.7961   -5.8097 C   0  0  2  0  0  0  0  0  0  0  0  0
   -0.0975    5.2740   -6.8336 H   0  0  0  0  0  0  0  0  0  0  0  0
   -1.6519    4.4405   -5.5415 C   0  0  0  0  0  0  0  0  0  0  0  0
   -2.0106    3.3677   -5.1072 O   0  0  0  0  0  0  0  0  0  0  0  0
   -2.5351    5.4315   -5.8895 N   0  0  0  0  0  0  0  0  0  0  0  0
   -3.9697    5.2614   -5.6689 C   0  0  0  0  0  0  0  0  0  0  0  0
    0.6982    3.5280   -5.8074 C   0  0  0  0  0  0  0  0  0  0  0  0
    0.0679    7.0931   -5.0543 C   0  0  0  0  0  0  0  0  0  0  0  0
   -0.4519    7.5372   -6.0583 O   0  0  0  0  0  0  0  0  0  0  0  0
    0.4976    7.8590   -4.0073 O   0  0  0  0  0  0  0  0  0  0  0  0
    0.7369    9.2333   -4.3250 C   0  0  0  0  0  0  0  0  0  0  0  0
    2.0926    9.3899   -4.9420 C   0  0  0  0  0  0  0  0  0  0  0  0
    3.0806    8.4294   -4.7256 C   0  0  0  0  0  0  0  0  0  0  0  0
    4.3373    8.5825   -5.3069 C   0  0  0  0  0  0  0  0  0  0  0  0
    4.6101    9.6980   -6.0964 C   0  0  0  0  0  0  0  0  0  0  0  0
    3.6238   10.6611   -6.3058 C   0  0  0  0  0  0  0  0  0  0  0  0
    2.3638   10.5078   -5.7320 C   0  0  0  0  0  0  0  0  0  0  0  0
   -0.4415   -0.6225   -0.5990 H   0  0  0  0  0  0  0  0  0  0  0  0
    2.0464    2.3224    0.1091 H   0  0  0  0  0  0  0  0  0  0  0  0
    1.9671    0.1358   -2.9047 H   0  0  0  0  0  0  0  0  0  0  0  0
    1.3790    1.0109   -5.1188 H   0  0  0  0  0  0  0  0  0  0  0  0
    1.1989    4.0446   -1.1973 H   0  0  0  0  0  0  0  0  0  0  0  0
   -0.3456    5.5046   -2.8261 H   0  0  0  0  0  0  0  0  0  0  0  0
    1.3894    5.9514   -3.0156 H   0  0  0  0  0  0  0  0  0  0  0  0
   -2.2145    6.3408   -6.2028 H   0  0  0  0  0  0  0  0  0  0  0  0
   -4.3243    5.9155   -4.8536 H   0  0  0  0  0  0  0  0  0  0  0  0
   -4.2067    4.2147   -5.3916 H   0  0  0  0  0  0  0  0  0  0  0  0
   -4.5269    5.5023   -6.5909 H   0  0  0  0  0  0  0  0  0  0  0  0
    1.6595    3.7420   -6.3286 H   0  0  0  0  0  0  0  0  0  0  0  0
    0.1827    2.7456   -6.4094 H   0  0  0  0  0  0  0  0  0  0  0  0
    0.6786    9.7014   -3.3199 H   0  0  0  0  0  0  0  0  0  0  0  0
   -0.0772    9.6236   -4.9687 H   0  0  0  0  0  0  0  0  0  0  0  0
    2.8684    7.5553   -4.1097 H   0  0  0  0  0  0  0  0  0  0  0  0
    5.1055    7.8291   -5.1431 H   0  0  0  0  0  0  0  0  0  0  0  0
    5.5914    9.8165   -6.5506 H   0  0  0  0  0  0  0  0  0  0  0  0
    3.8366   11.5319   -6.9231 H   0  0  0  0  0  0  0  0  0  0  0  0
    1.5929   11.2552   -5.9089 H   0  0  0  0  0  0  0  0  0  0  0  0
  1  2  1  0  0  0  0
  2  3  1  0  0  0  0
  4  2  1  0  0  0  0
  5  2  1  0  0  0  0
  5 32  1  0  0  0  0
  6  5  1  0  0  0  0
  7 33  1  0  0  0  0
  7  6  2  0  0  0  0
  8  7  1  0  0  0  0
  9  8  2  0  0  0  0
  9 10  1  0  0  0  0
 10 11  2  0  0  0  0
 11  6  1  0  0  0  0
 11 35  1  0  0  0  0
 12 10  1  0  0  0  0
 12 37  1  0  0  0  0
 12 36  1  0  0  0  0
 13 12  1  0  0  0  0
 14 15  1  6  0  0  0
 14 20  1  0  0  0  0
 14 16  1  0  0  0  0
 14 13  1  0  0  0  0
 16 17  2  0  0  0  0
 18 19  1  0  0  0  0
 18 16  1  0  0  0  0
 19 40  1  0  0  0  0
 19 39  1  0  0  0  0
 20  9  1  0  0  0  0
 21 13  1  0  0  0  0
 21 23  1  0  0  0  0
 22 21  2  0  0  0  0
 24 23  1  0  0  0  0
 24 44  1  0  0  0  0
 25 26  1  0  0  0  0
 25 24  1  0  0  0  0
 26 46  1  0  0  0  0
 27 47  1  0  0  0  0
 27 26  2  0  0  0  0
 28 27  1  0  0  0  0
 29 28  2  0  0  0  0
 29 30  1  0  0  0  0
 30 25  2  0  0  0  0
 31  1  1  0  0  0  0
 34  8  1  0  0  0  0
 38 18  1  0  0  0  0
 41 19  1  0  0  0  0
 42 20  1  0  0  0  0
 43 20  1  0  0  0  0
 45 24  1  0  0  0  0
 48 28  1  0  0  0  0
 49 29  1  0  0  0  0
 50 30  1  0  0  0  0
M  RAD  2   3   2   4   2
M  END
$$$$
