
     RDKit          3D

 50 52  0  0  0  0  0  0  0  0999 V2000
   -0.7815    0.4432    0.0569 O   0  0  0  0  0  0  0  0  0  0  0  0
    0.7720    0.2051    0.5203 S   0  0  0  0  0  0  0  0  0  0  0  0
    0.7830    0.3060    1.9626 O   0  0  0  0  0  0  0  0  0  0  0  0
    1.2528   -0.9543   -0.2144 O   0  0  0  0  0  0  0  0  0  0  0  0
    1.5737    1.5688   -0.0335 N   0  0  0  0  0  0  0  0  0  0  0  0
    1.4697    1.9774   -1.3908 C   0  0  0  0  0  0  0  0  0  0  0  0
    1.8026    1.0985   -2.4334 C   0  0  0  0  0  0  0  0  0  0  0  0
    1.7046    1.5375   -3.7498 C   0  0  0  0  0  0  0  0  0  0  0  0
    1.3025    2.8428   -4.0692 C   0  0  0  0  0  0  0  0  0  0  0  0
    0.9928    3.7216   -3.0188 C   0  0  0  0  0  0  0  0  0  0  0  0
    1.0635    3.2793   -1.6933 C   0  0  0  0  0  0  0  0  0  0  0  0
    0.5657    5.1450   -3.3139 C   0  0  0  0  0  0  0  0  0  0  0  0
    1.0400    5.5805   -4.6255 N   0  0  0  0  0  0  0  0  0  0  0  0
    0.6618    4.6760   -5.7185 C   0  0  2  0  0  0  0  0  0  0  0  0
    1.0623    5.1011   -6.6468 H   0  0  0  0  0  0  0  0  0  0  0  0
   -0.8667    4.6409   -5.9157 C   0  0  0  0  0  0  0  0  0  0  0  0
   -1.4365    3.6396   -6.3144 O   0  0  0  0  0  0  0  0  0  0  0  0
   -1.4881    5.8258   -5.6735 N   0  0  0  0  0  0  0  0  0  0  0  0
   -2.9040    6.0294   -5.8851 C   0  0  0  0  0  0  0  0  0  0  0  0
    1.2606    3.2821   -5.5147 C   0  0  0  0  0  0  0  0  0  0  0  0
    2.2624    6.2197   -4.6407 C   0  0  0  0  0  0  0  0  0  0  0  0
    2.8217    6.6523   -3.6561 O   0  0  0  0  0  0  0  0  0  0  0  0
    2.7690    6.3098   -5.8933 O   0  0  0  0  0  0  0  0  0  0  0  0
    4.2127    6.2827   -5.9728 C   0  0  0  0  0  0  0  0  0  0  0  0
    4.6750    4.8548   -5.8250 C   0  0  0  0  0  0  0  0  0  0  0  0
    4.8302    4.0410   -6.9561 C   0  0  0  0  0  0  0  0  0  0  0  0
    5.1122    2.6797   -6.8195 C   0  0  0  0  0  0  0  0  0  0  0  0
    5.2329    2.1159   -5.5457 C   0  0  0  0  0  0  0  0  0  0  0  0
    5.0872    2.9208   -4.4122 C   0  0  0  0  0  0  0  0  0  0  0  0
    4.8168    4.2837   -4.5497 C   0  0  0  0  0  0  0  0  0  0  0  0
   -0.9080   -0.0004   -0.7994 H   0  0  0  0  0  0  0  0  0  0  0  0
    1.4639    2.3131    0.6525 H   0  0  0  0  0  0  0  0  0  0  0  0
    2.1361    0.0880   -2.2005 H   0  0  0  0  0  0  0  0  0  0  0  0
    1.9672    0.8532   -4.5607 H   0  0  0  0  0  0  0  0  0  0  0  0
    0.8068    3.9664   -0.8815 H   0  0  0  0  0  0  0  0  0  0  0  0
   -0.5334    5.2270   -3.2896 H   0  0  0  0  0  0  0  0  0  0  0  0
    0.9724    5.8311   -2.5624 H   0  0  0  0  0  0  0  0  0  0  0  0
   -0.9085    6.5918   -5.3494 H   0  0  0  0  0  0  0  0  0  0  0  0
   -3.4049    6.3651   -4.9620 H   0  0  0  0  0  0  0  0  0  0  0  0
   -3.3360    5.0692   -6.1957 H   0  0  0  0  0  0  0  0  0  0  0  0
   -3.0936    6.7748   -6.6760 H   0  0  0  0  0  0  0  0  0  0  0  0
    2.2885    3.2783   -5.9108 H   0  0  0  0  0  0  0  0  0  0  0  0
    0.6748    2.5672   -6.1102 H   0  0  0  0  0  0  0  0  0  0  0  0
    4.6254    6.9369   -5.1935 H   0  0  0  0  0  0  0  0  0  0  0  0
    4.4522    6.6875   -6.9638 H   0  0  0  0  0  0  0  0  0  0  0  0
    4.7155    4.4765   -7.9525 H   0  0  0  0  0  0  0  0  0  0  0  0
    5.2303    2.0557   -7.7086 H   0  0  0  0  0  0  0  0  0  0  0  0
    5.4420    1.0491   -5.4364 H   0  0  0  0  0  0  0  0  0  0  0  0
    5.1743    2.4836   -3.4153 H   0  0  0  0  0  0  0  0  0  0  0  0
    4.6837    4.9088   -3.6652 H   0  0  0  0  0  0  0  0  0  0  0  0
  2  1  1  0
  1 31  1  0
  2  3  2  0
  2  4  2  0
  2  5  1  0
  5  6  1  0
  5 32  1  0
  6  7  2  0
  6 11  1  0
  7  8  1  0
  7 33  1  0
  8  9  2  0
  8 34  1  0
  9 10  1  0
  9 20  1  0
 10 11  2  0
 10 12  1  0
 11 35  1  0
 12 13  1  0
 12 36  1  0
 12 37  1  0
 13 14  1  0
 13 21  1  0
 14 15  1  6
 14 16  1  0
 14 20  1  0
 16 17  2  0
 16 18  1  0
 18 19  1  0
 18 38  1  0
 19 39  1  0
 19 40  1  0
 19 41  1  0
 20 42  1  0
 20 43  1  0
 21 22  2  0
 21 23  1  0
 23 24  1  0
 24 25  1  0
 24 44  1  0
 24 45  1  0
 25 26  2  0
 25 30  1  0
 26 27  1  0
 26 46  1  0
 27 28  2  0
 27 47  1  0
 28 29  1  0
 28 48  1  0
 29 30  2  0
 29 49  1  0
 30 50  1  0
M  END

