24
rmsd44.gzmat
C          0.00000        0.00000        0.00000
H          1.13760        0.00000        0.00000
C         -0.48400        0.00000       -1.44900
O         -1.55600        0.31250       -1.89120
O          0.50110       -0.46580       -2.25360
C         -0.50110       -1.28040        0.70360
C         -2.01300       -1.51360        0.64100
C         -2.73030       -0.87640        1.78820
O         -2.74870        0.28070        2.12850
O         -3.45370       -1.80000        2.46510
N         -0.48100        1.20920        0.64350
C          0.39580        2.24450        0.93560
O          1.56420        2.16700        0.61860
C         -0.22010        3.42550        1.62430
H          0.27270       -0.45870       -3.21570
H          0.02130       -2.15180        0.25140
H         -0.15850       -1.25740        1.76080
H         -2.22530       -2.60830        0.61510
H         -2.45200       -1.11600       -0.30810
H         -3.97000       -1.42970        3.22510
H         -1.44120        1.20120        0.97220
H         -0.93900        3.14040        2.40500
H         -0.74880        4.06700        0.90210
H          0.56190        4.04150        2.09630
