24
rmsd26.gzmat
C          0.00000        0.00000        0.00000
H          1.13820        0.00000        0.00000
C         -0.48750        0.00000       -1.44770
O         -1.58710        0.22250       -1.87680
O          0.53660       -0.33030       -2.26950
C         -0.49470       -1.28050        0.70800
C         -2.01260       -1.48270        0.71200
C         -2.65970       -0.81250        1.88240
O         -2.79260        0.36640        2.10180
O         -3.15390       -1.72860        2.74900
N         -0.48120        1.21410        0.63500
C          0.41270        2.20280        1.02380
O          1.59670        2.08550        0.78670
C         -0.19360        3.39170        1.70650
H          0.30460       -0.31220       -3.23090
H         -0.01160       -2.15600        0.22120
H         -0.10360       -1.28000        1.74850
H         -2.24760       -2.57250        0.71410
H         -2.47900       -1.08770       -0.22470
H         -3.60680       -1.33270        3.53670
H         -1.46070        1.23330        0.90350
H         -1.19230        3.20630        2.12410
H         -0.27710        4.23340        1.00060
H          0.45670        3.72770        2.53010
