
     RDKit          3D

 24 23  0  0  0  0  0  0  0  0999 V2000
   -0.1316   -0.0635    0.0855 C   0  0  2  0  0  0  0  0  0  0  0  0
    0.9698    0.0028    0.0381 H   0  0  0  0  0  0  0  0  0  0  0  0
   -0.5794   -0.0364   -1.3775 C   0  0  0  0  0  0  0  0  0  0  0  0
   -0.4768   -0.9794   -2.1227 O   0  0  0  0  0  0  0  0  0  0  0  0
   -1.0817    1.1483   -1.7587 O   0  0  0  0  0  0  0  0  0  0  0  0
   -0.5392   -1.3990    0.7259 C   0  0  0  0  0  0  0  0  0  0  0  0
   -0.0762   -1.5478    2.1715 C   0  0  0  0  0  0  0  0  0  0  0  0
   -0.9511   -0.8423    3.1843 C   0  0  0  0  0  0  0  0  0  0  0  0
   -2.0060   -0.2923    2.9596 O   0  0  0  0  0  0  0  0  0  0  0  0
   -0.4314   -0.9143    4.4204 O   0  0  0  0  0  0  0  0  0  0  0  0
   -0.5605    1.0755    0.8541 N   0  0  0  0  0  0  0  0  0  0  0  0
    0.2326    2.1795    1.0143 C   0  0  0  0  0  0  0  0  0  0  0  0
    1.3569    2.2514    0.5487 O   0  0  0  0  0  0  0  0  0  0  0  0
   -0.4090    3.3075    1.8006 C   0  0  0  0  0  0  0  0  0  0  0  0
   -1.2883    1.0681   -2.7061 H   0  0  0  0  0  0  0  0  0  0  0  0
   -1.6344   -1.5126    0.6820 H   0  0  0  0  0  0  0  0  0  0  0  0
   -0.1142   -2.2010    0.1084 H   0  0  0  0  0  0  0  0  0  0  0  0
    0.9587   -1.1945    2.3119 H   0  0  0  0  0  0  0  0  0  0  0  0
   -0.0650   -2.6107    2.4676 H   0  0  0  0  0  0  0  0  0  0  0  0
   -1.0533   -0.4633    5.0174 H   0  0  0  0  0  0  0  0  0  0  0  0
   -1.4782    1.0394    1.2838 H   0  0  0  0  0  0  0  0  0  0  0  0
   -1.1509    2.9447    2.5280 H   0  0  0  0  0  0  0  0  0  0  0  0
   -0.9174    3.9882    1.0985 H   0  0  0  0  0  0  0  0  0  0  0  0
    0.3773    3.8752    2.3146 H   0  0  0  0  0  0  0  0  0  0  0  0
  1  2  1  6
  1  3  1  0
  1  6  1  0
  1 11  1  0
  3  4  2  0
  3  5  1  0
  5 15  1  0
  6  7  1  0
  6 16  1  0
  6 17  1  0
  7  8  1  0
  7 18  1  0
  7 19  1  0
  8  9  2  0
  8 10  1  0
 10 20  1  0
 11 12  1  0
 11 21  1  0
 12 13  2  0
 12 14  1  0
 14 22  1  0
 14 23  1  0
 14 24  1  0
M  END

