rmsd173.gzmat
 OpenBabel08211713423D

 24 23  0  0  1  0  0  0  0  0999 V2000
    0.0000    0.0000    0.0000 C   0  0  2  0  0  0  0  0  0  0  0  0
    1.1330    0.0000    0.0000 H   0  0  0  0  0  0  0  0  0  0  0  0
   -0.4783    0.0000   -1.4521 C   0  0  0  0  0  0  0  0  0  0  0  0
   -1.3657    0.6149   -1.9704 O   0  0  0  0  0  0  0  0  0  0  0  0
    0.2748   -0.8865   -2.1571 O   0  0  0  0  0  0  0  0  0  0  0  0
   -0.5401   -1.2858    0.6636 C   0  0  0  0  0  0  0  0  0  0  0  0
   -0.1522   -1.3804    2.1387 C   0  0  0  0  0  0  0  0  0  0  0  0
   -1.1692   -0.7249    3.0194 C   0  0  0  0  0  0  0  0  0  0  0  0
   -2.0718    0.0207    2.7322 O   0  0  0  0  0  0  0  0  0  0  0  0
   -0.9637   -1.0868    4.3107 O   0  0  0  0  0  0  0  0  0  0  0  0
   -0.4941    1.1933    0.6655 N   0  0  0  0  0  0  0  0  0  0  0  0
    0.3397    2.2845    0.8580 C   0  0  0  0  0  0  0  0  0  0  0  0
    1.4819    2.2583    0.4495 O   0  0  0  0  0  0  0  0  0  0  0  0
   -0.2702    3.4414    1.5920 C   0  0  0  0  0  0  0  0  0  0  0  0
    0.0474   -0.9307   -3.1177 H   0  0  0  0  0  0  0  0  0  0  0  0
   -1.6446   -1.3405    0.5508 H   0  0  0  0  0  0  0  0  0  0  0  0
   -0.1408   -2.1642    0.1107 H   0  0  0  0  0  0  0  0  0  0  0  0
    0.8468   -0.9178    2.3208 H   0  0  0  0  0  0  0  0  0  0  0  0
   -0.0235   -2.4439    2.4452 H   0  0  0  0  0  0  0  0  0  0  0  0
   -1.6010   -0.6785    4.9485 H   0  0  0  0  0  0  0  0  0  0  0  0
   -1.4400    1.1565    1.0285 H   0  0  0  0  0  0  0  0  0  0  0  0
   -0.9388    3.1336    2.4064 H   0  0  0  0  0  0  0  0  0  0  0  0
   -0.8504    4.0785    0.9064 H   0  0  0  0  0  0  0  0  0  0  0  0
    0.5203    4.0742    2.0280 H   0  0  0  0  0  0  0  0  0  0  0  0
  1  2  1  1  0  0  0
  1  6  1  0  0  0  0
  1 11  1  0  0  0  0
  3  1  1  0  0  0  0
  4  3  2  0  0  0  0
  5  3  1  0  0  0  0
  6  7  1  0  0  0  0
  7 18  1  0  0  0  0
  7 19  1  0  0  0  0
  7  8  1  0  0  0  0
  8 10  1  0  0  0  0
  9  8  2  0  0  0  0
 10 20  1  0  0  0  0
 11 12  1  0  0  0  0
 11 21  1  0  0  0  0
 12 14  1  0  0  0  0
 13 12  2  0  0  0  0
 14 24  1  0  0  0  0
 14 22  1  0  0  0  0
 15  5  1  0  0  0  0
 16  6  1  0  0  0  0
 17  6  1  0  0  0  0
 23 14  1  0  0  0  0
M  END
$$$$
