
     RDKit          3D

 24 23  0  0  0  0  0  0  0  0999 V2000
    0.0110    0.0598   -0.1999 C   0  0  2  0  0  0  0  0  0  0  0  0
    1.1135    0.0272   -0.2122 H   0  0  0  0  0  0  0  0  0  0  0  0
   -0.4980    0.0308   -1.6308 C   0  0  0  0  0  0  0  0  0  0  0  0
   -1.3459    0.7716   -2.0674 O   0  0  0  0  0  0  0  0  0  0  0  0
    0.0804   -0.9314   -2.3648 O   0  0  0  0  0  0  0  0  0  0  0  0
   -0.4849   -1.1511    0.6261 C   0  0  0  0  0  0  0  0  0  0  0  0
    0.1770   -2.4831    0.2657 C   0  0  0  0  0  0  0  0  0  0  0  0
   -0.2802   -3.6361    1.1293 C   0  0  0  0  0  0  0  0  0  0  0  0
   -0.6080   -4.7233    0.7247 O   0  0  0  0  0  0  0  0  0  0  0  0
   -0.2729   -3.3258    2.4435 O   0  0  0  0  0  0  0  0  0  0  0  0
   -0.4149    1.3112    0.3835 N   0  0  0  0  0  0  0  0  0  0  0  0
    0.2196    1.8340    1.4721 C   0  0  0  0  0  0  0  0  0  0  0  0
    1.1493    1.2583    2.0153 O   0  0  0  0  0  0  0  0  0  0  0  0
   -0.3161    3.1651    1.9662 C   0  0  0  0  0  0  0  0  0  0  0  0
   -0.3280   -0.9063   -3.2481 H   0  0  0  0  0  0  0  0  0  0  0  0
   -0.2554   -0.9150    1.6734 H   0  0  0  0  0  0  0  0  0  0  0  0
   -1.5820   -1.2206    0.5349 H   0  0  0  0  0  0  0  0  0  0  0  0
    1.2695   -2.3879    0.3991 H   0  0  0  0  0  0  0  0  0  0  0  0
   -0.0002   -2.7726   -0.7763 H   0  0  0  0  0  0  0  0  0  0  0  0
   -0.5655   -4.1222    2.9189 H   0  0  0  0  0  0  0  0  0  0  0  0
   -1.1559    1.8088   -0.0986 H   0  0  0  0  0  0  0  0  0  0  0  0
   -1.0945    3.5953    1.3200 H   0  0  0  0  0  0  0  0  0  0  0  0
    0.5226    3.8715    2.0500 H   0  0  0  0  0  0  0  0  0  0  0  0
   -0.7248    3.0257    2.9787 H   0  0  0  0  0  0  0  0  0  0  0  0
  1  2  1  6
  1  3  1  0
  1  6  1  0
  1 11  1  0
  3  4  2  0
  3  5  1  0
  5 15  1  0
  6  7  1  0
  6 16  1  0
  6 17  1  0
  7  8  1  0
  7 18  1  0
  7 19  1  0
  8  9  2  0
  8 10  1  0
 10 20  1  0
 11 12  1  0
 11 21  1  0
 12 13  2  0
 12 14  1  0
 14 22  1  0
 14 23  1  0
 14 24  1  0
M  END

