rmsd226.gzmat
 OpenBabel08211713423D

 24 23  0  0  1  0  0  0  0  0999 V2000
    0.0000    0.0000    0.0000 C   0  0  2  0  0  0  0  0  0  0  0  0
    1.1330    0.0000    0.0000 H   0  0  0  0  0  0  0  0  0  0  0  0
   -0.5092    0.0000   -1.4364 C   0  0  0  0  0  0  0  0  0  0  0  0
   -1.4815    0.5351   -1.8912 O   0  0  0  0  0  0  0  0  0  0  0  0
    0.3096   -0.7613   -2.2036 O   0  0  0  0  0  0  0  0  0  0  0  0
   -0.5217   -1.2860    0.6815 C   0  0  0  0  0  0  0  0  0  0  0  0
   -0.0154   -1.4048    2.1185 C   0  0  0  0  0  0  0  0  0  0  0  0
   -0.9566   -0.7644    3.0869 C   0  0  0  0  0  0  0  0  0  0  0  0
   -1.7459    0.1300    2.9167 O   0  0  0  0  0  0  0  0  0  0  0  0
   -0.8199   -1.3340    4.3118 O   0  0  0  0  0  0  0  0  0  0  0  0
   -0.4844    1.2200    0.6307 N   0  0  0  0  0  0  0  0  0  0  0  0
    0.3164    1.8689    1.5634 C   0  0  0  0  0  0  0  0  0  0  0  0
    1.4569    1.4952    1.7531 O   0  0  0  0  0  0  0  0  0  0  0  0
   -0.3149    3.0403    2.2515 C   0  0  0  0  0  0  0  0  0  0  0  0
    0.0422   -0.8054   -3.1552 H   0  0  0  0  0  0  0  0  0  0  0  0
   -1.6311   -1.3101    0.6570 H   0  0  0  0  0  0  0  0  0  0  0  0
   -0.1860   -2.1656    0.0920 H   0  0  0  0  0  0  0  0  0  0  0  0
    0.9901   -0.9206    2.2295 H   0  0  0  0  0  0  0  0  0  0  0  0
    0.1555   -2.4697    2.3922 H   0  0  0  0  0  0  0  0  0  0  0  0
   -1.3977   -0.9337    5.0067 H   0  0  0  0  0  0  0  0  0  0  0  0
   -1.4837    1.3862    0.5941 H   0  0  0  0  0  0  0  0  0  0  0  0
   -1.2002    2.7345    2.8319 H   0  0  0  0  0  0  0  0  0  0  0  0
   -0.6285    3.8182    1.5412 H   0  0  0  0  0  0  0  0  0  0  0  0
    0.3966    3.5020    2.9545 H   0  0  0  0  0  0  0  0  0  0  0  0
  1  2  1  1  0  0  0
  1 11  1  0  0  0  0
  1  6  1  0  0  0  0
  3  1  1  0  0  0  0
  4  3  2  0  0  0  0
  5  3  1  0  0  0  0
  6  7  1  0  0  0  0
  7 18  1  0  0  0  0
  7 19  1  0  0  0  0
  7  8  1  0  0  0  0
  8 10  1  0  0  0  0
  9  8  2  0  0  0  0
 10 20  1  0  0  0  0
 11 12  1  0  0  0  0
 12 13  2  0  0  0  0
 12 14  1  0  0  0  0
 14 22  1  0  0  0  0
 14 24  1  0  0  0  0
 15  5  1  0  0  0  0
 16  6  1  0  0  0  0
 17  6  1  0  0  0  0
 21 11  1  0  0  0  0
 23 14  1  0  0  0  0
M  END
$$$$
