rmsd44.gzmat
 OpenBabel08211713423D

 24 23  0  0  1  0  0  0  0  0999 V2000
    0.0000    0.0000    0.0000 C   0  0  2  0  0  0  0  0  0  0  0  0
    1.1376    0.0000    0.0000 H   0  0  0  0  0  0  0  0  0  0  0  0
   -0.4840    0.0000   -1.4490 C   0  0  0  0  0  0  0  0  0  0  0  0
   -1.5560    0.3125   -1.8912 O   0  0  0  0  0  0  0  0  0  0  0  0
    0.5011   -0.4658   -2.2536 O   0  0  0  0  0  0  0  0  0  0  0  0
   -0.5011   -1.2804    0.7036 C   0  0  0  0  0  0  0  0  0  0  0  0
   -2.0130   -1.5136    0.6410 C   0  0  0  0  0  0  0  0  0  0  0  0
   -2.7303   -0.8764    1.7882 C   0  0  0  0  0  0  0  0  0  0  0  0
   -2.7487    0.2807    2.1285 O   0  0  0  0  0  0  0  0  0  0  0  0
   -3.4537   -1.8000    2.4651 O   0  0  0  0  0  0  0  0  0  0  0  0
   -0.4810    1.2092    0.6435 N   0  0  0  0  0  0  0  0  0  0  0  0
    0.3958    2.2445    0.9356 C   0  0  0  0  0  0  0  0  0  0  0  0
    1.5642    2.1670    0.6186 O   0  0  0  0  0  0  0  0  0  0  0  0
   -0.2201    3.4255    1.6243 C   0  0  0  0  0  0  0  0  0  0  0  0
    0.2727   -0.4587   -3.2157 H   0  0  0  0  0  0  0  0  0  0  0  0
    0.0213   -2.1518    0.2514 H   0  0  0  0  0  0  0  0  0  0  0  0
   -0.1585   -1.2574    1.7608 H   0  0  0  0  0  0  0  0  0  0  0  0
   -2.2253   -2.6083    0.6151 H   0  0  0  0  0  0  0  0  0  0  0  0
   -2.4520   -1.1160   -0.3081 H   0  0  0  0  0  0  0  0  0  0  0  0
   -3.9700   -1.4297    3.2251 H   0  0  0  0  0  0  0  0  0  0  0  0
   -1.4412    1.2012    0.9722 H   0  0  0  0  0  0  0  0  0  0  0  0
   -0.9390    3.1404    2.4050 H   0  0  0  0  0  0  0  0  0  0  0  0
   -0.7488    4.0670    0.9021 H   0  0  0  0  0  0  0  0  0  0  0  0
    0.5619    4.0415    2.0963 H   0  0  0  0  0  0  0  0  0  0  0  0
  1  2  1  1  0  0  0
  1 11  1  0  0  0  0
  1  6  1  0  0  0  0
  3  1  1  0  0  0  0
  4  3  2  0  0  0  0
  5  3  1  0  0  0  0
  6 17  1  0  0  0  0
  7  6  1  0  0  0  0
  7  8  1  0  0  0  0
  8  9  2  0  0  0  0
  8 10  1  0  0  0  0
 10 20  1  0  0  0  0
 11 12  1  0  0  0  0
 11 21  1  0  0  0  0
 12 14  1  0  0  0  0
 13 12  2  0  0  0  0
 14 24  1  0  0  0  0
 14 22  1  0  0  0  0
 15  5  1  0  0  0  0
 16  6  1  0  0  0  0
 18  7  1  0  0  0  0
 19  7  1  0  0  0  0
 23 14  1  0  0  0  0
M  END
$$$$
