24

C          0.17050       -0.07540        0.20160
H          1.26820       -0.16990        0.17730
C         -0.27630        0.13410       -1.24640
O         -1.34260        0.58850       -1.58140
O          0.62170       -0.35690       -2.11490
C         -0.41630       -1.39770        0.73260
C         -1.94890       -1.50340        0.74010
C         -2.62510       -0.94610        1.96790
O         -2.15030       -0.14460        2.74590
O         -3.86600       -1.42740        2.12060
N         -0.21430        1.04520        1.02180
C          0.18430        2.29800        0.66910
O          0.88580        2.49190       -0.31320
C         -0.30880        3.42250        1.55860
H          0.25640       -0.21740       -3.00560
H         -0.01670       -2.20220        0.09770
H         -0.02060       -1.56890        1.74630
H         -2.27160       -2.55020        0.63710
H         -2.38060       -0.96790       -0.12360
H         -4.24750       -0.99310        2.90360
H         -0.82400        0.87440        1.81940
H         -0.83950        3.07030        2.45460
H         -0.98340        4.06180        0.96840
H          0.54940        4.04230        1.85660
