
     RDKit          3D

 24 23  0  0  0  0  0  0  0  0999 V2000
    0.0256    0.0173   -0.0004 C   0  0  2  0  0  0  0  0  0  0  0  0
    1.1232   -0.0358    0.0824 H   0  0  0  0  0  0  0  0  0  0  0  0
   -0.3439    0.0605   -1.4751 C   0  0  0  0  0  0  0  0  0  0  0  0
   -1.1192    0.8430   -1.9669 O   0  0  0  0  0  0  0  0  0  0  0  0
    0.2670   -0.9081   -2.1764 O   0  0  0  0  0  0  0  0  0  0  0  0
   -0.5657   -1.2653    0.6367 C   0  0  0  0  0  0  0  0  0  0  0  0
   -0.1012   -1.5525    2.0637 C   0  0  0  0  0  0  0  0  0  0  0  0
   -0.8319   -0.7798    3.1376 C   0  0  0  0  0  0  0  0  0  0  0  0
   -1.8020   -0.0768    2.9764 O   0  0  0  0  0  0  0  0  0  0  0  0
   -0.2918   -0.9998    4.3480 O   0  0  0  0  0  0  0  0  0  0  0  0
   -0.4119    1.2539    0.5983 N   0  0  0  0  0  0  0  0  0  0  0  0
    0.1762    1.7779    1.7078 C   0  0  0  0  0  0  0  0  0  0  0  0
    1.1535    1.2625    2.2343 O   0  0  0  0  0  0  0  0  0  0  0  0
   -0.5060    3.0057    2.2734 C   0  0  0  0  0  0  0  0  0  0  0  0
   -0.0483   -0.8393   -3.0943 H   0  0  0  0  0  0  0  0  0  0  0  0
   -1.6649   -1.1964    0.6115 H   0  0  0  0  0  0  0  0  0  0  0  0
   -0.2706   -2.1103   -0.0027 H   0  0  0  0  0  0  0  0  0  0  0  0
    0.9727   -1.3521    2.1914 H   0  0  0  0  0  0  0  0  0  0  0  0
   -0.2479   -2.6208    2.2996 H   0  0  0  0  0  0  0  0  0  0  0  0
   -0.8049   -0.4740    4.9847 H   0  0  0  0  0  0  0  0  0  0  0  0
   -1.2416    1.6797    0.2007 H   0  0  0  0  0  0  0  0  0  0  0  0
   -1.3098    2.6616    2.9444 H   0  0  0  0  0  0  0  0  0  0  0  0
   -0.9533    3.6400    1.4934 H   0  0  0  0  0  0  0  0  0  0  0  0
    0.2204    3.5836    2.8582 H   0  0  0  0  0  0  0  0  0  0  0  0
  1  2  1  6
  1  3  1  0
  1  6  1  0
  1 11  1  0
  3  4  2  0
  3  5  1  0
  5 15  1  0
  6  7  1  0
  6 16  1  0
  6 17  1  0
  7  8  1  0
  7 18  1  0
  7 19  1  0
  8  9  2  0
  8 10  1  0
 10 20  1  0
 11 12  1  0
 11 21  1  0
 12 13  2  0
 12 14  1  0
 14 22  1  0
 14 23  1  0
 14 24  1  0
M  END

