rmsd215.gzmat
 OpenBabel08211713423D

 24 23  0  0  1  0  0  0  0  0999 V2000
    0.0000    0.0000    0.0000 C   0  0  2  0  0  0  0  0  0  0  0  0
    1.1336    0.0000    0.0000 H   0  0  0  0  0  0  0  0  0  0  0  0
   -0.4679    0.0000   -1.4554 C   0  0  0  0  0  0  0  0  0  0  0  0
    0.2025   -0.1095   -2.4436 O   0  0  0  0  0  0  0  0  0  0  0  0
   -1.8173    0.1144   -1.5211 O   0  0  0  0  0  0  0  0  0  0  0  0
   -0.5375   -1.2786    0.6770 C   0  0  0  0  0  0  0  0  0  0  0  0
   -0.0786   -1.3851    2.1300 C   0  0  0  0  0  0  0  0  0  0  0  0
   -1.0315   -0.6976    3.0551 C   0  0  0  0  0  0  0  0  0  0  0  0
   -1.9199    0.0781    2.8097 O   0  0  0  0  0  0  0  0  0  0  0  0
   -0.7732   -1.0618    4.3373 O   0  0  0  0  0  0  0  0  0  0  0  0
   -0.4946    1.2155    0.6303 N   0  0  0  0  0  0  0  0  0  0  0  0
    0.3963    2.0841    1.2506 C   0  0  0  0  0  0  0  0  0  0  0  0
    1.5907    1.8764    1.1998 O   0  0  0  0  0  0  0  0  0  0  0  0
   -0.2239    3.2792    1.9097 C   0  0  0  0  0  0  0  0  0  0  0  0
   -2.1701    0.1519   -2.4449 H   0  0  0  0  0  0  0  0  0  0  0  0
   -1.6490   -1.2979    0.6179 H   0  0  0  0  0  0  0  0  0  0  0  0
   -0.1947   -2.1664    0.1068 H   0  0  0  0  0  0  0  0  0  0  0  0
    0.9408   -0.9463    2.2645 H   0  0  0  0  0  0  0  0  0  0  0  0
    0.0369   -2.4507    2.4319 H   0  0  0  0  0  0  0  0  0  0  0  0
   -1.3662   -0.6360    5.0039 H   0  0  0  0  0  0  0  0  0  0  0  0
   -1.4881    1.2394    0.8381 H   0  0  0  0  0  0  0  0  0  0  0  0
   -0.9728    3.0000    2.6637 H   0  0  0  0  0  0  0  0  0  0  0  0
   -0.7147    3.9339    1.1736 H   0  0  0  0  0  0  0  0  0  0  0  0
    0.5499    3.8806    2.4152 H   0  0  0  0  0  0  0  0  0  0  0  0
  1  2  1  1  0  0  0
  1 11  1  0  0  0  0
  1  6  1  0  0  0  0
  3  1  1  0  0  0  0
  4  3  2  0  0  0  0
  5  3  1  0  0  0  0
  6  7  1  0  0  0  0
  7 18  1  0  0  0  0
  7 19  1  0  0  0  0
  7  8  1  0  0  0  0
  8 10  1  0  0  0  0
  9  8  2  0  0  0  0
 10 20  1  0  0  0  0
 11 21  1  0  0  0  0
 11 12  1  0  0  0  0
 12 14  1  0  0  0  0
 13 12  2  0  0  0  0
 14 24  1  0  0  0  0
 14 22  1  0  0  0  0
 15  5  1  0  0  0  0
 16  6  1  0  0  0  0
 17  6  1  0  0  0  0
 23 14  1  0  0  0  0
M  END
$$$$
