24
rmsd210.gzmat
C          0.00000        0.00000        0.00000
H          1.13290        0.00000        0.00000
C         -0.51790        0.00000       -1.43370
O         -1.48150        0.56870       -1.86940
O          0.26670       -0.77700       -2.21760
C         -0.53110       -1.25350        0.72520
C          0.30000       -2.48270        0.36690
C         -0.22710       -3.73740        0.98380
O          0.12160       -4.86760        0.76600
O         -1.20850       -3.48530        1.89090
N         -0.49090        1.21140        0.64660
C          0.39960        2.07960        1.26520
O          1.58170        1.81500        1.30730
C         -0.21040        3.31430        1.85840
H         -0.02320       -0.81550       -3.16460
H         -0.49920       -1.08150        1.82480
H         -1.60330       -1.42000        0.49700
H          1.36060       -2.34790        0.68770
H          0.35470       -2.61900       -0.74090
H         -1.57080       -4.30290        2.31380
H         -1.47190        1.42310        0.54360
H         -1.15400        3.12320        2.38370
H         -0.39790        4.07280        1.08320
H          0.48560        3.76630        2.58540
