24

C          0.01100        0.05980       -0.19990
H          1.11350        0.02720       -0.21220
C         -0.49800        0.03080       -1.63080
O         -1.34590        0.77160       -2.06740
O          0.08040       -0.93140       -2.36480
C         -0.48490       -1.15110        0.62610
C          0.17700       -2.48310        0.26570
C         -0.28020       -3.63610        1.12930
O         -0.60800       -4.72330        0.72470
O         -0.27290       -3.32580        2.44350
N         -0.41490        1.31120        0.38350
C          0.21960        1.83400        1.47210
O          1.14930        1.25830        2.01530
C         -0.31610        3.16510        1.96620
H         -0.32800       -0.90630       -3.24810
H         -0.25540       -0.91500        1.67340
H         -1.58200       -1.22060        0.53490
H          1.26950       -2.38790        0.39910
H         -0.00020       -2.77260       -0.77630
H         -0.56550       -4.12220        2.91890
H         -1.15590        1.80880       -0.09860
H         -1.09450        3.59530        1.32000
H          0.52260        3.87150        2.05000
H         -0.72480        3.02570        2.97870
