41
rmsd176.gzmat
O          0.00000        0.00000        0.00000
C          1.19000        0.00000        0.00000
N          2.15790        0.00000        1.03030
C          2.23160        0.82780        2.21630
H          1.25730        0.87190        2.74000
C          3.30470        0.12010        3.20750
O          2.88670       -0.07000        4.34160
O          4.40550       -0.07160        2.68620
C          2.76280        2.22100        1.81050
C          3.49570        2.90320        2.95400
C          1.63650        3.10950        1.29840
S          4.00450        1.87240        0.42670
O          3.54910        2.71820       -0.72860
C          3.31170        0.17530        0.09860
H          4.10430       -0.57850        0.25910
C          2.33040       -0.09190       -1.10530
H          2.43100       -1.12200       -1.51690
N          2.22420        0.89370       -2.14010
C          2.39540        0.53100       -3.45940
O          2.51210       -0.62830       -3.80250
C          2.36650        1.67510       -4.46280
C          3.76290        2.15090       -4.71830
C          4.40490        1.82440       -5.91500
C          5.69990        2.27740       -6.15820
C          6.35980        3.05200       -5.20600
C          5.72460        3.36580       -4.00520
C          4.42850        2.92060       -3.76120
H          4.39950        2.34900        3.26600
H          2.85900        2.93640        3.85120
H          3.79290        3.92780        2.71600
H          1.02130        2.61130        0.53720
H          2.01000        4.03660        0.84390
H          0.96240        3.39270        2.11600
H          2.24980        1.88210       -1.85340
H          1.72390        2.50900       -4.11230
H          1.88750        1.30320       -5.39430
H          3.90030        1.20500       -6.65280
H          6.19790        2.02160       -7.08910
H          7.36850        3.40420       -5.39640
H          6.24370        3.95220       -3.24940
H          3.94480        3.16280       -2.80470
