rmsd141.gzmat
 OpenBabel08211713363D

 41 43  0  0  1  0  0  0  0  0999 V2000
    0.0000    0.0000    0.0000 O   0  0  0  0  0  0  0  0  0  0  0  0
    1.1898    0.0000    0.0000 C   0  0  0  0  0  0  0  0  0  0  0  0
    2.1578    0.0000    1.0301 N   0  0  0  0  0  0  0  0  0  0  0  0
    2.2395    0.7915    2.2398 C   0  0  1  0  0  0  0  0  0  0  0  0
    1.2701    0.8125    2.7742 H   0  0  0  0  0  0  0  0  0  0  0  0
    3.3277    0.0609    3.1967 C   0  0  0  0  0  0  0  0  0  0  0  0
    2.9231   -0.1665    4.3290 O   0  0  0  0  0  0  0  0  0  0  0  0
    4.4242   -0.1077    2.6585 O   0  0  0  0  0  0  0  0  0  0  0  0
    2.7591    2.2028    1.8772 C   0  0  0  0  0  0  0  0  0  0  0  0
    3.5380    2.8371    3.0166 C   0  0  0  0  0  0  0  0  0  0  0  0
    1.6103    3.1070    1.4489 C   0  0  0  0  0  0  0  0  0  0  0  0
    3.9319    1.9199    0.4192 S   0  0  2  0  0  0  0  0  0  0  0  0
    3.3563    2.7774   -0.6763 O   0  0  0  0  0  0  0  0  0  0  0  0
    3.3072    0.1973    0.1000 C   0  0  2  0  0  0  0  0  0  0  0  0
    4.1244   -0.5285    0.2686 H   0  0  0  0  0  0  0  0  0  0  0  0
    2.3356   -0.1018   -1.1028 C   0  0  2  0  0  0  0  0  0  0  0  0
    2.4396   -1.1415   -1.4896 H   0  0  0  0  0  0  0  0  0  0  0  0
    2.2506    0.8601   -2.1601 N   0  0  0  0  0  0  0  0  0  0  0  0
    2.3783    0.4696   -3.4746 C   0  0  0  0  0  0  0  0  0  0  0  0
    2.4428   -0.6960   -3.8083 O   0  0  0  0  0  0  0  0  0  0  0  0
    2.3900    1.6101   -4.4847 C   0  0  0  0  0  0  0  0  0  0  0  0
    3.7998    2.0691   -4.6910 C   0  0  0  0  0  0  0  0  0  0  0  0
    4.4287    2.8674   -3.7326 C   0  0  0  0  0  0  0  0  0  0  0  0
    5.7435    3.2817   -3.9265 C   0  0  0  0  0  0  0  0  0  0  0  0
    6.4356    2.9065   -5.0771 C   0  0  0  0  0  0  0  0  0  0  0  0
    5.8090    2.1103   -6.0334 C   0  0  0  0  0  0  0  0  0  0  0  0
    4.4948    1.6899   -5.8410 C   0  0  0  0  0  0  0  0  0  0  0  0
    4.4677    2.2884    3.2518 H   0  0  0  0  0  0  0  0  0  0  0  0
    2.9487    2.8055    3.9464 H   0  0  0  0  0  0  0  0  0  0  0  0
    3.7985    3.8805    2.8220 H   0  0  0  0  0  0  0  0  0  0  0  0
    0.9594    2.6302    0.7025 H   0  0  0  0  0  0  0  0  0  0  0  0
    1.9604    4.0461    1.0005 H   0  0  0  0  0  0  0  0  0  0  0  0
    0.9783    3.3662    2.3066 H   0  0  0  0  0  0  0  0  0  0  0  0
    2.3192    1.8560   -1.8977 H   0  0  0  0  0  0  0  0  0  0  0  0
    1.7424    2.4492   -4.1557 H   0  0  0  0  0  0  0  0  0  0  0  0
    1.9374    1.2416   -5.4298 H   0  0  0  0  0  0  0  0  0  0  0  0
    3.9024    3.1589   -2.8138 H   0  0  0  0  0  0  0  0  0  0  0  0
    6.2307    3.8936   -3.1699 H   0  0  0  0  0  0  0  0  0  0  0  0
    7.4615    3.2285   -5.2254 H   0  0  0  0  0  0  0  0  0  0  0  0
    6.3466    1.8114   -6.9284 H   0  0  0  0  0  0  0  0  0  0  0  0
    4.0164    1.0525   -6.5810 H   0  0  0  0  0  0  0  0  0  0  0  0
  1  2  2  0  0  0  0
  2  3  1  0  0  0  0
  3  4  1  0  0  0  0
  4  5  1  1  0  0  0
  4  6  1  0  0  0  0
  6  7  1  0  0  0  0
  8  6  2  0  0  0  0
  9  4  1  0  0  0  0
  9 10  1  0  0  0  0
 10 28  1  0  0  0  0
 10 29  1  0  0  0  0
 11  9  1  0  0  0  0
 11 33  1  0  0  0  0
 12 14  1  0  0  0  0
 12  9  1  0  0  0  0
 12 13  2  6  0  0  0
 14 16  1  0  0  0  0
 14 15  1  1  0  0  0
 14  3  1  0  0  0  0
 16 17  1  6  0  0  0
 16  2  1  0  0  0  0
 18 34  1  0  0  0  0
 18 16  1  0  0  0  0
 19 18  1  0  0  0  0
 20 19  2  0  0  0  0
 21 35  1  0  0  0  0
 21 19  1  0  0  0  0
 22 21  1  0  0  0  0
 22 23  2  0  0  0  0
 23 37  1  0  0  0  0
 24 23  1  0  0  0  0
 24 38  1  0  0  0  0
 25 24  2  0  0  0  0
 26 27  2  0  0  0  0
 26 25  1  0  0  0  0
 27 22  1  0  0  0  0
 30 10  1  0  0  0  0
 31 11  1  0  0  0  0
 32 11  1  0  0  0  0
 36 21  1  0  0  0  0
 39 25  1  0  0  0  0
 40 26  1  0  0  0  0
 41 27  1  0  0  0  0
M  RAD  1   7   2
M  END
$$$$
