rmsd176.gzmat
 OpenBabel08211713363D

 41 43  0  0  1  0  0  0  0  0999 V2000
    0.0000    0.0000    0.0000 O   0  0  0  0  0  0  0  0  0  0  0  0
    1.1900    0.0000    0.0000 C   0  0  0  0  0  0  0  0  0  0  0  0
    2.1579    0.0000    1.0303 N   0  0  0  0  0  0  0  0  0  0  0  0
    2.2316    0.8278    2.2163 C   0  0  1  0  0  0  0  0  0  0  0  0
    1.2573    0.8719    2.7400 H   0  0  0  0  0  0  0  0  0  0  0  0
    3.3047    0.1201    3.2075 C   0  0  0  0  0  0  0  0  0  0  0  0
    2.8867   -0.0700    4.3416 O   0  0  0  0  0  0  0  0  0  0  0  0
    4.4055   -0.0716    2.6862 O   0  0  0  0  0  0  0  0  0  0  0  0
    2.7628    2.2210    1.8105 C   0  0  0  0  0  0  0  0  0  0  0  0
    3.4957    2.9032    2.9540 C   0  0  0  0  0  0  0  0  0  0  0  0
    1.6365    3.1095    1.2984 C   0  0  0  0  0  0  0  0  0  0  0  0
    4.0045    1.8724    0.4267 S   0  0  2  0  0  0  0  0  0  0  0  0
    3.5491    2.7182   -0.7286 O   0  0  0  0  0  0  0  0  0  0  0  0
    3.3117    0.1753    0.0986 C   0  0  2  0  0  0  0  0  0  0  0  0
    4.1043   -0.5785    0.2591 H   0  0  0  0  0  0  0  0  0  0  0  0
    2.3304   -0.0919   -1.1053 C   0  0  2  0  0  0  0  0  0  0  0  0
    2.4310   -1.1220   -1.5169 H   0  0  0  0  0  0  0  0  0  0  0  0
    2.2242    0.8937   -2.1401 N   0  0  0  0  0  0  0  0  0  0  0  0
    2.3954    0.5310   -3.4594 C   0  0  0  0  0  0  0  0  0  0  0  0
    2.5121   -0.6283   -3.8025 O   0  0  0  0  0  0  0  0  0  0  0  0
    2.3665    1.6751   -4.4628 C   0  0  0  0  0  0  0  0  0  0  0  0
    3.7629    2.1509   -4.7183 C   0  0  0  0  0  0  0  0  0  0  0  0
    4.4049    1.8244   -5.9150 C   0  0  0  0  0  0  0  0  0  0  0  0
    5.6999    2.2774   -6.1582 C   0  0  0  0  0  0  0  0  0  0  0  0
    6.3598    3.0520   -5.2060 C   0  0  0  0  0  0  0  0  0  0  0  0
    5.7246    3.3658   -4.0052 C   0  0  0  0  0  0  0  0  0  0  0  0
    4.4285    2.9206   -3.7612 C   0  0  0  0  0  0  0  0  0  0  0  0
    4.3995    2.3490    3.2660 H   0  0  0  0  0  0  0  0  0  0  0  0
    2.8590    2.9364    3.8512 H   0  0  0  0  0  0  0  0  0  0  0  0
    3.7929    3.9278    2.7160 H   0  0  0  0  0  0  0  0  0  0  0  0
    1.0213    2.6113    0.5372 H   0  0  0  0  0  0  0  0  0  0  0  0
    2.0100    4.0366    0.8439 H   0  0  0  0  0  0  0  0  0  0  0  0
    0.9624    3.3927    2.1160 H   0  0  0  0  0  0  0  0  0  0  0  0
    2.2498    1.8821   -1.8534 H   0  0  0  0  0  0  0  0  0  0  0  0
    1.7239    2.5090   -4.1123 H   0  0  0  0  0  0  0  0  0  0  0  0
    1.8875    1.3032   -5.3943 H   0  0  0  0  0  0  0  0  0  0  0  0
    3.9003    1.2050   -6.6528 H   0  0  0  0  0  0  0  0  0  0  0  0
    6.1979    2.0216   -7.0891 H   0  0  0  0  0  0  0  0  0  0  0  0
    7.3685    3.4042   -5.3964 H   0  0  0  0  0  0  0  0  0  0  0  0
    6.2437    3.9522   -3.2494 H   0  0  0  0  0  0  0  0  0  0  0  0
    3.9448    3.1628   -2.8047 H   0  0  0  0  0  0  0  0  0  0  0  0
  1  2  2  0  0  0  0
  2  3  1  0  0  0  0
  3  4  1  0  0  0  0
  4  5  1  1  0  0  0
  4  6  1  0  0  0  0
  6  7  1  0  0  0  0
  8  6  2  0  0  0  0
  9  4  1  0  0  0  0
  9 10  1  0  0  0  0
 10 28  1  0  0  0  0
 10 29  1  0  0  0  0
 11  9  1  0  0  0  0
 11 33  1  0  0  0  0
 12 14  1  0  0  0  0
 12  9  1  0  0  0  0
 12 13  2  6  0  0  0
 14 16  1  0  0  0  0
 14 15  1  1  0  0  0
 14  3  1  0  0  0  0
 16 17  1  6  0  0  0
 16  2  1  0  0  0  0
 18 34  1  0  0  0  0
 18 16  1  0  0  0  0
 19 18  1  0  0  0  0
 20 19  2  0  0  0  0
 21 35  1  0  0  0  0
 21 19  1  0  0  0  0
 22 21  1  0  0  0  0
 22 27  2  0  0  0  0
 23 22  1  0  0  0  0
 24 23  2  0  0  0  0
 24 25  1  0  0  0  0
 25 26  2  0  0  0  0
 26 27  1  0  0  0  0
 26 40  1  0  0  0  0
 27 41  1  0  0  0  0
 30 10  1  0  0  0  0
 31 11  1  0  0  0  0
 32 11  1  0  0  0  0
 36 21  1  0  0  0  0
 37 23  1  0  0  0  0
 38 24  1  0  0  0  0
 39 25  1  0  0  0  0
M  RAD  1   7   2
M  END
$$$$
