rmsd35.gzmat
 OpenBabel08211713363D

 41 43  0  0  1  0  0  0  0  0999 V2000
    0.0000    0.0000    0.0000 O   0  0  0  0  0  0  0  0  0  0  0  0
    1.1897    0.0000    0.0000 C   0  0  0  0  0  0  0  0  0  0  0  0
    2.1570    0.0000    1.0308 N   0  0  0  0  0  0  0  0  0  0  0  0
    2.2377    0.7985    2.2359 C   0  0  1  0  0  0  0  0  0  0  0  0
    1.2652    0.8288    2.7645 H   0  0  0  0  0  0  0  0  0  0  0  0
    3.3161    0.0673    3.2025 C   0  0  0  0  0  0  0  0  0  0  0  0
    2.9063   -0.1474    4.3351 O   0  0  0  0  0  0  0  0  0  0  0  0
    4.4128   -0.1145    2.6692 O   0  0  0  0  0  0  0  0  0  0  0  0
    2.7679    2.2043    1.8670 C   0  0  0  0  0  0  0  0  0  0  0  0
    3.5358    2.8456    3.0097 C   0  0  0  0  0  0  0  0  0  0  0  0
    1.6279    3.1100    1.4188 C   0  0  0  0  0  0  0  0  0  0  0  0
    3.9554    1.9009    0.4251 S   0  0  2  0  0  0  0  0  0  0  0  0
    3.4085    2.7639   -0.6806 O   0  0  0  0  0  0  0  0  0  0  0  0
    3.3087    0.1867    0.1013 C   0  0  2  0  0  0  0  0  0  0  0  0
    4.1174   -0.5488    0.2695 H   0  0  0  0  0  0  0  0  0  0  0  0
    2.3354   -0.1019   -1.1027 C   0  0  2  0  0  0  0  0  0  0  0  0
    2.4333   -1.1387   -1.4976 H   0  0  0  0  0  0  0  0  0  0  0  0
    2.2533    0.8693   -2.1512 N   0  0  0  0  0  0  0  0  0  0  0  0
    2.2931    0.4849   -3.4728 C   0  0  0  0  0  0  0  0  0  0  0  0
    2.2943   -0.6792   -3.8172 O   0  0  0  0  0  0  0  0  0  0  0  0
    2.2981    1.6360   -4.4707 C   0  0  0  0  0  0  0  0  0  0  0  0
    3.7128    2.0259   -4.7650 C   0  0  0  0  0  0  0  0  0  0  0  0
    4.2904    1.6795   -5.9883 C   0  0  0  0  0  0  0  0  0  0  0  0
    5.6078    2.0398   -6.2653 C   0  0  0  0  0  0  0  0  0  0  0  0
    6.3538    2.7418   -5.3208 C   0  0  0  0  0  0  0  0  0  0  0  0
    5.7795    3.0809   -4.0963 C   0  0  0  0  0  0  0  0  0  0  0  0
    4.4620    2.7285   -3.8179 C   0  0  0  0  0  0  0  0  0  0  0  0
    4.4541    2.2887    3.2680 H   0  0  0  0  0  0  0  0  0  0  0  0
    2.9308    2.8360    3.9298 H   0  0  0  0  0  0  0  0  0  0  0  0
    3.8141    3.8826    2.8043 H   0  0  0  0  0  0  0  0  0  0  0  0
    0.9899    2.6359    0.6598 H   0  0  0  0  0  0  0  0  0  0  0  0
    1.9880    4.0499    0.9801 H   0  0  0  0  0  0  0  0  0  0  0  0
    0.9793    3.3670    2.2649 H   0  0  0  0  0  0  0  0  0  0  0  0
    2.3570    1.8620   -1.8864 H   0  0  0  0  0  0  0  0  0  0  0  0
    1.7202    2.5048   -4.0906 H   0  0  0  0  0  0  0  0  0  0  0  0
    1.7643    1.3042   -5.3865 H   0  0  0  0  0  0  0  0  0  0  0  0
    3.7171    1.1169   -6.7214 H   0  0  0  0  0  0  0  0  0  0  0  0
    6.0538    1.7677   -7.2175 H   0  0  0  0  0  0  0  0  0  0  0  0
    7.3811    3.0189   -5.5358 H   0  0  0  0  0  0  0  0  0  0  0  0
    6.3616    3.6172   -3.3495 H   0  0  0  0  0  0  0  0  0  0  0  0
    4.0262    2.9949   -2.8456 H   0  0  0  0  0  0  0  0  0  0  0  0
  1  2  2  0  0  0  0
  2  3  1  0  0  0  0
  3  4  1  0  0  0  0
  4  5  1  1  0  0  0
  4  6  1  0  0  0  0
  6  7  1  0  0  0  0
  8  6  2  0  0  0  0
  9  4  1  0  0  0  0
  9 10  1  0  0  0  0
 10 28  1  0  0  0  0
 10 29  1  0  0  0  0
 11  9  1  0  0  0  0
 11 33  1  0  0  0  0
 12 14  1  0  0  0  0
 12  9  1  0  0  0  0
 12 13  2  6  0  0  0
 14 16  1  0  0  0  0
 14 15  1  1  0  0  0
 14  3  1  0  0  0  0
 16 17  1  6  0  0  0
 16  2  1  0  0  0  0
 18 34  1  0  0  0  0
 18 16  1  0  0  0  0
 19 18  1  0  0  0  0
 20 19  2  0  0  0  0
 21 35  1  0  0  0  0
 21 19  1  0  0  0  0
 22 21  1  0  0  0  0
 22 27  2  0  0  0  0
 23 22  1  0  0  0  0
 24 23  2  0  0  0  0
 24 25  1  0  0  0  0
 25 26  2  0  0  0  0
 26 27  1  0  0  0  0
 26 40  1  0  0  0  0
 27 41  1  0  0  0  0
 30 10  1  0  0  0  0
 31 11  1  0  0  0  0
 32 11  1  0  0  0  0
 36 21  1  0  0  0  0
 37 23  1  0  0  0  0
 38 24  1  0  0  0  0
 39 25  1  0  0  0  0
M  RAD  1   7   2
M  END
$$$$
