41
rmsd114.gzmat
O         -0.08650        0.11760        0.11520
C          1.11200        0.00590        0.05270
N          2.11440        0.01780        1.01040
C          2.27960        0.73740        2.26510
H          1.32980        0.73230        2.81740
C          3.44650        0.08810        3.09010
O          3.21960       -0.22380        4.26180
O          4.51460        0.04360        2.41570
C          2.70160        2.18120        1.85250
C          3.54020        2.90770        2.90310
C          1.52190        3.03340        1.39740
S          3.84970        1.91250        0.31710
O          3.23900        2.80740       -0.79630
C          3.19480        0.14300        0.05780
H          4.05850       -0.51020        0.20780
C          2.17000       -0.12130       -1.09080
H          2.24660       -1.13610       -1.50880
N          2.09710        0.81190       -2.16790
C          2.31780        0.45500       -3.46160
O          2.40010       -0.69500       -3.86520
C          2.48460        1.65800       -4.39670
C          3.94780        1.96210       -4.63460
C          4.60360        1.44810       -5.76270
C          5.95210        1.73140       -5.99650
C          6.66360        2.53340       -5.09930
C          6.02470        3.02140       -3.95420
C          4.67850        2.73260       -3.71390
H          4.46590        2.35540        3.10850
H          2.96810        2.98370        3.84210
H          3.79230        3.92650        2.56400
H          0.82190        2.48080        0.75680
H          1.86770        3.91480        0.83790
H          0.96990        3.36960        2.29160
H          2.25910        1.78600       -1.87400
H          1.98050        2.53690       -3.96690
H          1.99300        1.40060       -5.34560
H          4.04440        0.82090       -6.46240
H          6.44870        1.32420       -6.88220
H          7.71290        2.77650       -5.29120
H          6.57930        3.62920       -3.23380
H          4.20460        3.07700       -2.78830
