rmsd163.gzmat
 OpenBabel08211713363D

 41 43  0  0  1  0  0  0  0  0999 V2000
    0.0000    0.0000    0.0000 O   0  0  0  0  0  0  0  0  0  0  0  0
    1.1897    0.0000    0.0000 C   0  0  0  0  0  0  0  0  0  0  0  0
    2.1557    0.0000    1.0349 N   0  0  0  0  0  0  0  0  0  0  0  0
    2.2193    0.8646    2.1959 C   0  0  1  0  0  0  0  0  0  0  0  0
    1.2371    0.9301    2.7027 H   0  0  0  0  0  0  0  0  0  0  0  0
    3.2733    0.1858    3.2242 C   0  0  0  0  0  0  0  0  0  0  0  0
    4.3811   -0.0226    2.7242 O   0  0  0  0  0  0  0  0  0  0  0  0
    2.8387    0.0304    4.3575 O   0  0  0  0  0  0  0  0  0  0  0  0
    2.7660    2.2408    1.7543 C   0  0  0  0  0  0  0  0  0  0  0  0
    3.4423    2.9730    2.9013 C   0  0  0  0  0  0  0  0  0  0  0  0
    1.6651    3.1051    1.1531 C   0  0  0  0  0  0  0  0  0  0  0  0
    4.0631    1.8250    0.4420 S   0  0  2  0  0  0  0  0  0  0  0  0
    3.7029    2.6666   -0.7505 O   0  0  0  0  0  0  0  0  0  0  0  0
    3.3146    0.1519    0.1036 C   0  0  2  0  0  0  0  0  0  0  0  0
    4.0840   -0.6255    0.2603 H   0  0  0  0  0  0  0  0  0  0  0  0
    2.3298   -0.0855   -1.1044 C   0  0  2  0  0  0  0  0  0  0  0  0
    2.4185   -1.1051   -1.5412 H   0  0  0  0  0  0  0  0  0  0  0  0
    2.2263    0.9295   -2.1109 N   0  0  0  0  0  0  0  0  0  0  0  0
    2.2419    0.5910   -3.4467 C   0  0  0  0  0  0  0  0  0  0  0  0
    2.2244   -0.5620   -3.8270 O   0  0  0  0  0  0  0  0  0  0  0  0
    2.2306    1.7708   -4.4088 C   0  0  0  0  0  0  0  0  0  0  0  0
    3.6372    2.0864   -4.8115 C   0  0  0  0  0  0  0  0  0  0  0  0
    4.0902    1.7507   -6.0888 C   0  0  0  0  0  0  0  0  0  0  0  0
    5.3993    2.0451   -6.4649 C   0  0  0  0  0  0  0  0  0  0  0  0
    6.2608    2.6716   -5.5666 C   0  0  0  0  0  0  0  0  0  0  0  0
    5.8099    3.0015   -4.2891 C   0  0  0  0  0  0  0  0  0  0  0  0
    4.5025    2.7110   -3.9097 C   0  0  0  0  0  0  0  0  0  0  0  0
    4.3355    2.4408    3.2750 H   0  0  0  0  0  0  0  0  0  0  0  0
    2.7657    3.0357    3.7675 H   0  0  0  0  0  0  0  0  0  0  0  0
    3.7399    3.9909    2.6364 H   0  0  0  0  0  0  0  0  0  0  0  0
    1.0783    2.5723    0.3931 H   0  0  0  0  0  0  0  0  0  0  0  0
    2.0614    4.0085    0.6705 H   0  0  0  0  0  0  0  0  0  0  0  0
    0.9587    3.4291    1.9275 H   0  0  0  0  0  0  0  0  0  0  0  0
    2.3602    1.9075   -1.8106 H   0  0  0  0  0  0  0  0  0  0  0  0
    1.7409    2.6603   -3.9606 H   0  0  0  0  0  0  0  0  0  0  0  0
    1.6021    1.4980   -5.2834 H   0  0  0  0  0  0  0  0  0  0  0  0
    3.4259    1.2455   -6.7863 H   0  0  0  0  0  0  0  0  0  0  0  0
    5.7480    1.7802   -7.4587 H   0  0  0  0  0  0  0  0  0  0  0  0
    7.2819    2.8963   -5.8593 H   0  0  0  0  0  0  0  0  0  0  0  0
    6.4809    3.4815   -3.5796 H   0  0  0  0  0  0  0  0  0  0  0  0
    4.1644    2.9605   -2.8942 H   0  0  0  0  0  0  0  0  0  0  0  0
  1  2  2  0  0  0  0
  2  3  1  0  0  0  0
  3  4  1  0  0  0  0
  4  5  1  1  0  0  0
  4  6  1  0  0  0  0
  6  8  1  0  0  0  0
  7  6  2  0  0  0  0
  9  4  1  0  0  0  0
  9 10  1  0  0  0  0
 10 28  1  0  0  0  0
 10 29  1  0  0  0  0
 11  9  1  0  0  0  0
 11 33  1  0  0  0  0
 12 14  1  0  0  0  0
 12  9  1  0  0  0  0
 12 13  2  6  0  0  0
 14 16  1  0  0  0  0
 14 15  1  1  0  0  0
 14  3  1  0  0  0  0
 16 17  1  6  0  0  0
 16  2  1  0  0  0  0
 18 34  1  0  0  0  0
 18 16  1  0  0  0  0
 19 18  1  0  0  0  0
 20 19  2  0  0  0  0
 21 35  1  0  0  0  0
 21 19  1  0  0  0  0
 22 21  1  0  0  0  0
 22 27  2  0  0  0  0
 23 22  1  0  0  0  0
 24 23  2  0  0  0  0
 24 25  1  0  0  0  0
 25 26  2  0  0  0  0
 26 27  1  0  0  0  0
 26 40  1  0  0  0  0
 27 41  1  0  0  0  0
 30 10  1  0  0  0  0
 31 11  1  0  0  0  0
 32 11  1  0  0  0  0
 36 21  1  0  0  0  0
 37 23  1  0  0  0  0
 38 24  1  0  0  0  0
 39 25  1  0  0  0  0
M  RAD  1   8   2
M  END
$$$$
