rmsd114.gzmat
 OpenBabel08211713363D

 41 43  0  0  1  0  0  0  0  0999 V2000
   -0.0865    0.1176    0.1152 O   0  0  0  0  0  0  0  0  0  0  0  0
    1.1120    0.0059    0.0527 C   0  0  0  0  0  0  0  0  0  0  0  0
    2.1144    0.0178    1.0104 N   0  0  0  0  0  0  0  0  0  0  0  0
    2.2796    0.7374    2.2651 C   0  0  1  0  0  0  0  0  0  0  0  0
    1.3298    0.7323    2.8174 H   0  0  0  0  0  0  0  0  0  0  0  0
    3.4465    0.0881    3.0901 C   0  0  0  0  0  0  0  0  0  0  0  0
    3.2196   -0.2238    4.2618 O   0  0  0  0  0  0  0  0  0  0  0  0
    4.5146    0.0436    2.4157 O   0  0  0  0  0  0  0  0  0  0  0  0
    2.7016    2.1812    1.8525 C   0  0  0  0  0  0  0  0  0  0  0  0
    3.5402    2.9077    2.9031 C   0  0  0  0  0  0  0  0  0  0  0  0
    1.5219    3.0334    1.3974 C   0  0  0  0  0  0  0  0  0  0  0  0
    3.8497    1.9125    0.3171 S   0  0  2  0  0  0  0  0  0  0  0  0
    3.2390    2.8074   -0.7963 O   0  0  0  0  0  0  0  0  0  0  0  0
    3.1948    0.1430    0.0578 C   0  0  2  0  0  0  0  0  0  0  0  0
    4.0585   -0.5102    0.2078 H   0  0  0  0  0  0  0  0  0  0  0  0
    2.1700   -0.1213   -1.0908 C   0  0  2  0  0  0  0  0  0  0  0  0
    2.2466   -1.1361   -1.5088 H   0  0  0  0  0  0  0  0  0  0  0  0
    2.0971    0.8119   -2.1679 N   0  0  0  0  0  0  0  0  0  0  0  0
    2.3178    0.4550   -3.4616 C   0  0  0  0  0  0  0  0  0  0  0  0
    2.4001   -0.6950   -3.8652 O   0  0  0  0  0  0  0  0  0  0  0  0
    2.4846    1.6580   -4.3967 C   0  0  0  0  0  0  0  0  0  0  0  0
    3.9478    1.9621   -4.6346 C   0  0  0  0  0  0  0  0  0  0  0  0
    4.6036    1.4481   -5.7627 C   0  0  0  0  0  0  0  0  0  0  0  0
    5.9521    1.7314   -5.9965 C   0  0  0  0  0  0  0  0  0  0  0  0
    6.6636    2.5334   -5.0993 C   0  0  0  0  0  0  0  0  0  0  0  0
    6.0247    3.0214   -3.9542 C   0  0  0  0  0  0  0  0  0  0  0  0
    4.6785    2.7326   -3.7139 C   0  0  0  0  0  0  0  0  0  0  0  0
    4.4659    2.3554    3.1085 H   0  0  0  0  0  0  0  0  0  0  0  0
    2.9681    2.9837    3.8421 H   0  0  0  0  0  0  0  0  0  0  0  0
    3.7923    3.9265    2.5640 H   0  0  0  0  0  0  0  0  0  0  0  0
    0.8219    2.4808    0.7568 H   0  0  0  0  0  0  0  0  0  0  0  0
    1.8677    3.9148    0.8379 H   0  0  0  0  0  0  0  0  0  0  0  0
    0.9699    3.3696    2.2916 H   0  0  0  0  0  0  0  0  0  0  0  0
    2.2591    1.7860   -1.8740 H   0  0  0  0  0  0  0  0  0  0  0  0
    1.9805    2.5369   -3.9669 H   0  0  0  0  0  0  0  0  0  0  0  0
    1.9930    1.4006   -5.3456 H   0  0  0  0  0  0  0  0  0  0  0  0
    4.0444    0.8209   -6.4624 H   0  0  0  0  0  0  0  0  0  0  0  0
    6.4487    1.3242   -6.8822 H   0  0  0  0  0  0  0  0  0  0  0  0
    7.7129    2.7765   -5.2912 H   0  0  0  0  0  0  0  0  0  0  0  0
    6.5793    3.6292   -3.2338 H   0  0  0  0  0  0  0  0  0  0  0  0
    4.2046    3.0770   -2.7883 H   0  0  0  0  0  0  0  0  0  0  0  0
  1  2  2  0  0  0  0
  2  3  1  0  0  0  0
  3  4  1  0  0  0  0
  4  5  1  1  0  0  0
  4  6  1  0  0  0  0
  6  7  1  0  0  0  0
  8  6  2  0  0  0  0
  9  4  1  0  0  0  0
  9 10  1  0  0  0  0
 10 28  1  0  0  0  0
 10 29  1  0  0  0  0
 11  9  1  0  0  0  0
 11 33  1  0  0  0  0
 12 14  1  0  0  0  0
 12  9  1  0  0  0  0
 12 13  2  6  0  0  0
 14 16  1  0  0  0  0
 14 15  1  1  0  0  0
 14  3  1  0  0  0  0
 16 17  1  6  0  0  0
 16  2  1  0  0  0  0
 18 34  1  0  0  0  0
 18 16  1  0  0  0  0
 19 18  1  0  0  0  0
 20 19  2  0  0  0  0
 21 35  1  0  0  0  0
 21 19  1  0  0  0  0
 22 21  1  0  0  0  0
 22 27  2  0  0  0  0
 23 22  1  0  0  0  0
 24 23  2  0  0  0  0
 24 25  1  0  0  0  0
 25 26  2  0  0  0  0
 26 27  1  0  0  0  0
 26 40  1  0  0  0  0
 27 41  1  0  0  0  0
 30 10  1  0  0  0  0
 31 11  1  0  0  0  0
 32 11  1  0  0  0  0
 36 21  1  0  0  0  0
 37 23  1  0  0  0  0
 38 24  1  0  0  0  0
 39 25  1  0  0  0  0
M  RAD  1   7   2
M  END
$$$$
