
     RDKit          3D

 42 43  0  0  0  0  0  0  0  0999 V2000
   -0.1287    0.0416    0.0380 N   0  0  0  0  0  0  0  0  0  0  0  0
    1.2632    0.0456    0.0730 C   0  0  0  0  0  0  0  0  0  0  0  0
    2.2948    0.0801    1.3540 S   0  0  0  0  0  0  0  0  0  0  0  0
    1.8962    0.0794   -1.5781 S   0  0  0  0  0  0  0  0  0  0  0  0
    0.2203   -0.0069   -2.3148 C   0  0  0  0  0  0  0  0  0  0  0  0
   -0.6876    0.5743   -1.2301 C   0  0  2  0  0  0  0  0  0  0  0  0
   -1.7084    0.1825   -1.3150 H   0  0  0  0  0  0  0  0  0  0  0  0
   -0.7378    2.1221   -1.2581 C   0  0  0  0  0  0  0  0  0  0  0  0
    0.2902    2.4759   -1.4525 H   0  0  0  0  0  0  0  0  0  0  0  0
   -1.6363    2.5846   -2.4100 C   0  0  0  0  0  0  0  0  0  0  0  0
   -1.1977    2.7326    0.0683 C   0  0  0  0  0  0  0  0  0  0  0  0
   -1.0547   -0.3789    1.0224 C   0  0  0  0  0  0  0  0  0  0  0  0
   -2.2349   -0.1534    0.8360 O   0  0  0  0  0  0  0  0  0  0  0  0
   -0.5641   -1.1637    2.2208 C   0  0  2  0  0  0  0  0  0  0  0  0
    0.2979   -0.6173    2.6273 H   0  0  0  0  0  0  0  0  0  0  0  0
   -0.0676   -2.5564    1.8016 C   0  0  0  0  0  0  0  0  0  0  0  0
   -1.6524   -1.1991    3.3179 C   0  0  2  0  0  0  0  0  0  0  0  0
   -1.9953   -0.1613    3.4655 H   0  0  0  0  0  0  0  0  0  0  0  0
   -1.1101   -1.7113    4.5681 N   0  0  0  0  0  0  0  0  0  0  0  0
   -1.5962   -2.9375    4.9535 C   0  0  0  0  0  0  0  0  0  0  0  0
   -1.2616   -3.5472    5.9498 O   0  0  0  0  0  0  0  0  0  0  0  0
   -2.6010   -3.3823    3.8953 C   0  0  0  0  0  0  0  0  0  0  0  0
   -2.8648   -2.1278    3.0551 C   0  0  0  0  0  0  0  0  0  0  0  0
   -0.1065   -1.0087    5.3283 C   0  0  0  0  0  0  0  0  0  0  0  0
    0.1976    0.5802   -3.2412 H   0  0  0  0  0  0  0  0  0  0  0  0
   -0.0248   -1.0542   -2.5446 H   0  0  0  0  0  0  0  0  0  0  0  0
   -1.3280    2.1661   -3.3810 H   0  0  0  0  0  0  0  0  0  0  0  0
   -1.6142    3.6808   -2.5037 H   0  0  0  0  0  0  0  0  0  0  0  0
   -2.6822    2.2844   -2.2310 H   0  0  0  0  0  0  0  0  0  0  0  0
   -2.2076    2.3894    0.3359 H   0  0  0  0  0  0  0  0  0  0  0  0
   -1.2128    3.8306   -0.0107 H   0  0  0  0  0  0  0  0  0  0  0  0
   -0.5184    2.4709    0.8930 H   0  0  0  0  0  0  0  0  0  0  0  0
    0.8044   -2.4875    1.1374 H   0  0  0  0  0  0  0  0  0  0  0  0
   -0.8538   -3.1284    1.2861 H   0  0  0  0  0  0  0  0  0  0  0  0
    0.2436   -3.1205    2.6927 H   0  0  0  0  0  0  0  0  0  0  0  0
   -2.1400   -4.1989    3.3162 H   0  0  0  0  0  0  0  0  0  0  0  0
   -3.4934   -3.7989    4.3829 H   0  0  0  0  0  0  0  0  0  0  0  0
   -3.0010   -2.3247    1.9857 H   0  0  0  0  0  0  0  0  0  0  0  0
   -3.7774   -1.6215    3.4011 H   0  0  0  0  0  0  0  0  0  0  0  0
    0.8534   -0.9399    4.7869 H   0  0  0  0  0  0  0  0  0  0  0  0
    0.0554   -1.5671    6.2602 H   0  0  0  0  0  0  0  0  0  0  0  0
   -0.4400    0.0159    5.5672 H   0  0  0  0  0  0  0  0  0  0  0  0
  1  2  1  0
  1  6  1  0
  1 12  1  0
  2  3  2  0
  2  4  1  0
  4  5  1  0
  5  6  1  0
  5 25  1  0
  5 26  1  0
  6  7  1  6
  6  8  1  0
  8  9  1  0
  8 10  1  0
  8 11  1  0
 10 27  1  0
 10 28  1  0
 10 29  1  0
 11 30  1  0
 11 31  1  0
 11 32  1  0
 12 13  2  0
 12 14  1  0
 14 15  1  1
 14 16  1  0
 14 17  1  0
 16 33  1  0
 16 34  1  0
 16 35  1  0
 17 18  1  1
 17 19  1  0
 17 23  1  0
 19 20  1  0
 19 24  1  0
 20 21  2  0
 20 22  1  0
 22 23  1  0
 22 36  1  0
 22 37  1  0
 23 38  1  0
 23 39  1  0
 24 40  1  0
 24 41  1  0
 24 42  1  0
M  END

