rmsd53.gzmat
 OpenBabel08211713403D

 42 43  0  0  1  0  0  0  0  0999 V2000
    0.0000    0.0000    0.0000 N   0  0  0  0  0  0  0  0  0  0  0  0
    1.3656    0.0000    0.0000 C   0  0  0  0  0  0  0  0  0  0  0  0
    2.4080    0.0000    1.2573 S   0  0  0  0  0  0  0  0  0  0  0  0
    2.0035   -0.0359   -1.6726 S   0  0  0  0  0  0  0  0  0  0  0  0
    0.3554   -0.1668   -2.4462 C   0  0  0  0  0  0  0  0  0  0  0  0
   -0.6843    0.0304   -1.3391 C   0  0  2  0  0  0  0  0  0  0  0  0
   -1.4164   -0.8287   -1.3601 H   0  0  0  0  0  0  0  0  0  0  0  0
   -1.4922    1.3522   -1.4721 C   0  0  0  0  0  0  0  0  0  0  0  0
   -2.1925    1.4044   -0.5965 H   0  0  0  0  0  0  0  0  0  0  0  0
   -0.6105    2.5999   -1.4607 C   0  0  0  0  0  0  0  0  0  0  0  0
   -2.3385    1.3020   -2.7470 C   0  0  0  0  0  0  0  0  0  0  0  0
   -0.8968   -0.1745    1.1155 C   0  0  0  0  0  0  0  0  0  0  0  0
   -1.9580   -0.6817    0.8485 O   0  0  0  0  0  0  0  0  0  0  0  0
   -0.5555    0.3453    2.4895 C   0  0  2  0  0  0  0  0  0  0  0  0
    0.4610   -0.0113    2.8133 H   0  0  0  0  0  0  0  0  0  0  0  0
   -1.5730   -0.2071    3.4868 C   0  0  0  0  0  0  0  0  0  0  0  0
   -0.5364    1.9015    2.4368 C   0  0  2  0  0  0  0  0  0  0  0  0
    0.2378    2.2264    1.6942 H   0  0  0  0  0  0  0  0  0  0  0  0
   -0.2097    2.4978    3.7353 N   0  0  0  0  0  0  0  0  0  0  0  0
   -1.2879    3.1222    4.3398 C   0  0  0  0  0  0  0  0  0  0  0  0
   -1.2648    3.5661    5.4631 O   0  0  0  0  0  0  0  0  0  0  0  0
   -2.4347    3.1993    3.3486 C   0  0  0  0  0  0  0  0  0  0  0  0
   -1.9252    2.5088    2.0739 C   0  0  0  0  0  0  0  0  0  0  0  0
    1.0168    2.1565    4.4372 C   0  0  0  0  0  0  0  0  0  0  0  0
    0.2559    0.5862   -3.2497 H   0  0  0  0  0  0  0  0  0  0  0  0
    0.2442   -1.1533   -2.9334 H   0  0  0  0  0  0  0  0  0  0  0  0
    0.0148    2.6515   -0.5615 H   0  0  0  0  0  0  0  0  0  0  0  0
   -1.2202    3.5117   -1.4843 H   0  0  0  0  0  0  0  0  0  0  0  0
    0.0602    2.6444   -2.3258 H   0  0  0  0  0  0  0  0  0  0  0  0
   -1.7257    1.3043   -3.6543 H   0  0  0  0  0  0  0  0  0  0  0  0
   -3.0023    2.1741   -2.8076 H   0  0  0  0  0  0  0  0  0  0  0  0
   -2.9770    0.4111   -2.7773 H   0  0  0  0  0  0  0  0  0  0  0  0
   -1.5312   -1.3037    3.5306 H   0  0  0  0  0  0  0  0  0  0  0  0
   -2.6048    0.0601    3.2230 H   0  0  0  0  0  0  0  0  0  0  0  0
   -1.3829    0.1731    4.4994 H   0  0  0  0  0  0  0  0  0  0  0  0
   -3.3313    2.7075    3.7663 H   0  0  0  0  0  0  0  0  0  0  0  0
   -2.7164    4.2530    3.1730 H   0  0  0  0  0  0  0  0  0  0  0  0
   -2.6315    1.7379    1.7228 H   0  0  0  0  0  0  0  0  0  0  0  0
   -1.8200    3.2310    1.2466 H   0  0  0  0  0  0  0  0  0  0  0  0
    1.0118    1.1154    4.8042 H   0  0  0  0  0  0  0  0  0  0  0  0
    1.1396    2.8242    5.3139 H   0  0  0  0  0  0  0  0  0  0  0  0
    1.8898    2.2977    3.7748 H   0  0  0  0  0  0  0  0  0  0  0  0
  1  2  1  0  0  0  0
  1 12  1  0  0  0  0
  2  3  2  0  0  0  0
  4  2  1  0  0  0  0
  5  4  1  0  0  0  0
  5  6  1  0  0  0  0
  6  7  1  6  0  0  0
  6  1  1  0  0  0  0
  8 10  1  0  0  0  0
  8  6  1  0  0  0  0
  8  9  1  0  0  0  0
 10 27  1  0  0  0  0
 11  8  1  0  0  0  0
 12 14  1  0  0  0  0
 13 12  2  0  0  0  0
 14 15  1  1  0  0  0
 14 16  1  0  0  0  0
 16 33  1  0  0  0  0
 16 35  1  0  0  0  0
 17 18  1  6  0  0  0
 17 14  1  0  0  0  0
 17 19  1  0  0  0  0
 19 20  1  0  0  0  0
 19 24  1  0  0  0  0
 20 21  2  0  0  0  0
 22 36  1  0  0  0  0
 22 20  1  0  0  0  0
 23 17  1  0  0  0  0
 23 22  1  0  0  0  0
 24 40  1  0  0  0  0
 24 41  1  0  0  0  0
 25  5  1  0  0  0  0
 26  5  1  0  0  0  0
 28 10  1  0  0  0  0
 29 10  1  0  0  0  0
 30 11  1  0  0  0  0
 31 11  1  0  0  0  0
 32 11  1  0  0  0  0
 34 16  1  0  0  0  0
 37 22  1  0  0  0  0
 38 23  1  0  0  0  0
 39 23  1  0  0  0  0
 42 24  1  0  0  0  0
M  END
$$$$
