rmsd61.gzmat
 OpenBabel08211713403D

 42 43  0  0  1  0  0  0  0  0999 V2000
    0.0000    0.0000    0.0000 N   0  0  0  0  0  0  0  0  0  0  0  0
    1.3737    0.0000    0.0000 C   0  0  0  0  0  0  0  0  0  0  0  0
    2.4200    0.0000    1.2460 S   0  0  0  0  0  0  0  0  0  0  0  0
    1.9928    0.0382   -1.6814 S   0  0  0  0  0  0  0  0  0  0  0  0
    0.3342    0.1712   -2.4348 C   0  0  0  0  0  0  0  0  0  0  0  0
   -0.6585    0.4058   -1.2909 C   0  0  2  0  0  0  0  0  0  0  0  0
   -1.5542   -0.2652   -1.4315 H   0  0  0  0  0  0  0  0  0  0  0  0
   -1.1777    1.8673   -1.1893 C   0  0  0  0  0  0  0  0  0  0  0  0
   -1.8222    1.9256   -0.2700 H   0  0  0  0  0  0  0  0  0  0  0  0
   -0.0665    2.9055   -1.0565 C   0  0  0  0  0  0  0  0  0  0  0  0
   -2.0613    2.1735   -2.4019 C   0  0  0  0  0  0  0  0  0  0  0  0
   -0.9053   -0.3033    1.0604 C   0  0  0  0  0  0  0  0  0  0  0  0
   -2.0739   -0.0896    0.8268 O   0  0  0  0  0  0  0  0  0  0  0  0
   -0.4512   -0.9173    2.3606 C   0  0  2  0  0  0  0  0  0  0  0  0
    0.4787   -0.4130    2.7397 H   0  0  0  0  0  0  0  0  0  0  0  0
   -0.1679   -2.3990    2.1344 C   0  0  0  0  0  0  0  0  0  0  0  0
   -1.5555   -0.6632    3.4325 C   0  0  2  0  0  0  0  0  0  0  0  0
   -1.7678    0.4377    3.4577 H   0  0  0  0  0  0  0  0  0  0  0  0
   -1.1242   -1.0849    4.7728 N   0  0  0  0  0  0  0  0  0  0  0  0
   -1.7931   -2.2129    5.2286 C   0  0  0  0  0  0  0  0  0  0  0  0
   -1.4966   -2.8020    6.2406 O   0  0  0  0  0  0  0  0  0  0  0  0
   -2.9504   -2.5156    4.2974 C   0  0  0  0  0  0  0  0  0  0  0  0
   -2.8716   -1.4564    3.1873 C   0  0  0  0  0  0  0  0  0  0  0  0
    0.1580   -0.6705    5.3225 C   0  0  0  0  0  0  0  0  0  0  0  0
    0.3179    0.9965   -3.1707 H   0  0  0  0  0  0  0  0  0  0  0  0
    0.0994   -0.7524   -2.9943 H   0  0  0  0  0  0  0  0  0  0  0  0
    0.5671    2.7151   -0.1822 H   0  0  0  0  0  0  0  0  0  0  0  0
   -0.4885    3.9105   -0.9282 H   0  0  0  0  0  0  0  0  0  0  0  0
    0.5833    2.9444   -1.9364 H   0  0  0  0  0  0  0  0  0  0  0  0
   -1.5030    2.1476   -3.3425 H   0  0  0  0  0  0  0  0  0  0  0  0
   -2.5007    3.1759   -2.3170 H   0  0  0  0  0  0  0  0  0  0  0  0
   -2.8958    1.4671   -2.4825 H   0  0  0  0  0  0  0  0  0  0  0  0
    0.6643   -2.5605    1.4380 H   0  0  0  0  0  0  0  0  0  0  0  0
   -1.0392   -2.9351    1.7391 H   0  0  0  0  0  0  0  0  0  0  0  0
    0.1106   -2.8887    3.0798 H   0  0  0  0  0  0  0  0  0  0  0  0
   -2.8620   -3.5443    3.9058 H   0  0  0  0  0  0  0  0  0  0  0  0
   -3.9075   -2.4811    4.8475 H   0  0  0  0  0  0  0  0  0  0  0  0
   -2.8981   -1.9081    2.1824 H   0  0  0  0  0  0  0  0  0  0  0  0
   -3.7362   -0.7710    3.2206 H   0  0  0  0  0  0  0  0  0  0  0  0
    1.0070   -1.1973    4.8510 H   0  0  0  0  0  0  0  0  0  0  0  0
    0.1834   -0.9032    6.4070 H   0  0  0  0  0  0  0  0  0  0  0  0
    0.2948    0.4172    5.2023 H   0  0  0  0  0  0  0  0  0  0  0  0
  1  2  1  0  0  0  0
  1 12  1  0  0  0  0
  2  3  2  0  0  0  0
  4  2  1  0  0  0  0
  5  4  1  0  0  0  0
  5  6  1  0  0  0  0
  6  7  1  6  0  0  0
  6  8  1  0  0  0  0
  6  1  1  0  0  0  0
  8 10  1  0  0  0  0
  8  9  1  0  0  0  0
 10 28  1  0  0  0  0
 10 27  1  0  0  0  0
 11 31  1  0  0  0  0
 11  8  1  0  0  0  0
 12 14  1  0  0  0  0
 13 12  2  0  0  0  0
 14 15  1  1  0  0  0
 14 17  1  0  0  0  0
 16 14  1  0  0  0  0
 16 35  1  0  0  0  0
 17 18  1  1  0  0  0
 17 19  1  0  0  0  0
 19 20  1  0  0  0  0
 19 24  1  0  0  0  0
 20 21  2  0  0  0  0
 22 37  1  0  0  0  0
 22 20  1  0  0  0  0
 23 39  1  0  0  0  0
 23 17  1  0  0  0  0
 23 22  1  0  0  0  0
 24 41  1  0  0  0  0
 25  5  1  0  0  0  0
 26  5  1  0  0  0  0
 29 10  1  0  0  0  0
 30 11  1  0  0  0  0
 32 11  1  0  0  0  0
 33 16  1  0  0  0  0
 34 16  1  0  0  0  0
 36 22  1  0  0  0  0
 38 23  1  0  0  0  0
 40 24  1  0  0  0  0
 42 24  1  0  0  0  0
M  END
$$$$
