
     RDKit          3D

 42 43  0  0  0  0  0  0  0  0999 V2000
   -0.1579    0.2838    0.1568 N   0  0  0  0  0  0  0  0  0  0  0  0
    1.1169    0.7950    0.3802 C   0  0  0  0  0  0  0  0  0  0  0  0
    1.7801    1.4142    1.7532 S   0  0  0  0  0  0  0  0  0  0  0  0
    2.0342    0.8073   -1.1257 S   0  0  0  0  0  0  0  0  0  0  0  0
    0.6693    0.0693   -2.0932 C   0  0  0  0  0  0  0  0  0  0  0  0
   -0.5986    0.3007   -1.2621 C   0  0  2  0  0  0  0  0  0  0  0  0
   -1.2815   -0.5490   -1.3847 H   0  0  0  0  0  0  0  0  0  0  0  0
   -1.4061    1.5743   -1.5997 C   0  0  0  0  0  0  0  0  0  0  0  0
   -2.2096    1.5950   -0.8472 H   0  0  0  0  0  0  0  0  0  0  0  0
   -0.6173    2.8823   -1.4931 C   0  0  0  0  0  0  0  0  0  0  0  0
   -2.0722    1.4293   -2.9717 C   0  0  0  0  0  0  0  0  0  0  0  0
   -1.1025   -0.1958    1.0911 C   0  0  0  0  0  0  0  0  0  0  0  0
   -2.2417   -0.3902    0.7119 O   0  0  0  0  0  0  0  0  0  0  0  0
   -0.6812   -0.5953    2.4945 C   0  0  2  0  0  0  0  0  0  0  0  0
    0.3814   -0.3887    2.6498 H   0  0  0  0  0  0  0  0  0  0  0  0
   -0.9445   -2.1061    2.6135 C   0  0  0  0  0  0  0  0  0  0  0  0
   -1.4962    0.2060    3.5474 C   0  0  2  0  0  0  0  0  0  0  0  0
   -2.5545   -0.0793    3.4189 H   0  0  0  0  0  0  0  0  0  0  0  0
   -1.3676    1.6517    3.4287 N   0  0  0  0  0  0  0  0  0  0  0  0
   -0.5283    2.2244    4.3543 C   0  0  0  0  0  0  0  0  0  0  0  0
   -0.2483    3.4042    4.4122 O   0  0  0  0  0  0  0  0  0  0  0  0
   -0.0315    1.1059    5.2620 C   0  0  0  0  0  0  0  0  0  0  0  0
   -1.0084   -0.0423    4.9944 C   0  0  0  0  0  0  0  0  0  0  0  0
   -1.9482    2.4382    2.3682 C   0  0  0  0  0  0  0  0  0  0  0  0
    0.6129    0.5573   -3.0747 H   0  0  0  0  0  0  0  0  0  0  0  0
    0.8683   -1.0016   -2.2436 H   0  0  0  0  0  0  0  0  0  0  0  0
   -0.1574    3.0150   -0.5030 H   0  0  0  0  0  0  0  0  0  0  0  0
   -1.2916    3.7367   -1.6602 H   0  0  0  0  0  0  0  0  0  0  0  0
    0.1862    2.9428   -2.2439 H   0  0  0  0  0  0  0  0  0  0  0  0
   -1.3313    1.4101   -3.7885 H   0  0  0  0  0  0  0  0  0  0  0  0
   -2.7430    2.2803   -3.1641 H   0  0  0  0  0  0  0  0  0  0  0  0
   -2.6724    0.5077   -3.0352 H   0  0  0  0  0  0  0  0  0  0  0  0
   -0.3763   -2.6626    1.8522 H   0  0  0  0  0  0  0  0  0  0  0  0
   -2.0122   -2.3261    2.4687 H   0  0  0  0  0  0  0  0  0  0  0  0
   -0.6344   -2.4826    3.5981 H   0  0  0  0  0  0  0  0  0  0  0  0
    0.9984    0.8618    4.9527 H   0  0  0  0  0  0  0  0  0  0  0  0
    0.0062    1.4440    6.3063 H   0  0  0  0  0  0  0  0  0  0  0  0
   -0.5641   -1.0369    5.1265 H   0  0  0  0  0  0  0  0  0  0  0  0
   -1.8686    0.0271    5.6775 H   0  0  0  0  0  0  0  0  0  0  0  0
   -1.3170    2.4456    1.4635 H   0  0  0  0  0  0  0  0  0  0  0  0
   -2.0295    3.4758    2.7201 H   0  0  0  0  0  0  0  0  0  0  0  0
   -2.9404    2.0470    2.1004 H   0  0  0  0  0  0  0  0  0  0  0  0
  1  2  1  0
  1  6  1  0
  1 12  1  0
  2  3  2  0
  2  4  1  0
  4  5  1  0
  5  6  1  0
  5 25  1  0
  5 26  1  0
  6  7  1  1
  6  8  1  0
  8  9  1  0
  8 10  1  0
  8 11  1  0
 10 27  1  0
 10 28  1  0
 10 29  1  0
 11 30  1  0
 11 31  1  0
 11 32  1  0
 12 13  2  0
 12 14  1  0
 14 15  1  6
 14 16  1  0
 14 17  1  0
 16 33  1  0
 16 34  1  0
 16 35  1  0
 17 18  1  1
 17 19  1  0
 17 23  1  0
 19 20  1  0
 19 24  1  0
 20 21  2  0
 20 22  1  0
 22 23  1  0
 22 36  1  0
 22 37  1  0
 23 38  1  0
 23 39  1  0
 24 40  1  0
 24 41  1  0
 24 42  1  0
M  END

