42
rmsd14.gzmat
N          0.00000        0.00000        0.00000
C          1.37920        0.00000        0.00000
S          2.41360        0.00000        1.24690
S          1.97410        0.07140       -1.69540
C          0.29120        0.18910       -2.40740
C         -0.62420        0.57780       -1.23690
H         -1.64440        0.12390       -1.36750
C         -0.77370        2.12210       -1.11590
H          0.23690        2.59530       -1.15350
C         -1.61610        2.63580       -2.28900
C         -1.44750        2.51830        0.19900
C         -0.89920       -0.51690        0.97350
O         -2.07800       -0.35550        0.74920
C         -0.41750       -1.28540        2.18070
H          0.46940       -0.78360        2.65160
C         -0.02770       -2.69510        1.74660
C         -1.55240       -1.26340        3.25180
H         -1.86170       -0.19790        3.40790
N         -1.08010       -1.82740        4.52120
C         -1.69390       -3.01560        4.86810
O         -1.41070       -3.65420        5.85470
C         -2.75640       -3.34160        3.83500
C         -2.78780       -2.13380        2.88530
C         -0.04350       -1.18390        5.30850
H          0.27370        0.93600       -3.22030
H         -0.00690       -0.77390       -2.85800
H         -1.17890        2.38850       -3.26060
H         -1.70960        3.72900       -2.25040
H         -2.63390        2.22730       -2.26430
H         -2.40010        1.98870        0.34130
H         -1.66230        3.59270        0.22430
H         -0.81560        2.29570        1.06600
H          0.84520       -2.69780        1.08310
H         -0.84060       -3.21350        1.22430
H          0.23820       -3.30860        2.62160
H         -2.50400       -4.28160        3.31400
H         -3.72840       -3.51650        4.32840
H         -2.77860       -2.43400        1.82540
H         -3.71380       -1.54640        3.01260
H          0.89410       -1.07510        4.73530
H          0.18050       -1.79690        6.20610
H         -0.37140       -0.18660        5.65050
