rmsd14.gzmat
 OpenBabel08211713403D

 42 43  0  0  1  0  0  0  0  0999 V2000
    0.0000    0.0000    0.0000 N   0  0  0  0  0  0  0  0  0  0  0  0
    1.3792    0.0000    0.0000 C   0  0  0  0  0  0  0  0  0  0  0  0
    2.4136    0.0000    1.2469 S   0  0  0  0  0  0  0  0  0  0  0  0
    1.9741    0.0714   -1.6954 S   0  0  0  0  0  0  0  0  0  0  0  0
    0.2912    0.1891   -2.4074 C   0  0  0  0  0  0  0  0  0  0  0  0
   -0.6242    0.5778   -1.2369 C   0  0  2  0  0  0  0  0  0  0  0  0
   -1.6444    0.1239   -1.3675 H   0  0  0  0  0  0  0  0  0  0  0  0
   -0.7737    2.1221   -1.1159 C   0  0  0  0  0  0  0  0  0  0  0  0
    0.2369    2.5953   -1.1535 H   0  0  0  0  0  0  0  0  0  0  0  0
   -1.6161    2.6358   -2.2890 C   0  0  0  0  0  0  0  0  0  0  0  0
   -1.4475    2.5183    0.1990 C   0  0  0  0  0  0  0  0  0  0  0  0
   -0.8992   -0.5169    0.9735 C   0  0  0  0  0  0  0  0  0  0  0  0
   -2.0780   -0.3555    0.7492 O   0  0  0  0  0  0  0  0  0  0  0  0
   -0.4175   -1.2854    2.1807 C   0  0  2  0  0  0  0  0  0  0  0  0
    0.4694   -0.7836    2.6516 H   0  0  0  0  0  0  0  0  0  0  0  0
   -0.0277   -2.6951    1.7466 C   0  0  0  0  0  0  0  0  0  0  0  0
   -1.5524   -1.2634    3.2518 C   0  0  2  0  0  0  0  0  0  0  0  0
   -1.8617   -0.1979    3.4079 H   0  0  0  0  0  0  0  0  0  0  0  0
   -1.0801   -1.8274    4.5212 N   0  0  0  0  0  0  0  0  0  0  0  0
   -1.6939   -3.0156    4.8681 C   0  0  0  0  0  0  0  0  0  0  0  0
   -1.4107   -3.6542    5.8547 O   0  0  0  0  0  0  0  0  0  0  0  0
   -2.7564   -3.3416    3.8350 C   0  0  0  0  0  0  0  0  0  0  0  0
   -2.7878   -2.1338    2.8853 C   0  0  0  0  0  0  0  0  0  0  0  0
   -0.0435   -1.1839    5.3085 C   0  0  0  0  0  0  0  0  0  0  0  0
    0.2737    0.9360   -3.2203 H   0  0  0  0  0  0  0  0  0  0  0  0
   -0.0069   -0.7739   -2.8580 H   0  0  0  0  0  0  0  0  0  0  0  0
   -1.1789    2.3885   -3.2606 H   0  0  0  0  0  0  0  0  0  0  0  0
   -1.7096    3.7290   -2.2504 H   0  0  0  0  0  0  0  0  0  0  0  0
   -2.6339    2.2273   -2.2643 H   0  0  0  0  0  0  0  0  0  0  0  0
   -2.4001    1.9887    0.3413 H   0  0  0  0  0  0  0  0  0  0  0  0
   -1.6623    3.5927    0.2243 H   0  0  0  0  0  0  0  0  0  0  0  0
   -0.8156    2.2957    1.0660 H   0  0  0  0  0  0  0  0  0  0  0  0
    0.8452   -2.6978    1.0831 H   0  0  0  0  0  0  0  0  0  0  0  0
   -0.8406   -3.2135    1.2243 H   0  0  0  0  0  0  0  0  0  0  0  0
    0.2382   -3.3086    2.6216 H   0  0  0  0  0  0  0  0  0  0  0  0
   -2.5040   -4.2816    3.3140 H   0  0  0  0  0  0  0  0  0  0  0  0
   -3.7284   -3.5165    4.3284 H   0  0  0  0  0  0  0  0  0  0  0  0
   -2.7786   -2.4340    1.8254 H   0  0  0  0  0  0  0  0  0  0  0  0
   -3.7138   -1.5464    3.0126 H   0  0  0  0  0  0  0  0  0  0  0  0
    0.8941   -1.0751    4.7353 H   0  0  0  0  0  0  0  0  0  0  0  0
    0.1805   -1.7969    6.2061 H   0  0  0  0  0  0  0  0  0  0  0  0
   -0.3714   -0.1866    5.6505 H   0  0  0  0  0  0  0  0  0  0  0  0
  1  2  1  0  0  0  0
  1 12  1  0  0  0  0
  2  3  2  0  0  0  0
  4  2  1  0  0  0  0
  5  4  1  0  0  0  0
  5  6  1  0  0  0  0
  6  7  1  6  0  0  0
  6  8  1  0  0  0  0
  6  1  1  0  0  0  0
  8 11  1  0  0  0  0
  9  8  1  0  0  0  0
 10 29  1  0  0  0  0
 10 28  1  0  0  0  0
 10  8  1  0  0  0  0
 11 31  1  0  0  0  0
 11 30  1  0  0  0  0
 11 32  1  0  0  0  0
 12 14  1  0  0  0  0
 13 12  2  0  0  0  0
 14 15  1  1  0  0  0
 14 17  1  0  0  0  0
 16 14  1  0  0  0  0
 16 35  1  0  0  0  0
 17 18  1  1  0  0  0
 17 19  1  0  0  0  0
 19 20  1  0  0  0  0
 19 24  1  0  0  0  0
 20 21  2  0  0  0  0
 22 37  1  0  0  0  0
 22 20  1  0  0  0  0
 23 39  1  0  0  0  0
 23 17  1  0  0  0  0
 23 22  1  0  0  0  0
 24 42  1  0  0  0  0
 24 41  1  0  0  0  0
 25  5  1  0  0  0  0
 26  5  1  0  0  0  0
 27 10  1  0  0  0  0
 33 16  1  0  0  0  0
 34 16  1  0  0  0  0
 36 22  1  0  0  0  0
 38 23  1  0  0  0  0
 40 24  1  0  0  0  0
M  END
$$$$
