rmsd15.gzmat
 OpenBabel08211713403D

 42 43  0  0  1  0  0  0  0  0999 V2000
    0.0000    0.0000    0.0000 N   0  0  0  0  0  0  0  0  0  0  0  0
    1.3741    0.0000    0.0000 C   0  0  0  0  0  0  0  0  0  0  0  0
    2.4077    0.0000    1.2556 S   0  0  0  0  0  0  0  0  0  0  0  0
    1.9864    0.0500   -1.6844 S   0  0  0  0  0  0  0  0  0  0  0  0
    0.3239    0.2202   -2.4262 C   0  0  0  0  0  0  0  0  0  0  0  0
   -0.6560    0.4614   -1.2717 C   0  0  2  0  0  0  0  0  0  0  0  0
   -1.5743   -0.1760   -1.4206 H   0  0  0  0  0  0  0  0  0  0  0  0
   -1.1260    1.9370   -1.1361 C   0  0  0  0  0  0  0  0  0  0  0  0
   -1.7562    1.9978   -0.2067 H   0  0  0  0  0  0  0  0  0  0  0  0
    0.0176    2.9394   -0.9997 C   0  0  0  0  0  0  0  0  0  0  0  0
   -2.0125    2.2933   -2.3334 C   0  0  0  0  0  0  0  0  0  0  0  0
   -0.8982   -0.3471    1.0527 C   0  0  0  0  0  0  0  0  0  0  0  0
   -2.0539   -0.0317    0.8830 O   0  0  0  0  0  0  0  0  0  0  0  0
   -0.4522   -1.1423    2.2552 C   0  0  2  0  0  0  0  0  0  0  0  0
    0.4651   -0.6860    2.7168 H   0  0  0  0  0  0  0  0  0  0  0  0
   -0.1454   -2.5738    1.8263 C   0  0  0  0  0  0  0  0  0  0  0  0
   -1.5763   -1.0596    3.3347 C   0  0  2  0  0  0  0  0  0  0  0  0
   -1.8036    0.0231    3.5173 H   0  0  0  0  0  0  0  0  0  0  0  0
   -1.1545   -1.6783    4.5968 N   0  0  0  0  0  0  0  0  0  0  0  0
   -1.8374   -2.8435    4.8986 C   0  0  0  0  0  0  0  0  0  0  0  0
   -1.5676   -3.5544    5.8381 O   0  0  0  0  0  0  0  0  0  0  0  0
   -2.9699   -3.0235    3.9057 C   0  0  0  0  0  0  0  0  0  0  0  0
   -2.8763   -1.8230    2.9509 C   0  0  0  0  0  0  0  0  0  0  0  0
    0.0360   -1.2385    5.3050 C   0  0  0  0  0  0  0  0  0  0  0  0
    0.3173    1.0538   -3.1526 H   0  0  0  0  0  0  0  0  0  0  0  0
    0.0685   -0.6926   -2.9939 H   0  0  0  0  0  0  0  0  0  0  0  0
    0.6432    2.7270   -0.1243 H   0  0  0  0  0  0  0  0  0  0  0  0
   -0.3706    3.9579   -0.8688 H   0  0  0  0  0  0  0  0  0  0  0  0
    0.6687    2.9599   -1.8793 H   0  0  0  0  0  0  0  0  0  0  0  0
   -1.4555    2.3029   -3.2753 H   0  0  0  0  0  0  0  0  0  0  0  0
   -2.4478    3.2935   -2.2080 H   0  0  0  0  0  0  0  0  0  0  0  0
   -2.8499    1.5941   -2.4417 H   0  0  0  0  0  0  0  0  0  0  0  0
    0.7411   -2.6349    1.1832 H   0  0  0  0  0  0  0  0  0  0  0  0
   -0.9794   -3.0375    1.2861 H   0  0  0  0  0  0  0  0  0  0  0  0
    0.0597   -3.2045    2.7052 H   0  0  0  0  0  0  0  0  0  0  0  0
   -2.8694   -3.9892    3.3812 H   0  0  0  0  0  0  0  0  0  0  0  0
   -3.9379   -3.0645    4.4366 H   0  0  0  0  0  0  0  0  0  0  0  0
   -2.8713   -2.1339    1.8941 H   0  0  0  0  0  0  0  0  0  0  0  0
   -3.7502   -1.1560    3.0532 H   0  0  0  0  0  0  0  0  0  0  0  0
    0.9621   -1.4905    4.7580 H   0  0  0  0  0  0  0  0  0  0  0  0
    0.0849   -1.7386    6.2943 H   0  0  0  0  0  0  0  0  0  0  0  0
    0.0040   -0.1482    5.4745 H   0  0  0  0  0  0  0  0  0  0  0  0
  1  2  1  0  0  0  0
  1 12  1  0  0  0  0
  2  3  2  0  0  0  0
  4  2  1  0  0  0  0
  5  4  1  0  0  0  0
  5  6  1  0  0  0  0
  6  7  1  6  0  0  0
  6  8  1  0  0  0  0
  6  1  1  0  0  0  0
  8 10  1  0  0  0  0
  8  9  1  0  0  0  0
 10 28  1  0  0  0  0
 10 27  1  0  0  0  0
 11 31  1  0  0  0  0
 11  8  1  0  0  0  0
 12 14  1  0  0  0  0
 13 12  2  0  0  0  0
 14 15  1  1  0  0  0
 14 17  1  0  0  0  0
 16 14  1  0  0  0  0
 16 35  1  0  0  0  0
 17 18  1  1  0  0  0
 17 19  1  0  0  0  0
 19 20  1  0  0  0  0
 19 24  1  0  0  0  0
 20 21  2  0  0  0  0
 22 37  1  0  0  0  0
 22 20  1  0  0  0  0
 23 39  1  0  0  0  0
 23 17  1  0  0  0  0
 23 22  1  0  0  0  0
 24 42  1  0  0  0  0
 24 41  1  0  0  0  0
 25  5  1  0  0  0  0
 26  5  1  0  0  0  0
 29 10  1  0  0  0  0
 30 11  1  0  0  0  0
 32 11  1  0  0  0  0
 33 16  1  0  0  0  0
 34 16  1  0  0  0  0
 36 22  1  0  0  0  0
 38 23  1  0  0  0  0
 40 24  1  0  0  0  0
M  END
$$$$
