42

N         -0.13970       -0.03170       -0.03710
C          1.25020       -0.07280       -0.02260
S          2.30750       -0.16720        1.23870
S          1.87920        0.05610       -1.66340
C          0.21500        0.10590       -2.41660
C         -0.73650        0.51270       -1.28600
H         -1.70070        0.00610       -1.41630
C         -1.03920        2.02440       -1.16940
H         -1.68540        2.10570       -0.28180
C          0.19040        2.90890       -0.94600
C         -1.86210        2.49480       -2.37310
C         -1.06110       -0.36550        0.98830
O         -2.22460       -0.04900        0.83010
C         -0.60070       -1.16900        2.18510
H          0.30630       -0.67920        2.56590
C         -0.20790       -2.59650        1.77260
C         -1.66590       -1.11910        3.30380
H         -1.93430       -0.05900        3.44720
N         -1.13410       -1.65560        4.54840
C         -1.69480       -2.84180        4.95650
O         -1.38170       -3.46400        5.95220
C         -2.74950       -3.22650        3.92370
C         -2.94420       -1.96500        3.07520
C         -0.06700       -1.01800        5.27880
H          0.20830        0.83030       -3.24100
H         -0.02950       -0.88760       -2.81920
H          0.76530        2.60440       -0.05900
H         -0.12630        3.95230       -0.79170
H          0.87380        2.89440       -1.80950
H         -1.27760        2.46920       -3.30800
H         -2.19260        3.53450       -2.22800
H         -2.76120        1.87460       -2.51700
H          0.65580       -2.59220        1.09430
H         -1.03990       -3.11880        1.27640
H          0.07950       -3.17140        2.66470
H         -2.35750       -4.07830        3.34440
H         -3.65790       -3.57630        4.43350
H         -3.11520       -2.16280        2.01090
H         -3.81290       -1.39420        3.43330
H          0.88320       -1.02320        4.71630
H          0.07540       -1.57670        6.21370
H         -0.32190        0.03020        5.51240
