
     RDKit          3D

 42 43  0  0  0  0  0  0  0  0999 V2000
   -0.1397   -0.0317   -0.0371 N   0  0  0  0  0  0  0  0  0  0  0  0
    1.2502   -0.0728   -0.0226 C   0  0  0  0  0  0  0  0  0  0  0  0
    2.3075   -0.1672    1.2387 S   0  0  0  0  0  0  0  0  0  0  0  0
    1.8792    0.0561   -1.6634 S   0  0  0  0  0  0  0  0  0  0  0  0
    0.2150    0.1059   -2.4166 C   0  0  0  0  0  0  0  0  0  0  0  0
   -0.7365    0.5127   -1.2860 C   0  0  2  0  0  0  0  0  0  0  0  0
   -1.7007    0.0061   -1.4163 H   0  0  0  0  0  0  0  0  0  0  0  0
   -1.0392    2.0244   -1.1694 C   0  0  0  0  0  0  0  0  0  0  0  0
   -1.6854    2.1057   -0.2818 H   0  0  0  0  0  0  0  0  0  0  0  0
    0.1904    2.9089   -0.9460 C   0  0  0  0  0  0  0  0  0  0  0  0
   -1.8621    2.4948   -2.3731 C   0  0  0  0  0  0  0  0  0  0  0  0
   -1.0611   -0.3655    0.9883 C   0  0  0  0  0  0  0  0  0  0  0  0
   -2.2246   -0.0490    0.8301 O   0  0  0  0  0  0  0  0  0  0  0  0
   -0.6007   -1.1690    2.1851 C   0  0  2  0  0  0  0  0  0  0  0  0
    0.3063   -0.6792    2.5659 H   0  0  0  0  0  0  0  0  0  0  0  0
   -0.2079   -2.5965    1.7726 C   0  0  0  0  0  0  0  0  0  0  0  0
   -1.6659   -1.1191    3.3038 C   0  0  2  0  0  0  0  0  0  0  0  0
   -1.9343   -0.0590    3.4472 H   0  0  0  0  0  0  0  0  0  0  0  0
   -1.1341   -1.6556    4.5484 N   0  0  0  0  0  0  0  0  0  0  0  0
   -1.6948   -2.8418    4.9565 C   0  0  0  0  0  0  0  0  0  0  0  0
   -1.3817   -3.4640    5.9522 O   0  0  0  0  0  0  0  0  0  0  0  0
   -2.7495   -3.2265    3.9237 C   0  0  0  0  0  0  0  0  0  0  0  0
   -2.9442   -1.9650    3.0752 C   0  0  0  0  0  0  0  0  0  0  0  0
   -0.0670   -1.0180    5.2788 C   0  0  0  0  0  0  0  0  0  0  0  0
    0.2083    0.8303   -3.2410 H   0  0  0  0  0  0  0  0  0  0  0  0
   -0.0295   -0.8876   -2.8192 H   0  0  0  0  0  0  0  0  0  0  0  0
    0.7653    2.6044   -0.0590 H   0  0  0  0  0  0  0  0  0  0  0  0
   -0.1263    3.9523   -0.7917 H   0  0  0  0  0  0  0  0  0  0  0  0
    0.8738    2.8944   -1.8095 H   0  0  0  0  0  0  0  0  0  0  0  0
   -1.2776    2.4692   -3.3080 H   0  0  0  0  0  0  0  0  0  0  0  0
   -2.1926    3.5345   -2.2280 H   0  0  0  0  0  0  0  0  0  0  0  0
   -2.7612    1.8746   -2.5170 H   0  0  0  0  0  0  0  0  0  0  0  0
    0.6558   -2.5922    1.0943 H   0  0  0  0  0  0  0  0  0  0  0  0
   -1.0399   -3.1188    1.2764 H   0  0  0  0  0  0  0  0  0  0  0  0
    0.0795   -3.1714    2.6647 H   0  0  0  0  0  0  0  0  0  0  0  0
   -2.3575   -4.0783    3.3444 H   0  0  0  0  0  0  0  0  0  0  0  0
   -3.6579   -3.5763    4.4335 H   0  0  0  0  0  0  0  0  0  0  0  0
   -3.1152   -2.1628    2.0109 H   0  0  0  0  0  0  0  0  0  0  0  0
   -3.8129   -1.3942    3.4333 H   0  0  0  0  0  0  0  0  0  0  0  0
    0.8832   -1.0232    4.7163 H   0  0  0  0  0  0  0  0  0  0  0  0
    0.0754   -1.5767    6.2137 H   0  0  0  0  0  0  0  0  0  0  0  0
   -0.3219    0.0302    5.5124 H   0  0  0  0  0  0  0  0  0  0  0  0
  1  2  1  0
  1  6  1  0
  1 12  1  0
  2  3  2  0
  2  4  1  0
  4  5  1  0
  5  6  1  0
  5 25  1  0
  5 26  1  0
  6  7  1  6
  6  8  1  0
  8  9  1  0
  8 10  1  0
  8 11  1  0
 10 27  1  0
 10 28  1  0
 10 29  1  0
 11 30  1  0
 11 31  1  0
 11 32  1  0
 12 13  2  0
 12 14  1  0
 14 15  1  1
 14 16  1  0
 14 17  1  0
 16 33  1  0
 16 34  1  0
 16 35  1  0
 17 18  1  1
 17 19  1  0
 17 23  1  0
 19 20  1  0
 19 24  1  0
 20 21  2  0
 20 22  1  0
 22 23  1  0
 22 36  1  0
 22 37  1  0
 23 38  1  0
 23 39  1  0
 24 40  1  0
 24 41  1  0
 24 42  1  0
M  END

