rmsd56.gzmat
 OpenBabel08211713403D

 42 43  0  0  1  0  0  0  0  0999 V2000
    0.0000    0.0000    0.0000 N   0  0  0  0  0  0  0  0  0  0  0  0
    1.3712    0.0000    0.0000 C   0  0  0  0  0  0  0  0  0  0  0  0
    2.4227    0.0000    1.2439 S   0  0  0  0  0  0  0  0  0  0  0  0
    2.0028    0.0170   -1.6767 S   0  0  0  0  0  0  0  0  0  0  0  0
    0.3486    0.0714   -2.4455 C   0  0  0  0  0  0  0  0  0  0  0  0
   -0.6608    0.3066   -1.3184 C   0  0  2  0  0  0  0  0  0  0  0  0
   -1.5220   -0.4145   -1.4369 H   0  0  0  0  0  0  0  0  0  0  0  0
   -1.2510    1.7444   -1.2850 C   0  0  0  0  0  0  0  0  0  0  0  0
   -1.9268    1.8022   -0.3897 H   0  0  0  0  0  0  0  0  0  0  0  0
   -0.1947    2.8398   -1.1554 C   0  0  0  0  0  0  0  0  0  0  0  0
   -2.1063    1.9664   -2.5358 C   0  0  0  0  0  0  0  0  0  0  0  0
   -0.9155   -0.2904    1.0602 C   0  0  0  0  0  0  0  0  0  0  0  0
   -2.0821   -0.3099    0.7373 O   0  0  0  0  0  0  0  0  0  0  0  0
   -0.4832   -0.5468    2.4822 C   0  0  2  0  0  0  0  0  0  0  0  0
    0.5406   -1.0010    2.5368 H   0  0  0  0  0  0  0  0  0  0  0  0
   -1.4607   -1.5457    3.1024 C   0  0  0  0  0  0  0  0  0  0  0  0
   -0.4548    0.8206    3.2319 C   0  0  2  0  0  0  0  0  0  0  0  0
    0.2803    1.4941    2.7197 H   0  0  0  0  0  0  0  0  0  0  0  0
   -0.0513    0.6678    4.6328 N   0  0  0  0  0  0  0  0  0  0  0  0
   -1.0769    0.8989    5.5321 C   0  0  0  0  0  0  0  0  0  0  0  0
   -0.9782    0.7182    6.7231 O   0  0  0  0  0  0  0  0  0  0  0  0
   -2.2758    1.4506    4.7843 C   0  0  0  0  0  0  0  0  0  0  0  0
   -1.8531    1.5026    3.3077 C   0  0  0  0  0  0  0  0  0  0  0  0
    1.2166    0.0600    5.0001 C   0  0  0  0  0  0  0  0  0  0  0  0
    0.3091    0.8712   -3.2079 H   0  0  0  0  0  0  0  0  0  0  0  0
    0.1482   -0.8759   -2.9787 H   0  0  0  0  0  0  0  0  0  0  0  0
    0.4338    2.6999   -0.2678 H   0  0  0  0  0  0  0  0  0  0  0  0
   -0.6693    3.8246   -1.0582 H   0  0  0  0  0  0  0  0  0  0  0  0
    0.4676    2.8898   -2.0258 H   0  0  0  0  0  0  0  0  0  0  0  0
   -1.5080    1.9907   -3.4522 H   0  0  0  0  0  0  0  0  0  0  0  0
   -2.6387    2.9244   -2.4766 H   0  0  0  0  0  0  0  0  0  0  0  0
   -2.8666    1.1846   -2.6510 H   0  0  0  0  0  0  0  0  0  0  0  0
   -1.4037   -2.5228    2.6077 H   0  0  0  0  0  0  0  0  0  0  0  0
   -2.5041   -1.2086    3.0280 H   0  0  0  0  0  0  0  0  0  0  0  0
   -1.2419   -1.6991    4.1678 H   0  0  0  0  0  0  0  0  0  0  0  0
   -3.1570    0.8050    4.9478 H   0  0  0  0  0  0  0  0  0  0  0  0
   -2.5457    2.4459    5.1802 H   0  0  0  0  0  0  0  0  0  0  0  0
   -2.5919    1.0003    2.6585 H   0  0  0  0  0  0  0  0  0  0  0  0
   -1.7908    2.5429    2.9478 H   0  0  0  0  0  0  0  0  0  0  0  0
    1.2691   -1.0026    4.7060 H   0  0  0  0  0  0  0  0  0  0  0  0
    1.3513    0.1163    6.0994 H   0  0  0  0  0  0  0  0  0  0  0  0
    2.0542    0.6028    4.5263 H   0  0  0  0  0  0  0  0  0  0  0  0
  1  2  1  0  0  0  0
  1 12  1  0  0  0  0
  2  3  2  0  0  0  0
  4  2  1  0  0  0  0
  5  4  1  0  0  0  0
  5  6  1  0  0  0  0
  6  7  1  6  0  0  0
  6  8  1  0  0  0  0
  6  1  1  0  0  0  0
  8 10  1  0  0  0  0
  8  9  1  0  0  0  0
 10 28  1  0  0  0  0
 10 27  1  0  0  0  0
 11 31  1  0  0  0  0
 11  8  1  0  0  0  0
 12 14  1  0  0  0  0
 13 12  2  0  0  0  0
 14 15  1  6  0  0  0
 14 16  1  0  0  0  0
 14 17  1  0  0  0  0
 16 35  1  0  0  0  0
 17 18  1  6  0  0  0
 17 23  1  0  0  0  0
 17 19  1  0  0  0  0
 19 24  1  0  0  0  0
 19 20  1  0  0  0  0
 20 21  2  0  0  0  0
 22 36  1  0  0  0  0
 22 37  1  0  0  0  0
 22 20  1  0  0  0  0
 23 22  1  0  0  0  0
 24 41  1  0  0  0  0
 25  5  1  0  0  0  0
 26  5  1  0  0  0  0
 29 10  1  0  0  0  0
 30 11  1  0  0  0  0
 32 11  1  0  0  0  0
 33 16  1  0  0  0  0
 34 16  1  0  0  0  0
 38 23  1  0  0  0  0
 39 23  1  0  0  0  0
 40 24  1  0  0  0  0
 42 24  1  0  0  0  0
M  END
$$$$
