rmsd49.gzmat
 OpenBabel08211713403D

 42 43  0  0  1  0  0  0  0  0999 V2000
    0.0000    0.0000    0.0000 N   0  0  0  0  0  0  0  0  0  0  0  0
    1.3725    0.0000    0.0000 C   0  0  0  0  0  0  0  0  0  0  0  0
    2.4304    0.0000    1.2361 S   0  0  0  0  0  0  0  0  0  0  0  0
    1.9991   -0.0100   -1.6804 S   0  0  0  0  0  0  0  0  0  0  0  0
    0.3432   -0.0056   -2.4470 C   0  0  0  0  0  0  0  0  0  0  0  0
   -0.6655    0.2591   -1.3257 C   0  0  2  0  0  0  0  0  0  0  0  0
   -1.5209   -0.4716   -1.4171 H   0  0  0  0  0  0  0  0  0  0  0  0
   -1.2627    1.6940   -1.3428 C   0  0  0  0  0  0  0  0  0  0  0  0
   -1.9067    1.7956   -0.4279 H   0  0  0  0  0  0  0  0  0  0  0  0
   -0.2072    2.7962   -1.3080 C   0  0  0  0  0  0  0  0  0  0  0  0
   -2.1662    1.8420   -2.5703 C   0  0  0  0  0  0  0  0  0  0  0  0
   -0.9079   -0.2347    1.0773 C   0  0  0  0  0  0  0  0  0  0  0  0
   -2.0782   -0.2854    0.7682 O   0  0  0  0  0  0  0  0  0  0  0  0
   -0.4538   -0.4627    2.4983 C   0  0  2  0  0  0  0  0  0  0  0  0
    0.4664    0.1257    2.7491 H   0  0  0  0  0  0  0  0  0  0  0  0
   -0.2009   -1.9639    2.6366 C   0  0  0  0  0  0  0  0  0  0  0  0
   -1.5767    0.0134    3.4682 C   0  0  2  0  0  0  0  0  0  0  0  0
   -2.5397   -0.4859    3.1973 H   0  0  0  0  0  0  0  0  0  0  0  0
   -1.7154    1.4754    3.4057 N   0  0  0  0  0  0  0  0  0  0  0  0
   -1.3853    2.1181    4.5877 C   0  0  0  0  0  0  0  0  0  0  0  0
   -1.4892    3.3098    4.7532 O   0  0  0  0  0  0  0  0  0  0  0  0
   -0.8774    1.0947    5.5837 C   0  0  0  0  0  0  0  0  0  0  0  0
   -1.1892   -0.2704    4.9524 C   0  0  0  0  0  0  0  0  0  0  0  0
   -2.4727    2.1352    2.3526 C   0  0  0  0  0  0  0  0  0  0  0  0
    0.2924    0.7659   -3.2378 H   0  0  0  0  0  0  0  0  0  0  0  0
    0.1540   -0.9741   -2.9443 H   0  0  0  0  0  0  0  0  0  0  0  0
    0.4559    2.7003   -0.4393 H   0  0  0  0  0  0  0  0  0  0  0  0
   -0.6773    3.7858   -1.2385 H   0  0  0  0  0  0  0  0  0  0  0  0
    0.4208    2.8051   -2.2046 H   0  0  0  0  0  0  0  0  0  0  0  0
   -1.6140    1.7395   -3.5095 H   0  0  0  0  0  0  0  0  0  0  0  0
   -2.6448    2.8295   -2.5843 H   0  0  0  0  0  0  0  0  0  0  0  0
   -2.9702    1.0960   -2.5699 H   0  0  0  0  0  0  0  0  0  0  0  0
    0.4491   -2.3480    1.8388 H   0  0  0  0  0  0  0  0  0  0  0  0
   -1.1347   -2.5395    2.6019 H   0  0  0  0  0  0  0  0  0  0  0  0
    0.3068   -2.2029    3.5801 H   0  0  0  0  0  0  0  0  0  0  0  0
    0.2039    1.2420    5.7608 H   0  0  0  0  0  0  0  0  0  0  0  0
   -1.3690    1.2334    6.5621 H   0  0  0  0  0  0  0  0  0  0  0  0
   -0.3281   -0.9518    5.0335 H   0  0  0  0  0  0  0  0  0  0  0  0
   -2.0249   -0.7680    5.4715 H   0  0  0  0  0  0  0  0  0  0  0  0
   -1.7956    2.4507    1.5372 H   0  0  0  0  0  0  0  0  0  0  0  0
   -2.9635    3.0476    2.7468 H   0  0  0  0  0  0  0  0  0  0  0  0
   -3.2488    1.4713    1.9322 H   0  0  0  0  0  0  0  0  0  0  0  0
  1  2  1  0  0  0  0
  1 12  1  0  0  0  0
  2  3  2  0  0  0  0
  4  2  1  0  0  0  0
  5  4  1  0  0  0  0
  5  6  1  0  0  0  0
  6  7  1  6  0  0  0
  6  1  1  0  0  0  0
  8  6  1  0  0  0  0
  8 10  1  0  0  0  0
  8  9  1  0  0  0  0
 10 28  1  0  0  0  0
 10 27  1  0  0  0  0
 11 32  1  0  0  0  0
 11  8  1  0  0  0  0
 12 14  1  0  0  0  0
 13 12  2  0  0  0  0
 14 16  1  0  0  0  0
 14 15  1  1  0  0  0
 14 17  1  0  0  0  0
 16 35  1  0  0  0  0
 17 18  1  6  0  0  0
 17 23  1  0  0  0  0
 19 17  1  0  0  0  0
 19 20  1  0  0  0  0
 20 21  2  0  0  0  0
 20 22  1  0  0  0  0
 22 36  1  0  0  0  0
 22 37  1  0  0  0  0
 23 38  1  0  0  0  0
 23 39  1  0  0  0  0
 23 22  1  0  0  0  0
 24 41  1  0  0  0  0
 24 19  1  0  0  0  0
 25  5  1  0  0  0  0
 26  5  1  0  0  0  0
 29 10  1  0  0  0  0
 30 11  1  0  0  0  0
 31 11  1  0  0  0  0
 33 16  1  0  0  0  0
 34 16  1  0  0  0  0
 40 24  1  0  0  0  0
 42 24  1  0  0  0  0
M  END
$$$$
