32
rmsd153.gzmat
Cl         0.00000        0.00000        0.00000
C          1.71150        0.00000        0.00000
C          2.37630        0.00000        1.21920
C          3.77070        0.00530        1.21420
C          4.45620        0.01050       -0.00090
C          5.93450        0.00240       -0.04510
O          6.58600       -0.83350       -0.60150
S          6.65650        1.44410        0.78550
C          8.33980        1.15680        0.68720
C          9.17160        0.48480        1.63380
S          8.67000       -0.18600        3.15950
C         10.16770       -1.01880        3.76290
N         10.46010        0.42810        1.20290
N         10.47710        1.04800       -0.01470
C          9.19680        1.51980       -0.37780
C          9.06070        2.18940       -1.61270
C         10.16590        2.34800       -2.41240
C         11.43150        1.84850       -2.01260
C         11.58610        1.19650       -0.80960
C          3.76640       -0.00320       -1.21590
C          2.37350       -0.00430       -1.22180
H          1.82820       -0.00390        2.16100
H          4.31460       -0.00050        2.16210
H         11.04200       -0.35320        3.76310
H         10.42510       -1.89020        3.14670
H          9.98910       -1.35610        4.79050
H          8.07740        2.56380       -1.90100
H         10.08640        2.86190       -3.37180
H         12.28940        1.98330       -2.67050
H         12.53220        0.78480       -0.44200
H          4.31860       -0.02050       -2.15790
H          1.82450       -0.01450       -2.16240
