32
rmsd177.gzmat
Cl         0.00000        0.00000        0.00000
C          1.71170        0.00000        0.00000
C          2.37520        0.00000        1.22040
C          3.76920        0.01160        1.21530
C          4.45370        0.01930       -0.00050
C          5.93330        0.03180       -0.01440
O          6.62580       -0.91260       -0.25470
S          6.56370        1.69230        0.34690
C          8.26330        1.49980        0.35970
C          9.11180        1.27470        1.48610
S          8.61190        1.12600        3.14690
C         10.16710        0.77860        4.01890
N         10.41540        1.18480        1.10920
N         10.42540        1.33730       -0.24850
C          9.12500        1.53510       -0.76150
C          8.97950        1.70530       -2.15510
C         10.09690        1.66880       -2.95290
C         11.38450        1.46530       -2.39440
C         11.54770        1.29920       -1.03760
C          3.76760        0.00720       -1.21600
C          2.37430        0.00210       -1.22130
H          1.82680       -0.00680        2.16190
H          4.31710        0.01480        2.16060
H         10.92090        1.55750        3.84310
H         10.60920       -0.17590        3.70540
H          9.96110        0.73140        5.09440
H          7.98020        1.85950       -2.56360
H         10.01010        1.79490       -4.03340
H         12.25230        1.43970       -3.05280
H         12.51020        1.13570       -0.54090
H          4.31750        0.00050       -2.15870
H          1.82500       -0.00210       -2.16210
