rmsd132.gzmat
 OpenBabel08211713413D

 32 34  0  0  0  0  0  0  0  0999 V2000
    0.0000    0.0000    0.0000 Cl  0  0  0  0  0  0  0  0  0  0  0  0
    1.7117    0.0000    0.0000 C   0  0  0  0  0  0  0  0  0  0  0  0
    2.3755    0.0000    1.2206 C   0  0  0  0  0  0  0  0  0  0  0  0
    3.7692   -0.0036    1.2152 C   0  0  0  0  0  0  0  0  0  0  0  0
    4.4542   -0.0033   -0.0008 C   0  0  0  0  0  0  0  0  0  0  0  0
    5.9339    0.0050    0.0046 C   0  0  0  0  0  0  0  0  0  0  0  0
    6.6148    0.9876   -0.0166 O   0  0  0  0  0  0  0  0  0  0  0  0
    6.5868   -1.6853    0.0281 S   0  0  0  0  0  0  0  0  0  0  0  0
    8.2691   -1.4772    0.2596 C   0  0  0  0  0  0  0  0  0  0  0  0
    8.9988   -1.6050    1.4806 C   0  0  0  0  0  0  0  0  0  0  0  0
    8.3446   -1.9908    3.0467 S   0  0  0  0  0  0  0  0  0  0  0  0
    9.8178   -2.0445    4.1085 C   0  0  0  0  0  0  0  0  0  0  0  0
   10.3262   -1.3830    1.2855 N   0  0  0  0  0  0  0  0  0  0  0  0
   10.4688   -1.1010   -0.0435 N   0  0  0  0  0  0  0  0  0  0  0  0
    9.2317   -1.1484   -0.7229 C   0  0  0  0  0  0  0  0  0  0  0  0
    9.2253   -0.8782   -2.1082 C   0  0  0  0  0  0  0  0  0  0  0  0
   10.4085   -0.5737   -2.7356 C   0  0  0  0  0  0  0  0  0  0  0  0
   11.6272   -0.5314   -2.0120 C   0  0  0  0  0  0  0  0  0  0  0  0
   11.6559   -0.7973   -0.6614 C   0  0  0  0  0  0  0  0  0  0  0  0
    3.7687    0.0014   -1.2158 C   0  0  0  0  0  0  0  0  0  0  0  0
    2.3744    0.0002   -1.2211 C   0  0  0  0  0  0  0  0  0  0  0  0
    1.8274    0.0028    2.1624 H   0  0  0  0  0  0  0  0  0  0  0  0
    4.3198   -0.0069    2.1587 H   0  0  0  0  0  0  0  0  0  0  0  0
   10.3910   -1.1081    4.0681 H   0  0  0  0  0  0  0  0  0  0  0  0
   10.5011   -2.8536    3.8195 H   0  0  0  0  0  0  0  0  0  0  0  0
    9.4952   -2.2104    5.1429 H   0  0  0  0  0  0  0  0  0  0  0  0
    8.2772   -0.9145   -2.6456 H   0  0  0  0  0  0  0  0  0  0  0  0
   10.4283   -0.3571   -3.8050 H   0  0  0  0  0  0  0  0  0  0  0  0
   12.5497   -0.2827   -2.5354 H   0  0  0  0  0  0  0  0  0  0  0  0
   12.5593   -0.7813   -0.0423 H   0  0  0  0  0  0  0  0  0  0  0  0
    4.3170    0.0075   -2.1589 H   0  0  0  0  0  0  0  0  0  0  0  0
    1.8254   -0.0003   -2.1621 H   0  0  0  0  0  0  0  0  0  0  0  0
  1  2  1  0  0  0  0
  2  3  2  0  0  0  0
  3 22  1  0  0  0  0
  4  3  1  0  0  0  0
  4 23  1  0  0  0  0
  5  6  1  0  0  0  0
  5  4  2  0  0  0  0
  6  8  1  0  0  0  0
  7  6  2  0  0  0  0
  8  9  1  0  0  0  0
  9 10  1  0  0  0  0
 10 11  1  0  0  0  0
 11 12  1  0  0  0  0
 12 26  1  0  0  0  0
 13 10  2  0  0  0  0
 14 13  1  0  0  0  0
 15 14  1  0  0  0  0
 15  9  2  0  0  0  0
 16 15  1  0  0  0  0
 17 16  2  0  0  0  0
 17 18  1  0  0  0  0
 18 19  2  0  0  0  0
 19 14  1  0  0  0  0
 19 30  1  0  0  0  0
 20  5  1  0  0  0  0
 21 20  2  0  0  0  0
 21  2  1  0  0  0  0
 24 12  1  0  0  0  0
 25 12  1  0  0  0  0
 27 16  1  0  0  0  0
 28 17  1  0  0  0  0
 29 18  1  0  0  0  0
 31 20  1  0  0  0  0
 32 21  1  0  0  0  0
M  END
$$$$
