32
rmsd168.gzmat
Cl         0.00000        0.00000        0.00000
C          1.71160        0.00000        0.00000
C          2.37410        0.00000        1.22170
C          3.76710        0.00060        1.21540
C          4.45550        0.00990        0.00020
C          5.93440        0.00940        0.03350
O          6.60270       -0.85630        0.51830
S          6.62000        1.51750       -0.70290
C          8.31000        1.25630       -0.67820
C          9.12180        0.68430       -1.70460
S          8.58170        0.09870       -3.25210
C         10.09760       -0.57760       -3.98930
N         10.42880        0.64170       -1.33120
N         10.47730        1.16980       -0.07220
C          9.19870        1.56480        0.37820
C          9.09390        2.12780        1.66820
C         10.22690        2.26320        2.43240
C         11.49120        1.84980        1.94050
C         11.61550        1.30260        0.68320
C          3.77000       -0.00120       -1.21510
C          2.37580       -0.00660       -1.21970
H          1.82540       -0.00520        2.16300
H          4.31950       -0.01380        2.15720
H         10.52080       -1.38890       -3.38170
H         10.87960        0.18490       -4.09920
H          9.85520       -0.97470       -4.98140
H          8.11180        2.43990        2.02600
H         10.17150        2.69240        3.43430
H         12.37230        1.96770        2.57020
H         12.55870        0.96240        0.24190
H          4.31460       -0.01270       -2.16250
H          1.82860       -0.01670       -2.16130
