32
rmsd127.gzmat
Cl         0.00000        0.00000        0.00000
C          1.71160        0.00000        0.00000
C          2.37460        0.00000        1.22070
C          3.76860        0.01030        1.21630
C          4.45420        0.02000        0.00110
C          5.93390        0.03870       -0.00870
O          6.63320       -0.91120       -0.20150
S          6.54710        1.71910        0.28100
C          8.24870        1.55320        0.31600
C          9.09110        1.39560        1.45850
S          8.57980        1.29390        3.11890
C         10.14160        1.12030        4.03010
N         10.40050        1.32670        1.09780
N         10.42090        1.42540       -0.26460
C          9.12100        1.56560       -0.79740
C          8.98530        1.67510       -2.19820
C         10.11190        1.64160       -2.98300
C         11.39910        1.50050       -2.40460
C         11.55260        1.39110       -1.04050
C          3.76890        0.00660       -1.21440
C          2.37490       -0.00110       -1.22070
H          1.82560       -0.00600        2.16170
H          4.31620        0.01000        2.16140
H         10.76150        2.02220        3.95570
H         10.74690        0.28090        3.66110
H          9.90800        0.94100        5.08530
H          7.98590        1.78130       -2.62240
H         10.03300        1.72140       -4.06870
H         12.27480        1.47700       -3.05240
H         12.51430        1.27640       -0.52850
H          4.31940        0.00100       -2.15660
H          1.82630       -0.00840       -2.16190
