rmsd169.gzmat
 OpenBabel08211713413D

 32 34  0  0  0  0  0  0  0  0999 V2000
    0.0000    0.0000    0.0000 Cl  0  0  0  0  0  0  0  0  0  0  0  0
    1.7117    0.0000    0.0000 C   0  0  0  0  0  0  0  0  0  0  0  0
    2.3754    0.0000    1.2197 C   0  0  0  0  0  0  0  0  0  0  0  0
    3.7695   -0.0124    1.2156 C   0  0  0  0  0  0  0  0  0  0  0  0
    4.4554   -0.0259    0.0008 C   0  0  0  0  0  0  0  0  0  0  0  0
    5.9339   -0.0527   -0.0257 C   0  0  0  0  0  0  0  0  0  0  0  0
    6.6257    0.8157   -0.4692 O   0  0  0  0  0  0  0  0  0  0  0  0
    6.5748   -1.6055    0.6593 S   0  0  0  0  0  0  0  0  0  0  0  0
    8.2696   -1.3776    0.6906 C   0  0  0  0  0  0  0  0  0  0  0  0
    9.0562   -0.8073    1.7376 C   0  0  0  0  0  0  0  0  0  0  0  0
    8.4697   -0.1997    3.2598 S   0  0  0  0  0  0  0  0  0  0  0  0
    9.9299    0.6010    3.9852 C   0  0  0  0  0  0  0  0  0  0  0  0
   10.3758   -0.7955    1.4102 N   0  0  0  0  0  0  0  0  0  0  0  0
   10.4581   -1.3433    0.1615 N   0  0  0  0  0  0  0  0  0  0  0  0
    9.1884   -1.7197   -0.3285 C   0  0  0  0  0  0  0  0  0  0  0  0
    9.1187   -2.3045   -1.6112 C   0  0  0  0  0  0  0  0  0  0  0  0
   10.2760   -2.4809   -2.3296 C   0  0  0  0  0  0  0  0  0  0  0  0
   11.5303   -2.0862   -1.7984 C   0  0  0  0  0  0  0  0  0  0  0  0
   11.6200   -1.5161   -0.5486 C   0  0  0  0  0  0  0  0  0  0  0  0
    3.7680   -0.0044   -1.2144 C   0  0  0  0  0  0  0  0  0  0  0  0
    2.3750    0.0038   -1.2211 C   0  0  0  0  0  0  0  0  0  0  0  0
    1.8274    0.0075    2.1613 H   0  0  0  0  0  0  0  0  0  0  0  0
    4.3144   -0.0089    2.1629 H   0  0  0  0  0  0  0  0  0  0  0  0
   10.1869    1.5292    3.4598 H   0  0  0  0  0  0  0  0  0  0  0  0
   10.8178   -0.0456    3.9561 H   0  0  0  0  0  0  0  0  0  0  0  0
    9.7112    0.8393    5.0324 H   0  0  0  0  0  0  0  0  0  0  0  0
    8.1437   -2.6018   -1.9996 H   0  0  0  0  0  0  0  0  0  0  0  0
   10.2476   -2.9288   -3.3243 H   0  0  0  0  0  0  0  0  0  0  0  0
   12.4315   -2.2371   -2.3917 H   0  0  0  0  0  0  0  0  0  0  0  0
   12.5537   -1.1881   -0.0790 H   0  0  0  0  0  0  0  0  0  0  0  0
    4.3203    0.0115   -2.1561 H   0  0  0  0  0  0  0  0  0  0  0  0
    1.8266    0.0149   -2.1625 H   0  0  0  0  0  0  0  0  0  0  0  0
  1  2  1  0  0  0  0
  2  3  2  0  0  0  0
  3 22  1  0  0  0  0
  4  3  1  0  0  0  0
  4 23  1  0  0  0  0
  5  4  2  0  0  0  0
  6  5  1  0  0  0  0
  6  8  1  0  0  0  0
  7  6  2  0  0  0  0
  8  9  1  0  0  0  0
  9 10  1  0  0  0  0
 10 11  1  0  0  0  0
 11 12  1  0  0  0  0
 12 26  1  0  0  0  0
 13 10  2  0  0  0  0
 14 13  1  0  0  0  0
 15 14  1  0  0  0  0
 15  9  2  0  0  0  0
 16 15  1  0  0  0  0
 17 18  1  0  0  0  0
 17 16  2  0  0  0  0
 18 19  2  0  0  0  0
 19 30  1  0  0  0  0
 19 14  1  0  0  0  0
 20  5  1  0  0  0  0
 21 20  2  0  0  0  0
 21  2  1  0  0  0  0
 24 12  1  0  0  0  0
 25 12  1  0  0  0  0
 27 16  1  0  0  0  0
 28 17  1  0  0  0  0
 29 18  1  0  0  0  0
 31 20  1  0  0  0  0
 32 21  1  0  0  0  0
M  END
$$$$
