32

Cl        -0.03560       -0.35850        0.04900
C          1.69360       -0.14060        0.04440
C          2.24080        1.03010        0.57890
C          3.62380        1.20070        0.57270
C          4.46240        0.21160        0.03580
C          5.94970        0.33000       -0.00310
O          6.67840       -0.56030       -0.35820
S          6.60320        1.96370        0.50670
C          8.31230        1.62750        0.42860
C          9.13880        1.08180        1.44700
S          8.59000        0.65800        3.05430
C         10.13710       -0.00680        3.74440
N         10.40030        0.91340        1.04080
N         10.40890        1.33400       -0.24520
C          9.16080        1.77690       -0.67900
C          9.03400        2.22940       -2.01260
C         10.14190        2.22330       -2.83100
C         11.39880        1.76760       -2.34120
C         11.51160        1.32730       -1.04690
C          3.89250       -0.95940       -0.49070
C          2.51290       -1.14060       -0.49140
H          1.58430        1.79360        0.99740
H          4.04770        2.11050        1.00140
H         10.92000        0.76280        3.75260
H         10.48100       -0.86880        3.15770
H          9.90150       -0.31760        4.77120
H          8.05620        2.56980       -2.35510
H         10.06060        2.56800       -3.86380
H         12.27950        1.76060       -2.98370
H         12.42470        0.95700       -0.58150
H          4.55740       -1.72250       -0.89840
H          2.06430       -2.04670       -0.90070
