rmsd143.gzmat
 OpenBabel08211713413D

 32 34  0  0  0  0  0  0  0  0999 V2000
    0.0000    0.0000    0.0000 Cl  0  0  0  0  0  0  0  0  0  0  0  0
    1.7118    0.0000    0.0000 C   0  0  0  0  0  0  0  0  0  0  0  0
    2.3752    0.0000    1.2208 C   0  0  0  0  0  0  0  0  0  0  0  0
    3.7689    0.0013    1.2145 C   0  0  0  0  0  0  0  0  0  0  0  0
    4.4537    0.0082   -0.0013 C   0  0  0  0  0  0  0  0  0  0  0  0
    5.9332    0.0057    0.0051 C   0  0  0  0  0  0  0  0  0  0  0  0
    6.6170   -0.9570    0.1922 O   0  0  0  0  0  0  0  0  0  0  0  0
    6.5793    1.6752   -0.2773 S   0  0  0  0  0  0  0  0  0  0  0  0
    8.2699    1.4503   -0.4071 C   0  0  0  0  0  0  0  0  0  0  0  0
    9.0394    1.3025   -1.6012 C   0  0  0  0  0  0  0  0  0  0  0  0
    8.4306    1.2973   -3.2318 S   0  0  0  0  0  0  0  0  0  0  0  0
    9.9268    1.0593   -4.2337 C   0  0  0  0  0  0  0  0  0  0  0  0
   10.3616    1.1571   -1.3192 N   0  0  0  0  0  0  0  0  0  0  0  0
   10.4621    1.1966    0.0428 N   0  0  0  0  0  0  0  0  0  0  0  0
    9.2021    1.3771    0.6543 C   0  0  0  0  0  0  0  0  0  0  0  0
    9.1506    1.4375    2.0636 C   0  0  0  0  0  0  0  0  0  0  0  0
   10.3150    1.3131    2.7811 C   0  0  0  0  0  0  0  0  0  0  0  0
   11.5588    1.1300    2.1248 C   0  0  0  0  0  0  0  0  0  0  0  0
   11.6311    1.0731    0.7512 C   0  0  0  0  0  0  0  0  0  0  0  0
    3.7683    0.0067   -1.2168 C   0  0  0  0  0  0  0  0  0  0  0  0
    2.3747    0.0006   -1.2208 C   0  0  0  0  0  0  0  0  0  0  0  0
    1.8273   -0.0028    2.1626 H   0  0  0  0  0  0  0  0  0  0  0  0
    4.3191   -0.0054    2.1568 H   0  0  0  0  0  0  0  0  0  0  0  0
   10.4559    0.1335   -3.9713 H   0  0  0  0  0  0  0  0  0  0  0  0
   10.6402    1.8842   -4.1093 H   0  0  0  0  0  0  0  0  0  0  0  0
    9.6339    1.0073   -5.2885 H   0  0  0  0  0  0  0  0  0  0  0  0
    8.1832    1.5798    2.5469 H   0  0  0  0  0  0  0  0  0  0  0  0
   10.3006    1.3530    3.8717 H   0  0  0  0  0  0  0  0  0  0  0  0
   12.4662    1.0322    2.7202 H   0  0  0  0  0  0  0  0  0  0  0  0
   12.5561    0.9335    0.1811 H   0  0  0  0  0  0  0  0  0  0  0  0
    4.3164    0.0105   -2.1620 H   0  0  0  0  0  0  0  0  0  0  0  0
    1.8258   -0.0024   -2.1621 H   0  0  0  0  0  0  0  0  0  0  0  0
  1  2  1  0  0  0  0
  2  3  2  0  0  0  0
  3 22  1  0  0  0  0
  4  3  1  0  0  0  0
  4 23  1  0  0  0  0
  5  6  1  0  0  0  0
  5  4  2  0  0  0  0
  6  7  2  0  0  0  0
  8  6  1  0  0  0  0
  9  8  1  0  0  0  0
  9 15  2  0  0  0  0
 10 13  2  0  0  0  0
 10  9  1  0  0  0  0
 11 10  1  0  0  0  0
 12 25  1  0  0  0  0
 12 24  1  0  0  0  0
 12 11  1  0  0  0  0
 13 14  1  0  0  0  0
 14 15  1  0  0  0  0
 14 19  1  0  0  0  0
 15 16  1  0  0  0  0
 16 27  1  0  0  0  0
 16 17  2  0  0  0  0
 17 28  1  0  0  0  0
 18 29  1  0  0  0  0
 18 17  1  0  0  0  0
 19 18  2  0  0  0  0
 20  5  1  0  0  0  0
 21 20  2  0  0  0  0
 21  2  1  0  0  0  0
 26 12  1  0  0  0  0
 30 19  1  0  0  0  0
 31 20  1  0  0  0  0
 32 21  1  0  0  0  0
M  END
$$$$
