32
rmsd142.gzmat
Cl         0.00000        0.00000        0.00000
C          1.71180        0.00000        0.00000
C          2.37520        0.00000        1.22080
C          3.76890        0.00430        1.21590
C          4.45440        0.00880        0.00030
C          5.93440        0.01250       -0.00100
O          6.62420       -0.95370       -0.13870
S          6.56710        1.69780        0.21370
C          8.25910        1.49700        0.36630
C          9.01680        1.36850        1.57010
S          8.39320        1.39310        3.19570
C          9.82890        0.92170        4.20500
N         10.34300        1.23050        1.30350
N         10.45830        1.25920       -0.05730
C          9.20370        1.42410       -0.68400
C          9.16720        1.47370       -2.09410
C         10.34080        1.35790       -2.79820
C         11.57890        1.19150       -2.12680
C         11.63620        1.14150       -0.75210
C          3.76910        0.00290       -1.21500
C          2.37500        0.00000       -1.22090
H          1.82670       -0.00410        2.16200
H          4.31850        0.00190        2.16020
H         10.73660        1.47750        3.92950
H         10.05900       -0.14630        4.10460
H          9.60350        1.13640        5.25590
H          8.20430        1.60160       -2.58940
H         10.33820        1.39040       -3.88910
H         12.49390        1.10020       -2.71130
H         12.55640        1.01260       -0.17190
H          4.31860       -0.00050       -2.15780
H          1.82680       -0.00390       -2.16240
