rmsd179.gzmat
 OpenBabel08211713363D

 50 54  0  0  1  0  0  0  0  0999 V2000
    0.0000    0.0000    0.0000 N   0  0  0  0  0  0  0  0  0  0  0  0
    1.0287    0.0000    0.0000 H   0  0  0  0  0  0  0  0  0  0  0  0
   -0.6757    0.0000   -1.1813 C   0  0  1  0  0  0  0  0  0  0  0  0
    0.1047    0.1683   -2.4273 C   0  0  0  0  0  0  0  0  0  0  0  0
   -2.0640   -0.1853   -1.1969 C   0  0  0  0  0  0  0  0  0  0  0  0
   -2.7434   -0.4597   -0.0191 C   0  0  0  0  0  0  0  0  0  0  0  0
   -4.0340   -0.7692    0.0914 O   0  0  0  0  0  0  0  0  0  0  0  0
   -4.7258   -1.2449   -1.0855 C   0  0  0  0  0  0  0  0  0  0  0  0
   -3.9889   -2.4123   -1.6536 C   0  0  0  0  0  0  0  0  0  0  0  0
   -3.6357   -3.4643   -0.8058 C   0  0  0  0  0  0  0  0  0  0  0  0
   -2.8074   -4.4808   -1.2704 C   0  0  0  0  0  0  0  0  0  0  0  0
   -2.3373   -4.4436   -2.5849 C   0  0  0  0  0  0  0  0  0  0  0  0
   -2.7566   -3.4350   -3.4557 C   0  0  0  0  0  0  0  0  0  0  0  0
   -3.5859   -2.4195   -2.9895 C   0  0  0  0  0  0  0  0  0  0  0  0
   -1.3739   -5.4473   -3.0553 C   0  0  0  0  0  0  0  0  0  0  0  0
   -1.7656   -6.4155   -3.9813 C   0  0  0  0  0  0  0  0  0  0  0  0
   -0.8442   -7.3540   -4.4399 C   0  0  0  0  0  0  0  0  0  0  0  0
    0.4736   -7.3288   -3.9826 C   0  0  0  0  0  0  0  0  0  0  0  0
    0.8739   -6.3667   -3.0605 C   0  0  0  0  0  0  0  0  0  0  0  0
   -0.0519   -5.4302   -2.5903 C   0  0  0  0  0  0  0  0  0  0  0  0
    0.3778   -4.4346   -1.6254 C   0  0  0  0  0  0  0  0  0  0  0  0
    0.7652   -4.7343   -0.3087 N   0  0  0  0  0  0  0  0  0  0  0  0
    0.8233   -5.6169    0.1744 H   0  0  0  0  0  0  0  0  0  0  0  0
    1.1055   -3.5669    0.3008 N   0  0  0  0  0  0  0  0  0  0  0  0
    0.9454   -2.6159   -0.5653 N   0  0  0  0  0  0  0  0  0  0  0  0
    0.5029   -3.0888   -1.7486 N   0  0  0  0  0  0  0  0  0  0  0  0
   -2.0491   -0.4320    1.2383 C   0  0  0  0  0  0  0  0  0  0  0  0
   -2.6941   -0.6528    2.4759 C   0  0  0  0  0  0  0  0  0  0  0  0
   -1.9646   -0.6501    3.6438 C   0  0  0  0  0  0  0  0  0  0  0  0
   -0.5713   -0.4299    3.6151 C   0  0  0  0  0  0  0  0  0  0  0  0
    0.0859   -0.2135    2.4218 C   0  0  0  0  0  0  0  0  0  0  0  0
   -0.6553   -0.2128    1.2193 C   0  0  0  0  0  0  0  0  0  0  0  0
    1.0613    0.7011   -2.3056 H   0  0  0  0  0  0  0  0  0  0  0  0
   -0.4589    0.6944   -3.2163 H   0  0  0  0  0  0  0  0  0  0  0  0
    0.3650   -0.8355   -2.8489 H   0  0  0  0  0  0  0  0  0  0  0  0
   -2.5838   -0.1544   -2.1557 H   0  0  0  0  0  0  0  0  0  0  0  0
   -4.8689   -0.4027   -1.7850 H   0  0  0  0  0  0  0  0  0  0  0  0
   -5.7072   -1.5184   -0.6363 H   0  0  0  0  0  0  0  0  0  0  0  0
   -3.9949   -3.4830    0.2241 H   0  0  0  0  0  0  0  0  0  0  0  0
   -2.5248   -5.3004   -0.6108 H   0  0  0  0  0  0  0  0  0  0  0  0
   -2.4143   -3.4335   -4.4921 H   0  0  0  0  0  0  0  0  0  0  0  0
   -3.9070   -1.6312   -3.6706 H   0  0  0  0  0  0  0  0  0  0  0  0
   -2.7962   -6.4330   -4.3404 H   0  0  0  0  0  0  0  0  0  0  0  0
   -1.1551   -8.1111   -5.1641 H   0  0  0  0  0  0  0  0  0  0  0  0
    1.1938   -8.0628   -4.3503 H   0  0  0  0  0  0  0  0  0  0  0  0
    1.9088   -6.3357   -2.7162 H   0  0  0  0  0  0  0  0  0  0  0  0
   -3.7756   -0.8236    2.4883 H   0  0  0  0  0  0  0  0  0  0  0  0
   -2.4574   -0.8203    4.6045 H   0  0  0  0  0  0  0  0  0  0  0  0
   -0.0126   -0.4337    4.5575 H   0  0  0  0  0  0  0  0  0  0  0  0
    1.1654   -0.0539    2.4020 H   0  0  0  0  0  0  0  0  0  0  0  0
  1  2  1  0  0  0  0
  1 32  1  0  0  0  0
  3  4  1  6  0  0  0
  3  1  1  0  0  0  0
  4 33  1  0  0  0  0
  5  3  1  0  0  0  0
  5  6  2  0  0  0  0
  6  7  1  0  0  0  0
  6 27  1  0  0  0  0
  8 38  1  0  0  0  0
  8  7  1  0  0  0  0
  9  8  1  0  0  0  0
  9 10  2  0  0  0  0
 10 39  1  0  0  0  0
 11 10  1  0  0  0  0
 11 40  1  0  0  0  0
 12 11  2  0  0  0  0
 13 14  2  0  0  0  0
 13 12  1  0  0  0  0
 14  9  1  0  0  0  0
 15 20  1  0  0  0  0
 15 12  1  0  0  0  0
 16 15  2  0  0  0  0
 17 18  2  0  0  0  0
 17 16  1  0  0  0  0
 18 19  1  0  0  0  0
 19 46  1  0  0  0  0
 19 20  2  0  0  0  0
 20 21  1  0  0  0  0
 21 22  1  0  0  0  0
 22 23  1  0  0  0  0
 22 24  1  0  0  0  0
 25 24  2  0  0  0  0
 26 21  2  0  0  0  0
 26 25  1  0  0  0  0
 27 28  1  0  0  0  0
 28 47  1  0  0  0  0
 28 29  2  0  0  0  0
 29 48  1  0  0  0  0
 30 29  1  0  0  0  0
 30 49  1  0  0  0  0
 31 30  2  0  0  0  0
 32 27  2  0  0  0  0
 32 31  1  0  0  0  0
 34  4  1  0  0  0  0
 35  4  1  0  0  0  0
 36  5  1  0  0  0  0
 37  8  1  0  0  0  0
 41 13  1  0  0  0  0
 42 14  1  0  0  0  0
 43 16  1  0  0  0  0
 44 17  1  0  0  0  0
 45 18  1  0  0  0  0
 50 31  1  0  0  0  0
M  END
$$$$
