rmsd154.gzmat
 OpenBabel08211713363D

 50 54  0  0  1  0  0  0  0  0999 V2000
    0.0000    0.0000    0.0000 N   0  0  0  0  0  0  0  0  0  0  0  0
    1.0288    0.0000    0.0000 H   0  0  0  0  0  0  0  0  0  0  0  0
   -0.6763    0.0000   -1.1814 C   0  0  1  0  0  0  0  0  0  0  0  0
    0.1010    0.1731   -2.4284 C   0  0  0  0  0  0  0  0  0  0  0  0
   -2.0644   -0.1872   -1.1965 C   0  0  0  0  0  0  0  0  0  0  0  0
   -2.7458   -0.4503   -0.0173 C   0  0  0  0  0  0  0  0  0  0  0  0
   -4.0338   -0.7677    0.0959 O   0  0  0  0  0  0  0  0  0  0  0  0
   -4.7315   -1.2415   -1.0788 C   0  0  0  0  0  0  0  0  0  0  0  0
   -3.9974   -2.4070   -1.6541 C   0  0  0  0  0  0  0  0  0  0  0  0
   -3.6609   -3.4729   -0.8170 C   0  0  0  0  0  0  0  0  0  0  0  0
   -2.8323   -4.4879   -1.2854 C   0  0  0  0  0  0  0  0  0  0  0  0
   -2.3498   -4.4367   -2.5943 C   0  0  0  0  0  0  0  0  0  0  0  0
   -2.7526   -3.4137   -3.4564 C   0  0  0  0  0  0  0  0  0  0  0  0
   -3.5805   -2.3994   -2.9860 C   0  0  0  0  0  0  0  0  0  0  0  0
   -1.3985   -5.4460   -3.0774 C   0  0  0  0  0  0  0  0  0  0  0  0
   -1.8240   -6.4262   -3.9760 C   0  0  0  0  0  0  0  0  0  0  0  0
   -0.9196   -7.3682   -4.4598 C   0  0  0  0  0  0  0  0  0  0  0  0
    0.4155   -7.3335   -4.0556 C   0  0  0  0  0  0  0  0  0  0  0  0
    0.8475   -6.3640   -3.1561 C   0  0  0  0  0  0  0  0  0  0  0  0
   -0.0615   -5.4243   -2.6588 C   0  0  0  0  0  0  0  0  0  0  0  0
    0.4009   -4.4258   -1.7122 C   0  0  0  0  0  0  0  0  0  0  0  0
    0.8797   -4.7266   -0.4260 N   0  0  0  0  0  0  0  0  0  0  0  0
    0.9955   -5.6122    0.0415 H   0  0  0  0  0  0  0  0  0  0  0  0
    1.2220   -3.5556    0.1751 N   0  0  0  0  0  0  0  0  0  0  0  0
    0.9784   -2.6010   -0.6673 N   0  0  0  0  0  0  0  0  0  0  0  0
    0.4772   -3.0754   -1.8263 N   0  0  0  0  0  0  0  0  0  0  0  0
   -2.0534   -0.4031    1.2412 C   0  0  0  0  0  0  0  0  0  0  0  0
   -2.7026   -0.5882    2.4825 C   0  0  0  0  0  0  0  0  0  0  0  0
   -1.9729   -0.5798    3.6506 C   0  0  0  0  0  0  0  0  0  0  0  0
   -0.5746   -0.3962    3.6176 C   0  0  0  0  0  0  0  0  0  0  0  0
    0.0856   -0.2059    2.4214 C   0  0  0  0  0  0  0  0  0  0  0  0
   -0.6569   -0.2009    1.2201 C   0  0  0  0  0  0  0  0  0  0  0  0
    0.3078   -0.8266   -2.8878 H   0  0  0  0  0  0  0  0  0  0  0  0
    1.0850    0.6510   -2.2989 H   0  0  0  0  0  0  0  0  0  0  0  0
   -0.4438    0.7533   -3.1927 H   0  0  0  0  0  0  0  0  0  0  0  0
   -2.5810   -0.1678   -2.1574 H   0  0  0  0  0  0  0  0  0  0  0  0
   -4.8797   -0.3975   -1.7747 H   0  0  0  0  0  0  0  0  0  0  0  0
   -5.7097   -1.5172   -0.6240 H   0  0  0  0  0  0  0  0  0  0  0  0
   -4.0347   -3.5049    0.2077 H   0  0  0  0  0  0  0  0  0  0  0  0
   -2.5617   -5.3180   -0.6335 H   0  0  0  0  0  0  0  0  0  0  0  0
   -2.3996   -3.4021   -4.4890 H   0  0  0  0  0  0  0  0  0  0  0  0
   -3.8900   -1.6010   -3.6607 H   0  0  0  0  0  0  0  0  0  0  0  0
   -2.8677   -6.4490   -4.2948 H   0  0  0  0  0  0  0  0  0  0  0  0
   -1.2572   -8.1346   -5.1618 H   0  0  0  0  0  0  0  0  0  0  0  0
    1.1240   -8.0669   -4.4467 H   0  0  0  0  0  0  0  0  0  0  0  0
    1.8945   -6.3296   -2.8512 H   0  0  0  0  0  0  0  0  0  0  0  0
   -3.7874   -0.7343    2.4979 H   0  0  0  0  0  0  0  0  0  0  0  0
   -2.4696   -0.7174    4.6147 H   0  0  0  0  0  0  0  0  0  0  0  0
   -0.0132   -0.4074    4.5580 H   0  0  0  0  0  0  0  0  0  0  0  0
    1.1683   -0.0707    2.3994 H   0  0  0  0  0  0  0  0  0  0  0  0
  1  2  1  0  0  0  0
  1 32  1  0  0  0  0
  3  4  1  6  0  0  0
  3  1  1  0  0  0  0
  4 34  1  0  0  0  0
  5  3  1  0  0  0  0
  5  6  2  0  0  0  0
  6  7  1  0  0  0  0
  6 27  1  0  0  0  0
  8 38  1  0  0  0  0
  8  7  1  0  0  0  0
  9  8  1  0  0  0  0
  9 10  2  0  0  0  0
 10 39  1  0  0  0  0
 11 10  1  0  0  0  0
 11 40  1  0  0  0  0
 12 11  2  0  0  0  0
 13 14  2  0  0  0  0
 13 12  1  0  0  0  0
 14  9  1  0  0  0  0
 15 20  1  0  0  0  0
 15 12  1  0  0  0  0
 16 15  2  0  0  0  0
 17 18  2  0  0  0  0
 17 16  1  0  0  0  0
 18 19  1  0  0  0  0
 19 46  1  0  0  0  0
 19 20  2  0  0  0  0
 20 21  1  0  0  0  0
 21 22  1  0  0  0  0
 22 23  1  0  0  0  0
 22 24  1  0  0  0  0
 25 24  2  0  0  0  0
 26 21  2  0  0  0  0
 26 25  1  0  0  0  0
 27 28  1  0  0  0  0
 28 47  1  0  0  0  0
 28 29  2  0  0  0  0
 29 48  1  0  0  0  0
 30 29  1  0  0  0  0
 30 49  1  0  0  0  0
 31 30  2  0  0  0  0
 32 27  2  0  0  0  0
 32 31  1  0  0  0  0
 33  4  1  0  0  0  0
 35  4  1  0  0  0  0
 36  5  1  0  0  0  0
 37  8  1  0  0  0  0
 41 13  1  0  0  0  0
 42 14  1  0  0  0  0
 43 16  1  0  0  0  0
 44 17  1  0  0  0  0
 45 18  1  0  0  0  0
 50 31  1  0  0  0  0
M  END
$$$$
