50
rmsd154.gzmat
N          0.00000        0.00000        0.00000
H          1.02880        0.00000        0.00000
C         -0.67630        0.00000       -1.18140
C          0.10100        0.17310       -2.42840
C         -2.06440       -0.18720       -1.19650
C         -2.74580       -0.45030       -0.01730
O         -4.03380       -0.76770        0.09590
C         -4.73150       -1.24150       -1.07880
C         -3.99740       -2.40700       -1.65410
C         -3.66090       -3.47290       -0.81700
C         -2.83230       -4.48790       -1.28540
C         -2.34980       -4.43670       -2.59430
C         -2.75260       -3.41370       -3.45640
C         -3.58050       -2.39940       -2.98600
C         -1.39850       -5.44600       -3.07740
C         -1.82400       -6.42620       -3.97600
C         -0.91960       -7.36820       -4.45980
C          0.41550       -7.33350       -4.05560
C          0.84750       -6.36400       -3.15610
C         -0.06150       -5.42430       -2.65880
C          0.40090       -4.42580       -1.71220
N          0.87970       -4.72660       -0.42600
H          0.99550       -5.61220        0.04150
N          1.22200       -3.55560        0.17510
N          0.97840       -2.60100       -0.66730
N          0.47720       -3.07540       -1.82630
C         -2.05340       -0.40310        1.24120
C         -2.70260       -0.58820        2.48250
C         -1.97290       -0.57980        3.65060
C         -0.57460       -0.39620        3.61760
C          0.08560       -0.20590        2.42140
C         -0.65690       -0.20090        1.22010
H          0.30780       -0.82660       -2.88780
H          1.08500        0.65100       -2.29890
H         -0.44380        0.75330       -3.19270
H         -2.58100       -0.16780       -2.15740
H         -4.87970       -0.39750       -1.77470
H         -5.70970       -1.51720       -0.62400
H         -4.03470       -3.50490        0.20770
H         -2.56170       -5.31800       -0.63350
H         -2.39960       -3.40210       -4.48900
H         -3.89000       -1.60100       -3.66070
H         -2.86770       -6.44900       -4.29480
H         -1.25720       -8.13460       -5.16180
H          1.12400       -8.06690       -4.44670
H          1.89450       -6.32960       -2.85120
H         -3.78740       -0.73430        2.49790
H         -2.46960       -0.71740        4.61470
H         -0.01320       -0.40740        4.55800
H          1.16830       -0.07070        2.39940
