50
rmsd125.gzmat
N          0.00000        0.00000        0.00000
H          1.02780        0.00000        0.00000
C         -0.67610        0.00000       -1.18150
C          0.10490        0.15650       -2.42850
C         -2.06610       -0.17240       -1.19650
C         -2.74980       -0.43140       -0.01760
O         -4.04530       -0.71300        0.09850
C         -4.77320       -1.12130       -1.08200
C         -4.11520       -2.32290       -1.67400
C         -3.86610       -3.42700       -0.85650
C         -3.10280       -4.48630       -1.33670
C         -2.58880       -4.43490       -2.63410
C         -2.91080       -3.37140       -3.48030
C         -3.68040       -2.31630       -3.00040
C         -1.66640       -5.47630       -3.10480
C         -2.09450       -6.44630       -4.01100
C         -1.20270       -7.41620       -4.46410
C          0.11980       -7.41960       -4.02060
C          0.55600       -6.45610       -3.11590
C         -0.33980       -5.48910       -2.65170
C          0.11730       -4.49260       -1.69980
N          0.42610       -4.77440       -0.35880
H          0.40930       -5.64400        0.15060
N          0.81100       -3.61150        0.23240
N          0.74890       -2.67980       -0.66690
N          0.33060       -3.16160       -1.85500
C         -2.05200       -0.41620        1.23890
C         -2.69690       -0.63670        2.47680
C         -1.96500       -0.64990        3.64310
C         -0.56960       -0.44430        3.61290
C          0.08710       -0.22540        2.41960
C         -0.65630       -0.21080        1.21930
H          0.34940       -0.85120       -2.85060
H          1.06890        0.67540       -2.30900
H         -0.45320        0.68780       -3.21830
H         -2.58330       -0.14280       -2.15670
H         -4.86690       -0.26010       -1.76660
H         -5.76680       -1.33930       -0.62870
H         -4.25440       -3.45410        0.16260
H         -2.90360       -5.34960       -0.70260
H         -2.53890       -3.36020       -4.50650
H         -3.92860       -1.48660       -3.66230
H         -3.12890       -6.44180       -4.35950
H         -1.54190       -8.17600       -5.17250
H          0.81660       -8.17780       -4.38420
H          1.59410       -6.44970       -2.77980
H         -3.78010       -0.79580        2.49070
H         -2.45780       -0.82110        4.60370
H         -0.00800       -0.46210        4.55330
H          1.16800       -0.07760        2.39890
