50
rmsd148.gzmat
N          0.00000        0.00000        0.00000
H          1.02910        0.00000        0.00000
C         -0.67470        0.00000       -1.18200
C          0.10640        0.18240       -2.42540
C         -2.06100       -0.19830       -1.19990
C         -2.74020       -0.47860       -0.02320
O         -4.02520       -0.81320        0.08380
C         -4.70480       -1.30110       -1.09560
C         -3.93570       -2.44250       -1.67460
C         -3.51500       -3.46980       -0.82740
C         -2.65460       -4.45320       -1.30410
C         -2.21890       -4.40760       -2.63030
C         -2.70460       -3.42660       -3.49840
C         -3.56810       -2.44540       -3.02080
C         -1.23020       -5.37590       -3.12110
C         -1.60220       -6.32890       -4.07130
C         -0.66230       -7.23510       -4.55610
C          0.65670       -7.19100       -4.10350
C          1.03730       -6.24550       -3.15660
C          0.09170       -5.34400       -2.65700
C          0.50650       -4.37420       -1.66000
N          0.90550       -4.71410       -0.35640
H          0.97920       -5.61250        0.09470
N          1.23390       -3.56400        0.29130
N          1.05530       -2.58570       -0.53960
N          0.61140       -3.02340       -1.73630
C         -2.04970       -0.43600        1.23610
C         -2.69660       -0.64770        2.47440
C         -1.96830       -0.63950        3.64320
C         -0.57410       -0.42430        3.61440
C          0.08430       -0.21240        2.42100
C         -0.65610       -0.21350        1.21840
H          0.40760       -0.81510       -2.83440
H          1.04110        0.75260       -2.30280
H         -0.47110        0.67630       -3.22540
H         -2.57860       -0.17350       -2.16030
H         -4.87150       -0.45750       -1.78850
H         -5.67740       -1.60680       -0.64770
H         -3.84750       -3.49430        0.21160
H         -2.32220       -5.25530       -0.64610
H         -2.38890       -3.42090       -4.54320
H         -3.94330       -1.68040       -3.70070
H         -2.63350       -6.36120       -4.42780
H         -0.96010       -7.98210       -5.29610
H          1.39280       -7.89740       -4.49270
H          2.07240       -6.20050       -2.81460
H         -3.77840       -0.81650        2.48680
H         -2.46240       -0.80010        4.60500
H         -0.01460       -0.42860        4.55640
H          1.16410       -0.05530        2.40150
