50
rmsd166.gzmat
N          0.00000        0.00000        0.00000
H          1.02880        0.00000        0.00000
C         -0.67580        0.00000       -1.18140
C          0.10310       -0.16840       -2.42830
C         -2.06400        0.18570       -1.19730
C         -2.74310        0.46270       -0.02020
O         -4.03220        0.77840        0.08970
C         -4.72520        1.24520       -1.09020
C         -3.99150        2.41250       -1.66310
C         -3.59040        2.41780       -2.99960
C         -2.76130        3.43240       -3.46790
C         -2.33990        4.44140       -2.59850
C         -2.81070        4.48200       -1.28450
C         -3.63950        3.46710       -0.81810
C         -1.37440        5.44230       -3.07040
C         -1.76550        6.41210       -3.99460
C         -0.84270        7.34830       -4.45550
C          0.47640        7.31850       -4.00220
C          0.87570        6.35650       -3.07960
C         -0.05170        5.42260       -2.60720
C          0.37550        4.42920       -1.63890
N          0.75830        4.73360       -0.32190
H          0.81780        5.61830        0.15700
N          1.09470        3.56820        0.29340
N          0.93610        2.61400       -0.56950
N          0.49810        3.08260       -1.75610
C         -2.04910        0.43460        1.23750
C         -2.69400        0.65480        2.47520
C         -1.96360        0.65580        3.64280
C         -0.56880        0.44670        3.61280
C          0.08790        0.22900        2.41940
C         -0.65490        0.21750        1.21860
H          0.30440        0.83340       -2.88560
H         -0.43760       -0.75180       -3.19320
H          1.09020       -0.64060       -2.29830
H         -2.58310        0.15330       -2.15620
H         -5.70760        1.51770       -0.64240
H         -4.86410        0.39890       -1.78570
H         -3.91280        1.62900       -3.67930
H         -2.42140        3.43120       -4.50490
H         -2.52900        5.30400       -0.62730
H         -4.00020        3.48870        0.21120
H         -2.79730        6.43360       -4.35030
H         -1.15390        8.10760       -5.17700
H          1.19860        8.04900       -4.37300
H          1.91080        6.32420       -2.73620
H         -3.77610        0.82250        2.48780
H         -2.45710        0.82170        4.60390
H         -0.00720        0.46210        4.55310
H          1.16870        0.07880        2.39900
