rmsd148.gzmat
 OpenBabel08211713363D

 50 54  0  0  1  0  0  0  0  0999 V2000
    0.0000    0.0000    0.0000 N   0  0  0  0  0  0  0  0  0  0  0  0
    1.0291    0.0000    0.0000 H   0  0  0  0  0  0  0  0  0  0  0  0
   -0.6747    0.0000   -1.1820 C   0  0  1  0  0  0  0  0  0  0  0  0
    0.1064    0.1824   -2.4254 C   0  0  0  0  0  0  0  0  0  0  0  0
   -2.0610   -0.1983   -1.1999 C   0  0  0  0  0  0  0  0  0  0  0  0
   -2.7402   -0.4786   -0.0232 C   0  0  0  0  0  0  0  0  0  0  0  0
   -4.0252   -0.8132    0.0838 O   0  0  0  0  0  0  0  0  0  0  0  0
   -4.7048   -1.3011   -1.0956 C   0  0  0  0  0  0  0  0  0  0  0  0
   -3.9357   -2.4425   -1.6746 C   0  0  0  0  0  0  0  0  0  0  0  0
   -3.5150   -3.4698   -0.8274 C   0  0  0  0  0  0  0  0  0  0  0  0
   -2.6546   -4.4532   -1.3041 C   0  0  0  0  0  0  0  0  0  0  0  0
   -2.2189   -4.4076   -2.6303 C   0  0  0  0  0  0  0  0  0  0  0  0
   -2.7046   -3.4266   -3.4984 C   0  0  0  0  0  0  0  0  0  0  0  0
   -3.5681   -2.4454   -3.0208 C   0  0  0  0  0  0  0  0  0  0  0  0
   -1.2302   -5.3759   -3.1211 C   0  0  0  0  0  0  0  0  0  0  0  0
   -1.6022   -6.3289   -4.0713 C   0  0  0  0  0  0  0  0  0  0  0  0
   -0.6623   -7.2351   -4.5561 C   0  0  0  0  0  0  0  0  0  0  0  0
    0.6567   -7.1910   -4.1035 C   0  0  0  0  0  0  0  0  0  0  0  0
    1.0373   -6.2455   -3.1566 C   0  0  0  0  0  0  0  0  0  0  0  0
    0.0917   -5.3440   -2.6570 C   0  0  0  0  0  0  0  0  0  0  0  0
    0.5065   -4.3742   -1.6600 C   0  0  0  0  0  0  0  0  0  0  0  0
    0.9055   -4.7141   -0.3564 N   0  0  0  0  0  0  0  0  0  0  0  0
    0.9792   -5.6125    0.0947 H   0  0  0  0  0  0  0  0  0  0  0  0
    1.2339   -3.5640    0.2913 N   0  0  0  0  0  0  0  0  0  0  0  0
    1.0553   -2.5857   -0.5396 N   0  0  0  0  0  0  0  0  0  0  0  0
    0.6114   -3.0234   -1.7363 N   0  0  0  0  0  0  0  0  0  0  0  0
   -2.0497   -0.4360    1.2361 C   0  0  0  0  0  0  0  0  0  0  0  0
   -2.6966   -0.6477    2.4744 C   0  0  0  0  0  0  0  0  0  0  0  0
   -1.9683   -0.6395    3.6432 C   0  0  0  0  0  0  0  0  0  0  0  0
   -0.5741   -0.4243    3.6144 C   0  0  0  0  0  0  0  0  0  0  0  0
    0.0843   -0.2124    2.4210 C   0  0  0  0  0  0  0  0  0  0  0  0
   -0.6561   -0.2135    1.2184 C   0  0  0  0  0  0  0  0  0  0  0  0
    0.4076   -0.8151   -2.8344 H   0  0  0  0  0  0  0  0  0  0  0  0
    1.0411    0.7526   -2.3028 H   0  0  0  0  0  0  0  0  0  0  0  0
   -0.4711    0.6763   -3.2254 H   0  0  0  0  0  0  0  0  0  0  0  0
   -2.5786   -0.1735   -2.1603 H   0  0  0  0  0  0  0  0  0  0  0  0
   -4.8715   -0.4575   -1.7885 H   0  0  0  0  0  0  0  0  0  0  0  0
   -5.6774   -1.6068   -0.6477 H   0  0  0  0  0  0  0  0  0  0  0  0
   -3.8475   -3.4943    0.2116 H   0  0  0  0  0  0  0  0  0  0  0  0
   -2.3222   -5.2553   -0.6461 H   0  0  0  0  0  0  0  0  0  0  0  0
   -2.3889   -3.4209   -4.5432 H   0  0  0  0  0  0  0  0  0  0  0  0
   -3.9433   -1.6804   -3.7007 H   0  0  0  0  0  0  0  0  0  0  0  0
   -2.6335   -6.3612   -4.4278 H   0  0  0  0  0  0  0  0  0  0  0  0
   -0.9601   -7.9821   -5.2961 H   0  0  0  0  0  0  0  0  0  0  0  0
    1.3928   -7.8974   -4.4927 H   0  0  0  0  0  0  0  0  0  0  0  0
    2.0724   -6.2005   -2.8146 H   0  0  0  0  0  0  0  0  0  0  0  0
   -3.7784   -0.8165    2.4868 H   0  0  0  0  0  0  0  0  0  0  0  0
   -2.4624   -0.8001    4.6050 H   0  0  0  0  0  0  0  0  0  0  0  0
   -0.0146   -0.4286    4.5564 H   0  0  0  0  0  0  0  0  0  0  0  0
    1.1641   -0.0553    2.4015 H   0  0  0  0  0  0  0  0  0  0  0  0
  1  2  1  0  0  0  0
  1 32  1  0  0  0  0
  3  4  1  6  0  0  0
  3  1  1  0  0  0  0
  4 34  1  0  0  0  0
  5  3  1  0  0  0  0
  5  6  2  0  0  0  0
  6  7  1  0  0  0  0
  6 27  1  0  0  0  0
  8 38  1  0  0  0  0
  8  7  1  0  0  0  0
  9  8  1  0  0  0  0
  9 10  2  0  0  0  0
 10 39  1  0  0  0  0
 11 10  1  0  0  0  0
 11 40  1  0  0  0  0
 12 11  2  0  0  0  0
 13 14  2  0  0  0  0
 13 12  1  0  0  0  0
 14  9  1  0  0  0  0
 15 20  1  0  0  0  0
 15 12  1  0  0  0  0
 16 15  2  0  0  0  0
 17 18  2  0  0  0  0
 17 16  1  0  0  0  0
 18 19  1  0  0  0  0
 19 46  1  0  0  0  0
 19 20  2  0  0  0  0
 20 21  1  0  0  0  0
 21 22  1  0  0  0  0
 22 23  1  0  0  0  0
 22 24  1  0  0  0  0
 25 24  2  0  0  0  0
 26 21  2  0  0  0  0
 26 25  1  0  0  0  0
 27 28  1  0  0  0  0
 28 47  1  0  0  0  0
 28 29  2  0  0  0  0
 29 48  1  0  0  0  0
 30 29  1  0  0  0  0
 30 49  1  0  0  0  0
 31 30  2  0  0  0  0
 32 27  2  0  0  0  0
 32 31  1  0  0  0  0
 33  4  1  0  0  0  0
 35  4  1  0  0  0  0
 36  5  1  0  0  0  0
 37  8  1  0  0  0  0
 41 13  1  0  0  0  0
 42 14  1  0  0  0  0
 43 16  1  0  0  0  0
 44 17  1  0  0  0  0
 45 18  1  0  0  0  0
 50 31  1  0  0  0  0
M  END
$$$$
