39

S         -0.42070       -0.77570       -0.36490
C          1.27150       -0.36110       -0.44850
N          1.79800       -0.00520        0.69130
N          0.91080       -0.05880        1.70590
C         -0.29020       -0.43750        1.34030
C         -1.42960       -0.56380        2.34730
N         -2.39930        0.53090        2.13110
C         -3.32930        0.72170        1.16860
S         -3.60740       -0.28320       -0.12950
C         -4.14050        1.96270        1.36570
C         -4.59160        2.69420        0.25460
C         -5.34330        3.85430        0.43080
C         -5.67270        4.29390        1.71770
C         -5.24450        3.56470        2.82940
C         -4.47990        2.40940        2.65580
C         -2.08050       -1.95400        2.29050
C         -0.86960       -0.33610        3.76040
C          1.97340       -0.40850       -1.76080
O          1.41270       -0.73220       -2.78290
O          3.25450       -0.05920       -1.66020
C          4.03590       -0.08740       -2.87060
C          4.53860       -1.48730       -3.17450
H         -2.23510        1.33180        2.73280
H         -4.34000        2.33220       -0.74330
H         -5.67670        4.41990       -0.44240
H         -6.26820        5.19990        1.85260
H         -5.51460        3.88930        3.83690
H         -4.17770        1.83020        3.53140
H         -1.32880       -2.70730        2.56840
H         -2.47380       -2.18490        1.29520
H         -2.91040       -2.00170        3.01130
H         -0.10180       -1.08410        3.99100
H         -1.68850       -0.42140        4.49020
H         -0.39370        0.65070        3.84660
H          4.86560        0.60580       -2.67560
H          3.42430        0.30170       -3.69800
H          5.10960       -1.89050       -2.32420
H          5.19920       -1.46330       -4.05560
H          3.69930       -2.16300       -3.39380
