39

S         -0.02240       -1.10710        0.05820
C          1.68040       -0.74980        0.18190
N          2.06580       -0.35770        1.36550
N          1.05250       -0.33800        2.25540
C         -0.10330       -0.69670        1.75050
C         -1.36780       -0.74370        2.60290
N         -2.25820        0.37310        2.22180
C         -3.04600        0.55610        1.13850
S         -3.19030       -0.49040       -0.14860
C         -3.82770        1.83050        1.18200
C         -4.10090        2.53100       -0.00450
C         -4.82440        3.72150        0.02890
C         -5.30280        4.22350        1.24420
C         -5.05220        3.52610        2.42820
C         -4.31600        2.34000        2.39890
C         -2.05930       -2.11230        2.51120
C         -0.98800       -0.47740        4.06820
C          2.54470       -0.87440       -1.02400
O          2.10860       -1.21440       -2.10010
O          3.81710       -0.57930       -0.76480
C          4.74230       -0.65470       -1.86700
C          4.71590        0.61320       -2.70160
H         -2.14370        1.19160        2.81120
H         -3.73480        2.12070       -0.94670
H         -5.01860        4.26190       -0.90040
H         -5.87590        5.15340        1.26660
H         -5.43950        3.90000        3.37880
H         -4.15370        1.78710        3.32700
H         -1.37940       -2.87900        2.91070
H         -2.33010       -2.36940        1.48200
H         -2.97620       -2.10300        3.11930
H         -0.28630       -1.24080        4.42460
H         -1.89760       -0.50540        4.68660
H         -0.48960        0.49550        4.18050
H          4.49670       -1.53570       -2.47800
H          5.72130       -0.80440       -1.39140
H          3.73960        0.73570       -3.19230
H          5.48940        0.56070       -3.48410
H          4.91510        1.49670       -2.07610
