rmsd133.gzmat
 OpenBabel08211713413D

 39 41  0  0  1  0  0  0  0  0999 V2000
    0.0000    0.0000    0.0000 S   0  0  2  0  0  0  0  0  0  0  0  0
    1.7561    0.0000    0.0000 C   0  0  0  0  0  0  0  0  0  0  0  0
    2.2966    0.0000    1.2090 N   0  0  0  0  0  0  0  0  0  0  0  0
    1.3847    0.0252    2.1932 N   0  0  0  0  0  0  0  0  0  0  0  0
    0.1236    0.0352    1.7982 C   0  0  0  0  0  0  0  0  0  0  0  0
   -1.0092    0.1450    2.7799 C   0  0  0  0  0  0  0  0  0  0  0  0
   -2.1378   -0.7772    2.4575 N   0  0  0  0  0  0  0  0  0  0  0  0
   -2.7288   -0.9189    1.2625 C   0  0  1  0  0  0  0  0  0  0  0  0
   -2.1587   -0.2218   -0.1499 S   0  0  0  0  0  0  0  0  0  0  0  0
   -3.9297   -1.7731    1.2250 C   0  0  0  0  0  0  0  0  0  0  0  0
   -5.0929   -1.3470    1.8721 C   0  0  0  0  0  0  0  0  0  0  0  0
   -6.2301   -2.1486    1.8418 C   0  0  0  0  0  0  0  0  0  0  0  0
   -6.2043   -3.3715    1.1710 C   0  0  0  0  0  0  0  0  0  0  0  0
   -5.0446   -3.7895    0.5211 C   0  0  0  0  0  0  0  0  0  0  0  0
   -3.9036   -2.9900    0.5413 C   0  0  0  0  0  0  0  0  0  0  0  0
   -0.5245   -0.2602    4.1857 C   0  0  0  0  0  0  0  0  0  0  0  0
   -1.5243    1.5931    2.8095 C   0  0  0  0  0  0  0  0  0  0  0  0
    2.5520    0.0050   -1.2355 C   0  0  0  0  0  0  0  0  0  0  0  0
    2.9646    0.9671   -1.8272 O   0  0  0  0  0  0  0  0  0  0  0  0
    2.7285   -1.2712   -1.6572 O   0  0  0  0  0  0  0  0  0  0  0  0
    3.5374   -1.4613   -2.8217 C   0  0  0  0  0  0  0  0  0  0  0  0
    5.0049   -1.3954   -2.4345 C   0  0  0  0  0  0  0  0  0  0  0  0
   -2.4957   -1.3047    3.2558 H   0  0  0  0  0  0  0  0  0  0  0  0
   -5.1162   -0.3861    2.3846 H   0  0  0  0  0  0  0  0  0  0  0  0
   -7.1411   -1.8192    2.3393 H   0  0  0  0  0  0  0  0  0  0  0  0
   -7.0949   -3.9992    1.1521 H   0  0  0  0  0  0  0  0  0  0  0  0
   -5.0297   -4.7422   -0.0076 H   0  0  0  0  0  0  0  0  0  0  0  0
   -2.9991   -3.3151    0.0225 H   0  0  0  0  0  0  0  0  0  0  0  0
    0.3252    0.3753    4.4939 H   0  0  0  0  0  0  0  0  0  0  0  0
   -0.1354   -1.2879    4.2055 H   0  0  0  0  0  0  0  0  0  0  0  0
   -1.3010   -0.1551    4.9479 H   0  0  0  0  0  0  0  0  0  0  0  0
   -0.7077    2.2814    3.0760 H   0  0  0  0  0  0  0  0  0  0  0  0
   -2.3219    1.7266    3.5481 H   0  0  0  0  0  0  0  0  0  0  0  0
   -1.9128    1.9349    1.8417 H   0  0  0  0  0  0  0  0  0  0  0  0
    3.2672   -0.7200   -3.5947 H   0  0  0  0  0  0  0  0  0  0  0  0
    3.2232   -2.4731   -3.1394 H   0  0  0  0  0  0  0  0  0  0  0  0
    5.3042   -0.3687   -2.1754 H   0  0  0  0  0  0  0  0  0  0  0  0
    5.6512   -1.7360   -3.2497 H   0  0  0  0  0  0  0  0  0  0  0  0
    5.2109   -2.0213   -1.5554 H   0  0  0  0  0  0  0  0  0  0  0  0
  1  9  1  1  0  0  0
  1  2  1  0  0  0  0
  1  5  1  0  0  0  0
  2  3  2  0  0  0  0
  3  4  1  0  0  0  0
  5  4  2  0  0  0  0
  5  6  1  0  0  0  0
  6 17  1  0  0  0  0
  6 16  1  0  0  0  0
  7  6  1  0  0  0  0
  7 23  1  0  0  0  0
  8 10  1  6  0  0  0
  8  7  1  0  0  0  0
  9  8  1  0  0  0  0
 10 11  2  0  0  0  0
 11 24  1  0  0  0  0
 12 11  1  0  0  0  0
 12 25  1  0  0  0  0
 13 12  2  0  0  0  0
 14 15  2  0  0  0  0
 14 13  1  0  0  0  0
 15 10  1  0  0  0  0
 16 30  1  0  0  0  0
 16 29  1  0  0  0  0
 16 31  1  0  0  0  0
 17 32  1  0  0  0  0
 17 33  1  0  0  0  0
 18  2  1  0  0  0  0
 19 18  2  0  0  0  0
 20 18  1  0  0  0  0
 21 22  1  0  0  0  0
 21 20  1  0  0  0  0
 22 37  1  0  0  0  0
 22 39  1  0  0  0  0
 26 13  1  0  0  0  0
 27 14  1  0  0  0  0
 28 15  1  0  0  0  0
 34 17  1  0  0  0  0
 35 21  1  0  0  0  0
 36 21  1  0  0  0  0
 38 22  1  0  0  0  0
M  RAD  1   8   2
M  END
$$$$
