
     RDKit          3D

 39 40  0  0  0  0  0  0  0  0999 V2000
    0.8546   -0.9711    0.4799 S   0  0  0  0  0  0  0  0  0  0  0  0
    1.6575    0.4336   -0.1747 C   0  0  0  0  0  0  0  0  0  0  0  0
    1.2118    1.5657    0.2938 N   0  0  0  0  0  0  0  0  0  0  0  0
    0.2204    1.4055    1.1935 N   0  0  0  0  0  0  0  0  0  0  0  0
   -0.1035    0.1531    1.3923 C   0  0  0  0  0  0  0  0  0  0  0  0
   -1.1502   -0.2402    2.4266 C   0  0  0  0  0  0  0  0  0  0  0  0
   -2.3253    0.6247    2.2724 N   0  0  0  0  0  0  0  0  0  0  0  0
   -3.0468    0.8228    1.1440 C   0  0  0  0  0  0  0  0  0  0  0  0
   -2.7505    0.0579   -0.3019 S   0  0  0  0  0  0  0  0  0  0  0  0
   -4.1669    1.7961    1.3052 C   0  0  0  0  0  0  0  0  0  0  0  0
   -4.5483    2.6151    0.2296 C   0  0  0  0  0  0  0  0  0  0  0  0
   -5.5884    3.5310    0.3738 C   0  0  0  0  0  0  0  0  0  0  0  0
   -6.2771    3.6326    1.5877 C   0  0  0  0  0  0  0  0  0  0  0  0
   -5.9177    2.8110    2.6586 C   0  0  0  0  0  0  0  0  0  0  0  0
   -4.8671    1.9017    2.5206 C   0  0  0  0  0  0  0  0  0  0  0  0
   -1.5395   -1.7217    2.3328 C   0  0  0  0  0  0  0  0  0  0  0  0
   -0.5584    0.0614    3.8156 C   0  0  0  0  0  0  0  0  0  0  0  0
    2.7492    0.2529   -1.1683 C   0  0  0  0  0  0  0  0  0  0  0  0
    3.1267   -0.8414   -1.5215 O   0  0  0  0  0  0  0  0  0  0  0  0
    3.2339    1.4147   -1.6005 O   0  0  0  0  0  0  0  0  0  0  0  0
    4.3075    1.3582   -2.5600 C   0  0  0  0  0  0  0  0  0  0  0  0
    5.6503    1.1607   -1.8798 C   0  0  0  0  0  0  0  0  0  0  0  0
   -2.4554    1.3108    3.0080 H   0  0  0  0  0  0  0  0  0  0  0  0
   -4.0106    2.5156   -0.7144 H   0  0  0  0  0  0  0  0  0  0  0  0
   -5.8657    4.1706   -0.4673 H   0  0  0  0  0  0  0  0  0  0  0  0
   -7.0968    4.3469    1.6958 H   0  0  0  0  0  0  0  0  0  0  0  0
   -6.4630    2.8700    3.6035 H   0  0  0  0  0  0  0  0  0  0  0  0
   -4.6147    1.2424    3.3543 H   0  0  0  0  0  0  0  0  0  0  0  0
   -0.6590   -2.3593    2.5044 H   0  0  0  0  0  0  0  0  0  0  0  0
   -1.9654   -1.9519    1.3484 H   0  0  0  0  0  0  0  0  0  0  0  0
   -2.2859   -1.9510    3.1069 H   0  0  0  0  0  0  0  0  0  0  0  0
    0.3364   -0.5532    3.9846 H   0  0  0  0  0  0  0  0  0  0  0  0
   -1.2943   -0.1709    4.6015 H   0  0  0  0  0  0  0  0  0  0  0  0
   -0.2655    1.1197    3.8806 H   0  0  0  0  0  0  0  0  0  0  0  0
    4.2576    2.3236   -3.0818 H   0  0  0  0  0  0  0  0  0  0  0  0
    4.1030    0.5478   -3.2751 H   0  0  0  0  0  0  0  0  0  0  0  0
    5.8285    1.9477   -1.1311 H   0  0  0  0  0  0  0  0  0  0  0  0
    6.4575    1.2048   -2.6281 H   0  0  0  0  0  0  0  0  0  0  0  0
    5.6951    0.1798   -1.3848 H   0  0  0  0  0  0  0  0  0  0  0  0
  1  2  1  0
  1  5  1  0
  2  3  2  0
  2 18  1  0
  3  4  1  0
  4  5  2  0
  5  6  1  0
  6  7  1  0
  6 16  1  0
  6 17  1  0
  7  8  1  0
  7 23  1  0
  8  9  2  0
  8 10  1  0
 10 11  2  0
 10 15  1  0
 11 12  1  0
 11 24  1  0
 12 13  2  0
 12 25  1  0
 13 14  1  0
 13 26  1  0
 14 15  2  0
 14 27  1  0
 15 28  1  0
 16 29  1  0
 16 30  1  0
 16 31  1  0
 17 32  1  0
 17 33  1  0
 17 34  1  0
 18 19  2  0
 18 20  1  0
 20 21  1  0
 21 22  1  0
 21 35  1  0
 21 36  1  0
 22 37  1  0
 22 38  1  0
 22 39  1  0
M  END

