rmsd77.gzmat
 OpenBabel08211713413D

 39 41  0  0  1  0  0  0  0  0999 V2000
    0.0000    0.0000    0.0000 S   0  0  1  0  0  0  0  0  0  0  0  0
    1.7563    0.0000    0.0000 C   0  0  0  0  0  0  0  0  0  0  0  0
    2.2978    0.0000    1.2083 N   0  0  0  0  0  0  0  0  0  0  0  0
    1.3860   -0.0205    2.1931 N   0  0  0  0  0  0  0  0  0  0  0  0
    0.1250   -0.0290    1.7980 C   0  0  0  0  0  0  0  0  0  0  0  0
   -1.0120   -0.1283    2.7756 C   0  0  0  0  0  0  0  0  0  0  0  0
   -2.1221    0.8155    2.4488 N   0  0  0  0  0  0  0  0  0  0  0  0
   -2.7200    0.9466    1.2556 C   0  0  2  0  0  0  0  0  0  0  0  0
   -2.1626    0.2088   -0.1450 S   0  0  0  0  0  0  0  0  0  0  0  0
   -3.9080    1.8154    1.1992 C   0  0  0  0  0  0  0  0  0  0  0  0
   -3.9311    2.9169    0.3402 C   0  0  0  0  0  0  0  0  0  0  0  0
   -5.0670    3.7220    0.2845 C   0  0  0  0  0  0  0  0  0  0  0  0
   -6.1743    3.4269    1.0777 C   0  0  0  0  0  0  0  0  0  0  0  0
   -6.1512    2.3226    1.9299 C   0  0  0  0  0  0  0  0  0  0  0  0
   -5.0189    1.5162    1.9944 C   0  0  0  0  0  0  0  0  0  0  0  0
   -1.5486   -1.5686    2.7988 C   0  0  0  0  0  0  0  0  0  0  0  0
   -0.5278    0.2610    4.1857 C   0  0  0  0  0  0  0  0  0  0  0  0
    2.5457   -0.0067   -1.2391 C   0  0  0  0  0  0  0  0  0  0  0  0
    2.9203   -0.9711   -1.8525 O   0  0  0  0  0  0  0  0  0  0  0  0
    2.7666    1.2708   -1.6352 O   0  0  0  0  0  0  0  0  0  0  0  0
    3.5506    1.4525   -2.8182 C   0  0  0  0  0  0  0  0  0  0  0  0
    5.0177    1.2092   -2.5104 C   0  0  0  0  0  0  0  0  0  0  0  0
   -2.4541    1.3714    3.2384 H   0  0  0  0  0  0  0  0  0  0  0  0
   -3.0674    3.1503   -0.2880 H   0  0  0  0  0  0  0  0  0  0  0  0
   -5.0890    4.5819   -0.3850 H   0  0  0  0  0  0  0  0  0  0  0  0
   -7.0623    4.0568    1.0298 H   0  0  0  0  0  0  0  0  0  0  0  0
   -7.0212    2.0896    2.5428 H   0  0  0  0  0  0  0  0  0  0  0  0
   -5.0096    0.6451    2.6481 H   0  0  0  0  0  0  0  0  0  0  0  0
   -0.7450   -2.2680    3.0768 H   0  0  0  0  0  0  0  0  0  0  0  0
   -1.9296   -1.9081    1.8270 H   0  0  0  0  0  0  0  0  0  0  0  0
   -2.3585   -1.6895    3.5262 H   0  0  0  0  0  0  0  0  0  0  0  0
    0.3347   -0.3659    4.4786 H   0  0  0  0  0  0  0  0  0  0  0  0
   -1.2993    0.1268    4.9485 H   0  0  0  0  0  0  0  0  0  0  0  0
   -0.1566    1.2941    4.2241 H   0  0  0  0  0  0  0  0  0  0  0  0
    3.3313    2.5097   -3.0592 H   0  0  0  0  0  0  0  0  0  0  0  0
    3.1705    0.7927   -3.6187 H   0  0  0  0  0  0  0  0  0  0  0  0
    5.3619    1.8349   -1.6767 H   0  0  0  0  0  0  0  0  0  0  0  0
    5.6511    1.4195   -3.3781 H   0  0  0  0  0  0  0  0  0  0  0  0
    5.1911    0.1619   -2.2189 H   0  0  0  0  0  0  0  0  0  0  0  0
  1  9  1  1  0  0  0
  1  5  1  0  0  0  0
  2  1  1  0  0  0  0
  2  3  2  0  0  0  0
  3  4  1  0  0  0  0
  5  4  2  0  0  0  0
  5  6  1  0  0  0  0
  6 16  1  0  0  0  0
  6 17  1  0  0  0  0
  7  6  1  0  0  0  0
  7 23  1  0  0  0  0
  8 10  1  6  0  0  0
  8  7  1  0  0  0  0
  9  8  1  0  0  0  0
 10 15  2  0  0  0  0
 11 10  1  0  0  0  0
 12 11  2  0  0  0  0
 12 13  1  0  0  0  0
 13 14  2  0  0  0  0
 14 15  1  0  0  0  0
 14 27  1  0  0  0  0
 15 28  1  0  0  0  0
 16 29  1  0  0  0  0
 16 31  1  0  0  0  0
 17 34  1  0  0  0  0
 17 32  1  0  0  0  0
 17 33  1  0  0  0  0
 18  2  1  0  0  0  0
 19 18  2  0  0  0  0
 20 18  1  0  0  0  0
 21 22  1  0  0  0  0
 21 20  1  0  0  0  0
 22 39  1  0  0  0  0
 22 37  1  0  0  0  0
 24 11  1  0  0  0  0
 25 12  1  0  0  0  0
 26 13  1  0  0  0  0
 30 16  1  0  0  0  0
 35 21  1  0  0  0  0
 36 21  1  0  0  0  0
 38 22  1  0  0  0  0
M  RAD  1   8   2
M  END
$$$$
