rmsd40.gzmat
 OpenBabel08211713413D

 39 41  0  0  1  0  0  0  0  0999 V2000
    0.0000    0.0000    0.0000 S   0  0  1  0  0  0  0  0  0  0  0  0
    1.7561    0.0000    0.0000 C   0  0  0  0  0  0  0  0  0  0  0  0
    2.2967    0.0000    1.2085 N   0  0  0  0  0  0  0  0  0  0  0  0
    1.3846   -0.0047    2.1932 N   0  0  0  0  0  0  0  0  0  0  0  0
    0.1231   -0.0090    1.7990 C   0  0  0  0  0  0  0  0  0  0  0  0
   -1.0099   -0.0867    2.7840 C   0  0  0  0  0  0  0  0  0  0  0  0
   -2.1370    0.8279    2.4333 N   0  0  0  0  0  0  0  0  0  0  0  0
   -2.7227    0.9355    1.2333 C   0  0  2  0  0  0  0  0  0  0  0  0
   -2.1609    0.1884   -0.1564 S   0  0  0  0  0  0  0  0  0  0  0  0
   -3.9055    1.8122    1.1503 C   0  0  0  0  0  0  0  0  0  0  0  0
   -3.7681    3.1084    0.6502 C   0  0  0  0  0  0  0  0  0  0  0  0
   -4.8902    3.9281    0.5555 C   0  0  0  0  0  0  0  0  0  0  0  0
   -6.1394    3.4519    0.9513 C   0  0  0  0  0  0  0  0  0  0  0  0
   -6.2719    2.1544    1.4450 C   0  0  0  0  0  0  0  0  0  0  0  0
   -5.1543    1.3299    1.5478 C   0  0  0  0  0  0  0  0  0  0  0  0
   -1.5287   -1.5315    2.8590 C   0  0  0  0  0  0  0  0  0  0  0  0
   -0.5231    0.3607    4.1764 C   0  0  0  0  0  0  0  0  0  0  0  0
    2.5459    0.0456   -1.2389 C   0  0  0  0  0  0  0  0  0  0  0  0
    2.8484    1.0262   -1.8661 O   0  0  0  0  0  0  0  0  0  0  0  0
    2.8779   -1.2163   -1.6034 O   0  0  0  0  0  0  0  0  0  0  0  0
    3.6462   -1.3653   -2.8006 C   0  0  0  0  0  0  0  0  0  0  0  0
    2.7700   -1.1399   -4.0207 C   0  0  0  0  0  0  0  0  0  0  0  0
   -2.4926    1.3822    3.2139 H   0  0  0  0  0  0  0  0  0  0  0  0
   -2.7920    3.4764    0.3272 H   0  0  0  0  0  0  0  0  0  0  0  0
   -4.7903    4.9409    0.1657 H   0  0  0  0  0  0  0  0  0  0  0  0
   -7.0158    4.0946    0.8714 H   0  0  0  0  0  0  0  0  0  0  0  0
   -7.2505    1.7839    1.7471 H   0  0  0  0  0  0  0  0  0  0  0  0
   -5.2578    0.3122    1.9220 H   0  0  0  0  0  0  0  0  0  0  0  0
   -0.7193   -2.2097    3.1695 H   0  0  0  0  0  0  0  0  0  0  0  0
   -1.8971   -1.9097    1.8972 H   0  0  0  0  0  0  0  0  0  0  0  0
   -2.3420   -1.6348    3.5852 H   0  0  0  0  0  0  0  0  0  0  0  0
    0.3427   -0.2494    4.4931 H   0  0  0  0  0  0  0  0  0  0  0  0
   -1.2916    0.2551    4.9467 H   0  0  0  0  0  0  0  0  0  0  0  0
   -0.1561    1.3962    4.1704 H   0  0  0  0  0  0  0  0  0  0  0  0
    3.9845   -2.4147   -2.7033 H   0  0  0  0  0  0  0  0  0  0  0  0
    4.5137   -0.6821   -2.7688 H   0  0  0  0  0  0  0  0  0  0  0  0
    1.8394   -1.7179   -3.9557 H   0  0  0  0  0  0  0  0  0  0  0  0
    3.2839   -1.4311   -4.9423 H   0  0  0  0  0  0  0  0  0  0  0  0
    2.4887   -0.0808   -4.1186 H   0  0  0  0  0  0  0  0  0  0  0  0
  1  9  1  1  0  0  0
  1  5  1  0  0  0  0
  2  1  1  0  0  0  0
  2  3  2  0  0  0  0
  3  4  1  0  0  0  0
  5  4  2  0  0  0  0
  5  6  1  0  0  0  0
  6 16  1  0  0  0  0
  6 17  1  0  0  0  0
  7  6  1  0  0  0  0
  7 23  1  0  0  0  0
  8 10  1  6  0  0  0
  8  7  1  0  0  0  0
  9  8  1  0  0  0  0
 10 15  2  0  0  0  0
 11 10  1  0  0  0  0
 12 11  2  0  0  0  0
 12 13  1  0  0  0  0
 13 14  2  0  0  0  0
 14 15  1  0  0  0  0
 14 27  1  0  0  0  0
 15 28  1  0  0  0  0
 16 29  1  0  0  0  0
 16 31  1  0  0  0  0
 17 32  1  0  0  0  0
 17 33  1  0  0  0  0
 18  2  1  0  0  0  0
 19 18  2  0  0  0  0
 20 18  1  0  0  0  0
 21 36  1  0  0  0  0
 21 35  1  0  0  0  0
 21 20  1  0  0  0  0
 22 37  1  0  0  0  0
 22 21  1  0  0  0  0
 24 11  1  0  0  0  0
 25 12  1  0  0  0  0
 26 13  1  0  0  0  0
 30 16  1  0  0  0  0
 34 17  1  0  0  0  0
 38 22  1  0  0  0  0
 39 22  1  0  0  0  0
M  RAD  1   8   2
M  END
$$$$
