39
rmsd221.gzmat
S          0.00000        0.00000        0.00000
C          1.75590        0.00000        0.00000
N          2.29630        0.00000        1.20930
N          1.38460       -0.02220        2.19330
C          0.12340       -0.03410        1.79750
C         -1.01050       -0.14100        2.77830
N         -2.12360        0.80260        2.46390
C         -2.71030        0.96310        1.26930
S         -2.15910        0.25110       -0.14460
C         -3.88430        1.85350        1.22750
C         -3.81340        3.06620        0.53900
C         -4.92960        3.89880        0.49950
C         -6.10990        3.51730        1.13500
C         -6.17820        2.30250        1.81730
C         -5.06540        1.46790        1.86690
C         -1.54700       -1.58150        2.79370
C         -0.52020        0.24070        4.18870
C          2.55080        0.04380       -1.23550
O          2.73370        0.99850       -1.94460
O          3.04010       -1.19290       -1.49290
C          3.90280       -1.32720       -2.62650
C          5.27010       -0.74890       -2.30400
H         -2.46820        1.33520        3.26430
H         -2.89270        3.36230        0.03090
H         -4.87960        4.84830       -0.03310
H         -6.98290        4.16830        1.09650
H         -7.10310        2.00580        2.31030
H         -5.12280        0.51320        2.38850
H         -0.73670       -2.28590        3.03550
H         -1.95860       -1.90280        1.82850
H         -2.33390       -1.71410        3.54390
H          0.32710       -0.40330        4.48550
H         -1.29480        0.12750        4.95120
H         -0.12600        1.26580        4.22310
H          3.43560       -0.85240       -3.50750
H          3.92010       -2.42730       -2.74990
H          5.23990        0.35050       -2.27210
H          6.01870       -1.04050       -3.04710
H          5.62090       -1.08780       -1.31930
