39
rmsd163.gzmat
S          0.00000        0.00000        0.00000
C          1.75510        0.00000        0.00000
N          2.29640        0.00000        1.20890
N          1.38460        0.02350        2.19320
C          0.12340        0.03250        1.79820
C         -1.00910        0.14290        2.78020
N         -2.14140       -0.77480        2.45640
C         -2.72940       -0.91230        1.26020
S         -2.15640       -0.21800       -0.15200
C         -3.93280       -1.76270        1.20950
C         -3.86070       -3.03730        0.64450
C         -5.00680       -3.82700        0.58740
C         -6.21580       -3.34220        1.08390
C         -6.28380       -2.06560        1.64160
C         -5.14170       -1.27220        1.70780
C         -0.52440       -0.26470        4.18520
C         -1.52110        1.59210        2.81240
C          2.55100        0.00220       -1.23540
O          2.91710        0.96240       -1.86000
O          2.79030       -1.27760       -1.61210
C          3.63100       -1.46910       -2.75380
C          5.08410       -1.32360       -2.33670
H         -2.50490       -1.29810        3.25440
H         -2.91690       -3.41250        0.24350
H         -4.95810       -4.82280        0.14810
H         -7.11150       -3.96070        1.03240
H         -7.23170       -1.68660        2.02140
H         -5.19610       -0.27010        2.13190
H          0.33550        0.36050        4.48790
H         -0.14940       -1.29720        4.20700
H         -1.29620       -0.14510        4.95000
H         -0.70080        2.27870        3.07160
H         -2.31200        1.72780        3.55720
H         -1.91710        1.93370        1.84800
H          3.34650       -0.76500       -3.55620
H          3.36700       -2.50330       -3.04490
H          5.31510       -0.28350       -2.06390
H          5.76580       -1.61590       -3.14110
H          5.30930       -1.94250       -1.45780
