rmsd221.gzmat
 OpenBabel08211713413D

 39 41  0  0  1  0  0  0  0  0999 V2000
    0.0000    0.0000    0.0000 S   0  0  1  0  0  0  0  0  0  0  0  0
    1.7559    0.0000    0.0000 C   0  0  0  0  0  0  0  0  0  0  0  0
    2.2963    0.0000    1.2093 N   0  0  0  0  0  0  0  0  0  0  0  0
    1.3846   -0.0222    2.1933 N   0  0  0  0  0  0  0  0  0  0  0  0
    0.1234   -0.0341    1.7975 C   0  0  0  0  0  0  0  0  0  0  0  0
   -1.0105   -0.1410    2.7783 C   0  0  0  0  0  0  0  0  0  0  0  0
   -2.1236    0.8026    2.4639 N   0  0  0  0  0  0  0  0  0  0  0  0
   -2.7103    0.9631    1.2693 C   0  0  2  0  0  0  0  0  0  0  0  0
   -2.1591    0.2511   -0.1446 S   0  0  0  0  0  0  0  0  0  0  0  0
   -3.8843    1.8535    1.2275 C   0  0  0  0  0  0  0  0  0  0  0  0
   -3.8134    3.0662    0.5390 C   0  0  0  0  0  0  0  0  0  0  0  0
   -4.9296    3.8988    0.4995 C   0  0  0  0  0  0  0  0  0  0  0  0
   -6.1099    3.5173    1.1350 C   0  0  0  0  0  0  0  0  0  0  0  0
   -6.1782    2.3025    1.8173 C   0  0  0  0  0  0  0  0  0  0  0  0
   -5.0654    1.4679    1.8669 C   0  0  0  0  0  0  0  0  0  0  0  0
   -1.5470   -1.5815    2.7937 C   0  0  0  0  0  0  0  0  0  0  0  0
   -0.5202    0.2407    4.1887 C   0  0  0  0  0  0  0  0  0  0  0  0
    2.5508    0.0438   -1.2355 C   0  0  0  0  0  0  0  0  0  0  0  0
    2.7337    0.9985   -1.9446 O   0  0  0  0  0  0  0  0  0  0  0  0
    3.0401   -1.1929   -1.4929 O   0  0  0  0  0  0  0  0  0  0  0  0
    3.9028   -1.3272   -2.6265 C   0  0  0  0  0  0  0  0  0  0  0  0
    5.2701   -0.7489   -2.3040 C   0  0  0  0  0  0  0  0  0  0  0  0
   -2.4682    1.3352    3.2643 H   0  0  0  0  0  0  0  0  0  0  0  0
   -2.8927    3.3623    0.0309 H   0  0  0  0  0  0  0  0  0  0  0  0
   -4.8796    4.8483   -0.0331 H   0  0  0  0  0  0  0  0  0  0  0  0
   -6.9829    4.1683    1.0965 H   0  0  0  0  0  0  0  0  0  0  0  0
   -7.1031    2.0058    2.3103 H   0  0  0  0  0  0  0  0  0  0  0  0
   -5.1228    0.5132    2.3885 H   0  0  0  0  0  0  0  0  0  0  0  0
   -0.7367   -2.2859    3.0355 H   0  0  0  0  0  0  0  0  0  0  0  0
   -1.9586   -1.9028    1.8285 H   0  0  0  0  0  0  0  0  0  0  0  0
   -2.3339   -1.7141    3.5439 H   0  0  0  0  0  0  0  0  0  0  0  0
    0.3271   -0.4033    4.4855 H   0  0  0  0  0  0  0  0  0  0  0  0
   -1.2948    0.1275    4.9512 H   0  0  0  0  0  0  0  0  0  0  0  0
   -0.1260    1.2658    4.2231 H   0  0  0  0  0  0  0  0  0  0  0  0
    3.4356   -0.8524   -3.5075 H   0  0  0  0  0  0  0  0  0  0  0  0
    3.9201   -2.4273   -2.7499 H   0  0  0  0  0  0  0  0  0  0  0  0
    5.2399    0.3505   -2.2721 H   0  0  0  0  0  0  0  0  0  0  0  0
    6.0187   -1.0405   -3.0471 H   0  0  0  0  0  0  0  0  0  0  0  0
    5.6209   -1.0878   -1.3193 H   0  0  0  0  0  0  0  0  0  0  0  0
  1  9  1  1  0  0  0
  1  2  1  0  0  0  0
  1  5  1  0  0  0  0
  2  3  2  0  0  0  0
  3  4  1  0  0  0  0
  5  4  2  0  0  0  0
  5  6  1  0  0  0  0
  6 16  1  0  0  0  0
  6 17  1  0  0  0  0
  7  6  1  0  0  0  0
  7 23  1  0  0  0  0
  8 10  1  6  0  0  0
  8  7  1  0  0  0  0
  9  8  1  0  0  0  0
 10 15  2  0  0  0  0
 11 10  1  0  0  0  0
 12 11  2  0  0  0  0
 12 13  1  0  0  0  0
 13 14  2  0  0  0  0
 14 15  1  0  0  0  0
 14 27  1  0  0  0  0
 15 28  1  0  0  0  0
 16 29  1  0  0  0  0
 16 31  1  0  0  0  0
 17 34  1  0  0  0  0
 17 32  1  0  0  0  0
 17 33  1  0  0  0  0
 18  2  1  0  0  0  0
 19 18  2  0  0  0  0
 20 18  1  0  0  0  0
 21 22  1  0  0  0  0
 21 20  1  0  0  0  0
 22 37  1  0  0  0  0
 22 39  1  0  0  0  0
 24 11  1  0  0  0  0
 25 12  1  0  0  0  0
 26 13  1  0  0  0  0
 30 16  1  0  0  0  0
 35 21  1  0  0  0  0
 36 21  1  0  0  0  0
 38 22  1  0  0  0  0
M  RAD  1   8   2
M  END
$$$$
