39

S          0.85460       -0.97110        0.47990
C          1.65750        0.43360       -0.17470
N          1.21180        1.56570        0.29380
N          0.22040        1.40550        1.19350
C         -0.10350        0.15310        1.39230
C         -1.15020       -0.24020        2.42660
N         -2.32530        0.62470        2.27240
C         -3.04680        0.82280        1.14400
S         -2.75050        0.05790       -0.30190
C         -4.16690        1.79610        1.30520
C         -4.54830        2.61510        0.22960
C         -5.58840        3.53100        0.37380
C         -6.27710        3.63260        1.58770
C         -5.91770        2.81100        2.65860
C         -4.86710        1.90170        2.52060
C         -1.53950       -1.72170        2.33280
C         -0.55840        0.06140        3.81560
C          2.74920        0.25290       -1.16830
O          3.12670       -0.84140       -1.52150
O          3.23390        1.41470       -1.60050
C          4.30750        1.35820       -2.56000
C          5.65030        1.16070       -1.87980
H         -2.45540        1.31080        3.00800
H         -4.01060        2.51560       -0.71440
H         -5.86570        4.17060       -0.46730
H         -7.09680        4.34690        1.69580
H         -6.46300        2.87000        3.60350
H         -4.61470        1.24240        3.35430
H         -0.65900       -2.35930        2.50440
H         -1.96540       -1.95190        1.34840
H         -2.28590       -1.95100        3.10690
H          0.33640       -0.55320        3.98460
H         -1.29430       -0.17090        4.60150
H         -0.26550        1.11970        3.88060
H          4.25760        2.32360       -3.08180
H          4.10300        0.54780       -3.27510
H          5.82850        1.94770       -1.13110
H          6.45750        1.20480       -2.62810
H          5.69510        0.17980       -1.38480
