44

C         -0.37970       -0.14480        0.19500
C          0.93750        0.29520        0.04410
C          1.78120        0.45150        1.14620
C          1.29780        0.15450        2.45290
C         -0.03790       -0.31750        2.59470
C         -0.85730       -0.45240        1.47330
C         -0.60550       -0.65650        3.95150
C          2.10990        0.27290        3.66510
C          3.09510        1.16260        3.94390
C          3.88120        1.20880        5.17560
C          4.05490        0.10230        5.96100
C          4.75240        0.03280        7.21350
C          4.89390       -1.11420        7.93150
C          5.57820       -1.28440        9.21220
C          6.07580       -0.22440        9.90910
C          6.78910       -0.27010       11.19140
O          7.06870       -1.23570       11.87470
O          7.14060        0.98290       11.58220
C          5.67730       -2.71170        9.68500
C          4.48300        2.55470        5.49130
C          3.19760        0.89800        0.87910
O         -1.14250       -0.26540       -0.91930
H          1.29980        0.50540       -0.96400
H         -1.88730       -0.80210        1.59590
H         -1.66090       -0.95300        3.87380
H         -0.54170        0.19750        4.64430
H         -0.06130       -1.49110        4.42490
H          1.85090       -0.42740        4.46430
H          3.29910        1.96740        3.23420
H          3.63320       -0.84240        5.60300
H          5.19130        0.95420        7.60460
H          4.45860       -2.02790        7.51080
H          5.95200        0.78510        9.51460
H          7.60370        0.87560       12.42950
H          6.20670       -3.31650        8.92900
H          4.66450       -3.14100        9.77380
H          6.19380       -2.79590       10.64510
H          3.69120        3.30590        5.65460
H          5.08120        2.91190        4.63580
H          5.13300        2.54820        6.37430
H          3.91930        0.37960        1.52690
H          3.32580        1.97910        1.05550
H          3.46760        0.70790       -0.16950
H         -2.02080       -0.58490       -0.67420
