44
rmsd47.gzmat
C          0.00000        0.00000        0.00000
C          1.39580        0.00000        0.00000
C          2.06070        0.00000        1.22460
C          1.32750        0.00300        2.42110
C         -0.07460       -0.00440        2.39420
C         -0.75210       -0.00570        1.17510
C         -0.84540       -0.00590        3.67100
C          2.01440        0.00300        3.71510
C          2.57500        1.10370        4.23270
C          3.23610        1.12410        5.53860
C          4.06440        0.13110        5.91560
C          4.74620        0.06480        7.19340
C          5.22590       -1.08650        7.69470
C          5.88680       -1.16540        8.99520
C          6.76340       -0.22040        9.39510
C          7.42760       -0.27150       10.68690
O          7.35860       -1.10440       11.55980
O          8.22860        0.81940       10.86470
C          5.53710       -2.34260        9.83310
C          2.89690        2.31330        6.37160
C          3.55180        0.00910        1.23820
O         -0.57800        0.00640       -1.22890
H          1.93640        0.00340       -0.94200
H         -1.83460       -0.01170        1.14320
H         -1.92940        0.07300        3.51770
H         -0.54720        0.83380        4.31810
H         -0.66410       -0.92980        4.24200
H          2.01790       -0.95620        4.23750
H          2.54480        2.05810        3.70430
H          4.25910       -0.70230        5.23540
H          4.84550        1.00270        7.74790
H          5.12190       -2.03200        7.16140
H          7.02910        0.62880        8.76340
H          8.69780        0.81680       11.73320
H          4.78880       -3.00220        9.37940
H          5.14990       -2.03010       10.82060
H          6.43010       -2.95160       10.06350
H          1.81080        2.37350        6.54480
H          3.19610        3.24700        5.87210
H          3.37560        2.30780        7.35960
H          3.96760       -0.48340        2.12870
H          3.93220        1.04270        1.23610
H          3.97990       -0.49560        0.36090
H         -1.56380        0.01060       -1.17830
