
     RDKit          3D

 44 44  0  0  0  0  0  0  0  0999 V2000
   -0.1471   -0.1639    0.0375 C   0  0  0  0  0  0  0  0  0  0  0  0
    1.1134    0.4359   -0.0150 C   0  0  0  0  0  0  0  0  0  0  0  0
    1.8943    0.5854    1.1333 C   0  0  0  0  0  0  0  0  0  0  0  0
    1.4047    0.1159    2.3859 C   0  0  0  0  0  0  0  0  0  0  0  0
    0.1299   -0.5169    2.4257 C   0  0  0  0  0  0  0  0  0  0  0  0
   -0.6288   -0.6407    1.2612 C   0  0  0  0  0  0  0  0  0  0  0  0
   -0.4400   -1.0423    3.7208 C   0  0  0  0  0  0  0  0  0  0  0  0
    2.1548    0.2144    3.6391 C   0  0  0  0  0  0  0  0  0  0  0  0
    3.0178    1.1816    4.0386 C   0  0  0  0  0  0  0  0  0  0  0  0
    3.7497    1.2045    5.3039 C   0  0  0  0  0  0  0  0  0  0  0  0
    4.0255    0.0580    5.9973 C   0  0  0  0  0  0  0  0  0  0  0  0
    4.6823   -0.0454    7.2693 C   0  0  0  0  0  0  0  0  0  0  0  0
    4.9341   -1.2294    7.8903 C   0  0  0  0  0  0  0  0  0  0  0  0
    5.5886   -1.4362    9.1812 C   0  0  0  0  0  0  0  0  0  0  0  0
    5.9289   -0.3943    9.9909 C   0  0  0  0  0  0  0  0  0  0  0  0
    6.5970   -0.4746   11.2956 C   0  0  0  0  0  0  0  0  0  0  0  0
    6.9676   -1.4597   11.9035 O   0  0  0  0  0  0  0  0  0  0  0  0
    6.7800    0.7695   11.8108 O   0  0  0  0  0  0  0  0  0  0  0  0
    5.8432   -2.8796    9.5308 C   0  0  0  0  0  0  0  0  0  0  0  0
    4.1772    2.5759    5.7620 C   0  0  0  0  0  0  0  0  0  0  0  0
    3.2565    1.2137    0.9701 C   0  0  0  0  0  0  0  0  0  0  0  0
   -0.8516   -0.2677   -1.1163 O   0  0  0  0  0  0  0  0  0  0  0  0
    1.4828    0.7782   -0.9835 H   0  0  0  0  0  0  0  0  0  0  0  0
   -1.6140   -1.1157    1.3064 H   0  0  0  0  0  0  0  0  0  0  0  0
   -1.4498   -1.4491    3.5701 H   0  0  0  0  0  0  0  0  0  0  0  0
   -0.5013   -0.2542    4.4879 H   0  0  0  0  0  0  0  0  0  0  0  0
    0.1821   -1.8494    4.1432 H   0  0  0  0  0  0  0  0  0  0  0  0
    1.9529   -0.5816    4.3616 H   0  0  0  0  0  0  0  0  0  0  0  0
    3.1495    2.0664    3.4118 H   0  0  0  0  0  0  0  0  0  0  0  0
    3.7313   -0.8921    5.5399 H   0  0  0  0  0  0  0  0  0  0  0  0
    4.9946    0.8806    7.7588 H   0  0  0  0  0  0  0  0  0  0  0  0
    4.6261   -2.1449    7.3722 H   0  0  0  0  0  0  0  0  0  0  0  0
    5.6971    0.6258    9.6815 H   0  0  0  0  0  0  0  0  0  0  0  0
    7.2227    0.6392   12.6657 H   0  0  0  0  0  0  0  0  0  0  0  0
    4.8870   -3.4307    9.5373 H   0  0  0  0  0  0  0  0  0  0  0  0
    6.3339   -2.9911   10.5017 H   0  0  0  0  0  0  0  0  0  0  0  0
    6.4663   -3.3460    8.7487 H   0  0  0  0  0  0  0  0  0  0  0  0
    3.2972    3.2143    5.9515 H   0  0  0  0  0  0  0  0  0  0  0  0
    4.7605    3.0749    4.9694 H   0  0  0  0  0  0  0  0  0  0  0  0
    4.7905    2.5632    6.6708 H   0  0  0  0  0  0  0  0  0  0  0  0
    4.0117    0.7237    1.6017 H   0  0  0  0  0  0  0  0  0  0  0  0
    3.2502    2.2814    1.2460 H   0  0  0  0  0  0  0  0  0  0  0  0
    3.5829    1.1531   -0.0779 H   0  0  0  0  0  0  0  0  0  0  0  0
   -1.6940   -0.7068   -0.9396 H   0  0  0  0  0  0  0  0  0  0  0  0
  1  2  2  0
  1  6  1  0
  1 22  1  0
  2  3  1  0
  2 23  1  0
  3  4  2  0
  3 21  1  0
  4  5  1  0
  4  8  1  0
  5  6  2  0
  5  7  1  0
  6 24  1  0
  7 25  1  0
  7 26  1  0
  7 27  1  0
  8  9  2  0
  8 28  1  0
  9 10  1  0
  9 29  1  0
 10 11  2  0
 10 20  1  0
 11 12  1  0
 11 30  1  0
 12 13  2  0
 12 31  1  0
 13 14  1  0
 13 32  1  0
 14 15  2  0
 14 19  1  0
 15 16  1  0
 15 33  1  0
 16 17  2  0
 16 18  1  0
 18 34  1  0
 19 35  1  0
 19 36  1  0
 19 37  1  0
 20 38  1  0
 20 39  1  0
 20 40  1  0
 21 41  1  0
 21 42  1  0
 21 43  1  0
 22 44  1  0
M  END

