44
rmsd86.gzmat
C          0.00000        0.00000        0.00000
C          1.39580        0.00000        0.00000
C          2.06140        0.00000        1.22390
C          1.32960        0.00040        2.42280
C         -0.07330       -0.01290        2.39440
C         -0.75140       -0.00860        1.17540
C         -0.84810       -0.02800        3.66900
C          2.01430        0.00310        3.71600
C          2.77630        1.02400        4.13300
C          3.46690        1.03310        5.42180
C          4.07090       -0.07510        5.89640
C          4.79560       -0.13980        7.14960
C          5.63600       -1.14810        7.44460
C          6.37780       -1.22880        8.69970
C          6.82590       -0.11990        9.32670
C          7.57620       -0.17020       10.57040
O          7.97040       -1.12240       11.20110
O          7.83860        1.08960       11.02800
C          6.62330       -2.59880        9.22430
C          3.48320        2.35420        6.11340
C          3.55280        0.00340        1.23020
O         -0.57730        0.00600       -1.22900
H          1.93490       -0.00070       -0.94290
H         -1.83380       -0.01310        1.14380
H         -1.93140        0.05750        3.51260
H         -0.55150        0.80180        4.32930
H         -0.67410       -0.96190        4.22600
H          1.84740       -0.88430        4.33180
H          2.90930        1.91890        3.52130
H          4.04940       -0.99950        5.31390
H          4.62460        0.67500        7.85970
H          5.79910       -1.97250        6.74880
H          6.65980        0.88050        8.92400
H          8.35850        1.09570       11.86710
H          6.12040       -3.38800        8.65360
H          6.30000       -2.69320       10.27710
H          7.70350       -2.83070        9.24190
H          2.61300        2.97310        5.85040
H          4.38240        2.92690        5.83600
H          3.48440        2.26140        7.20840
H          3.97020       -0.51950        2.10300
H          3.93820        1.03470        1.25790
H          3.97570       -0.47590        0.33640
H         -1.56330        0.00960       -1.17940
