44

C          0.12820       -0.24630       -0.09560
C          1.28450       -0.94320        0.27160
C          1.84030       -0.77920        1.53770
C          1.24780        0.11770        2.47590
C          0.06520        0.81130        2.10180
C         -0.47340        0.61500        0.82480
C         -0.67740        1.73450        3.03630
C          1.87840        0.24390        3.79120
C          1.94520        1.33240        4.59750
C          2.57600        1.38360        5.91530
C          2.73290        0.26190        6.68230
C          3.38100        0.17270        7.95980
C          3.48410       -0.98290        8.67050
C          4.12510       -1.17460        9.97050
C          4.82170       -0.17670       10.58370
C          5.49390       -0.24440       11.88710
O          5.56710       -1.17950       12.66000
O          6.08310        0.94510       12.17780
C          3.95270       -2.55160       10.55730
C          3.01830        2.75740        6.35160
C          3.09180       -1.54840        1.88420
O         -0.36720       -0.44980       -1.34110
H          1.74050       -1.61640       -0.45660
H         -1.39280        1.14000        0.54640
H         -1.72290        1.84800        2.71460
H         -0.23310        2.74370        3.05440
H         -0.66870        1.36220        4.07090
H          2.39890       -0.65200        4.14180
H          1.56090        2.28720        4.23090
H          2.31290       -0.67410        6.30000
H          3.81150        1.08610        8.37810
H          3.03120       -1.88210        8.23720
H          4.92130        0.79150       10.09130
H          6.50420        0.82670       13.04530
H          4.35920       -3.30280        9.85840
H          2.87780       -2.77640       10.66560
H          4.44550       -2.65380       11.52820
H          2.17080        3.46210        6.30060
H          3.79320        3.15040        5.67120
H          3.41610        2.78630        7.37300
H          2.92440       -2.24210        2.72550
H          3.91180       -0.87700        2.18450
H          3.43490       -2.14450        1.02740
H         -1.16120        0.08740       -1.46240
