44
rmsd75.gzmat
C          0.00000        0.00000        0.00000
C          1.39710        0.00000        0.00000
C          2.05790        0.00000        1.22470
C          1.32270        0.00230        2.42210
C         -0.07690       -0.01110        2.39550
C         -0.75260       -0.01000        1.17400
C         -0.85040       -0.02930        3.67010
C          2.04550        0.01190        3.69700
C          2.27830        1.13880        4.37970
C          3.03900        1.17140        5.63170
C          4.27490        0.63960        5.69350
C          5.13210        0.66750        6.86160
C          6.40950        0.24760        6.82640
C          7.28320        0.27590        7.99690
C          7.25920        1.31190        8.86180
C          8.10550        1.36760       10.04200
O          8.90460        0.56440       10.46200
O          7.90380        2.53130       10.72720
C          8.19530       -0.88690        8.15840
C          2.34710        1.86420        6.75430
C          3.54830        0.00360        1.26760
O         -0.57720        0.00860       -1.22930
H          1.93660        0.00050       -0.94250
H         -1.83490       -0.01790        1.14120
H         -1.93600       -0.06250        3.51160
H         -0.63460        0.86410        4.27610
H         -0.58380       -0.90440        4.28290
H          2.39110       -0.96450        4.04350
H          1.91270        2.10690        4.03180
H          4.69990        0.16150        4.80680
H          4.69260        1.04630        7.78950
H          6.85780       -0.14990        5.91480
H          6.60510        2.17290        8.71420
H          8.46540        2.60630       11.53570
H          8.04800       -1.67070        7.40640
H          8.07810       -1.35530        9.15340
H          9.25420       -0.57440        8.12090
H          1.27460        1.61840        6.78330
H          2.42520        2.95750        6.64620
H          2.75890        1.60560        7.73940
H          3.93370       -0.83400        1.86880
H          3.92670        0.93050        1.72760
H          4.00370       -0.07440        0.27160
H         -1.56320        0.01620       -1.17900
