44

C         -0.14710       -0.16390        0.03750
C          1.11340        0.43590       -0.01500
C          1.89430        0.58540        1.13330
C          1.40470        0.11590        2.38590
C          0.12990       -0.51690        2.42570
C         -0.62880       -0.64070        1.26120
C         -0.44000       -1.04230        3.72080
C          2.15480        0.21440        3.63910
C          3.01780        1.18160        4.03860
C          3.74970        1.20450        5.30390
C          4.02550        0.05800        5.99730
C          4.68230       -0.04540        7.26930
C          4.93410       -1.22940        7.89030
C          5.58860       -1.43620        9.18120
C          5.92890       -0.39430        9.99090
C          6.59700       -0.47460       11.29560
O          6.96760       -1.45970       11.90350
O          6.78000        0.76950       11.81080
C          5.84320       -2.87960        9.53080
C          4.17720        2.57590        5.76200
C          3.25650        1.21370        0.97010
O         -0.85160       -0.26770       -1.11630
H          1.48280        0.77820       -0.98350
H         -1.61400       -1.11570        1.30640
H         -1.44980       -1.44910        3.57010
H         -0.50130       -0.25420        4.48790
H          0.18210       -1.84940        4.14320
H          1.95290       -0.58160        4.36160
H          3.14950        2.06640        3.41180
H          3.73130       -0.89210        5.53990
H          4.99460        0.88060        7.75880
H          4.62610       -2.14490        7.37220
H          5.69710        0.62580        9.68150
H          7.22270        0.63920       12.66570
H          4.88700       -3.43070        9.53730
H          6.33390       -2.99110       10.50170
H          6.46630       -3.34600        8.74870
H          3.29720        3.21430        5.95150
H          4.76050        3.07490        4.96940
H          4.79050        2.56320        6.67080
H          4.01170        0.72370        1.60170
H          3.25020        2.28140        1.24600
H          3.58290        1.15310       -0.07790
H         -1.69400       -0.70680       -0.93960
