44
rmsd93.gzmat
C          0.00000        0.00000        0.00000
C          1.39700        0.00000        0.00000
C          2.05790        0.00000        1.22490
C          1.32200       -0.00280        2.42110
C         -0.07810       -0.00380        2.39550
C         -0.75320        0.00220        1.17370
C         -0.84990       -0.00990        3.67140
C          2.03210        0.01110        3.70230
C          2.33070       -1.10920        4.37180
C          3.04500       -1.10310        5.64800
C          4.15330       -0.35570        5.81750
C          4.92650       -0.31870        7.04310
C          5.83660        0.63700        7.29480
C          6.61630        0.67500        8.53070
C          7.21970       -0.43390        9.00580
C          8.01430       -0.43010       10.22300
O          8.27500        0.48020       10.97400
O          8.50270       -1.67690       10.48800
C          6.70810        1.99900        9.19920
C          2.46410       -1.97220        6.71200
C          3.54820        0.00040        1.26550
O         -0.57650       -0.00390       -1.22960
H          1.93720       -0.00110       -0.94200
H         -1.83530        0.00930        1.14080
H         -1.93330       -0.09350        3.51760
H         -0.67180        0.91280        4.24540
H         -0.54650       -0.84930        4.31660
H          2.29740        1.00370        4.07340
H          2.04830       -2.09410        3.99500
H          4.52520        0.26470        4.99910
H          4.73060       -1.11230        7.77020
H          6.03280        1.44990        6.59450
H          7.15270       -1.39370        8.49050
H          9.05410       -1.70940       11.30640
H          6.09320        2.77410        8.72730
H          7.75100        2.36220        9.22490
H          6.40730        1.93610       10.26150
H          1.53000       -2.45980        6.40070
H          2.23150       -1.39240        7.61850
H          3.16170       -2.77160        7.00520
H          3.93150       -0.87350        1.81590
H          3.93150        0.89610        1.77760
H          4.00190       -0.02170        0.26560
H         -1.56240       -0.01680       -1.18060
