rmsd81.gzmat
 OpenBabel08211713433D

 44 44  0  0  0  0  0  0  0  0999 V2000
    0.0000    0.0000    0.0000 C   0  0  0  0  0  0  0  0  0  0  0  0
    1.3971    0.0000    0.0000 C   0  0  0  0  0  0  0  0  0  0  0  0
    2.0599    0.0000    1.2242 C   0  0  0  0  0  0  0  0  0  0  0  0
    1.3257   -0.0042    2.4223 C   0  0  0  0  0  0  0  0  0  0  0  0
   -0.0751   -0.0146    2.3949 C   0  0  0  0  0  0  0  0  0  0  0  0
   -0.7522   -0.0086    1.1743 C   0  0  0  0  0  0  0  0  0  0  0  0
   -0.8474   -0.0348    3.6702 C   0  0  0  0  0  0  0  0  0  0  0  0
    2.0222   -0.0166    3.7104 C   0  0  0  0  0  0  0  0  0  0  0  0
    2.6677    1.0550    4.1909 C   0  0  0  0  0  0  0  0  0  0  0  0
    3.3957    1.0591    5.4581 C   0  0  0  0  0  0  0  0  0  0  0  0
    4.0642   -0.0305    5.8857 C   0  0  0  0  0  0  0  0  0  0  0  0
    4.8320   -0.0888    7.1145 C   0  0  0  0  0  0  0  0  0  0  0  0
    5.1303   -1.2505    7.7211 C   0  0  0  0  0  0  0  0  0  0  0  0
    5.9180   -1.3236    8.9494 C   0  0  0  0  0  0  0  0  0  0  0  0
    5.7407   -0.4334    9.9480 C   0  0  0  0  0  0  0  0  0  0  0  0
    6.5098   -0.4792   11.1805 C   0  0  0  0  0  0  0  0  0  0  0  0
    7.3666   -1.2560   11.5306 O   0  0  0  0  0  0  0  0  0  0  0  0
    6.1519    0.5431   12.0110 O   0  0  0  0  0  0  0  0  0  0  0  0
    6.9026   -2.4349    9.0242 C   0  0  0  0  0  0  0  0  0  0  0  0
    3.3571    2.3520    6.2021 C   0  0  0  0  0  0  0  0  0  0  0  0
    3.5507   -0.0077    1.2539 C   0  0  0  0  0  0  0  0  0  0  0  0
   -0.5773    0.0077   -1.2290 O   0  0  0  0  0  0  0  0  0  0  0  0
    1.9377   -0.0013   -0.9424 H   0  0  0  0  0  0  0  0  0  0  0  0
   -1.8348   -0.0108    1.1437 H   0  0  0  0  0  0  0  0  0  0  0  0
   -1.9240    0.1175    3.5201 H   0  0  0  0  0  0  0  0  0  0  0  0
   -0.5030    0.7486    4.3633 H   0  0  0  0  0  0  0  0  0  0  0  0
   -0.7243   -0.9986    4.1888 H   0  0  0  0  0  0  0  0  0  0  0  0
    1.9700   -0.9624    4.2546 H   0  0  0  0  0  0  0  0  0  0  0  0
    2.6726    2.0008    3.6442 H   0  0  0  0  0  0  0  0  0  0  0  0
    4.0536   -0.9482    5.2926 H   0  0  0  0  0  0  0  0  0  0  0  0
    5.1774    0.8661    7.5227 H   0  0  0  0  0  0  0  0  0  0  0  0
    4.8034   -2.2094    7.3169 H   0  0  0  0  0  0  0  0  0  0  0  0
    5.0003    0.3656    9.8866 H   0  0  0  0  0  0  0  0  0  0  0  0
    6.6521    0.5435   12.8618 H   0  0  0  0  0  0  0  0  0  0  0  0
    6.9276   -3.0637    8.1266 H   0  0  0  0  0  0  0  0  0  0  0  0
    6.7050   -3.0911    9.8916 H   0  0  0  0  0  0  0  0  0  0  0  0
    7.9265   -2.0522    9.1910 H   0  0  0  0  0  0  0  0  0  0  0  0
    2.4367    2.9190    5.9995 H   0  0  0  0  0  0  0  0  0  0  0  0
    4.2033    2.9948    5.9136 H   0  0  0  0  0  0  0  0  0  0  0  0
    3.4059    2.2149    7.2912 H   0  0  0  0  0  0  0  0  0  0  0  0
    3.9330   -0.8828    1.8016 H   0  0  0  0  0  0  0  0  0  0  0  0
    3.9446    0.8849    1.7646 H   0  0  0  0  0  0  0  0  0  0  0  0
    3.9977   -0.0307    0.2513 H   0  0  0  0  0  0  0  0  0  0  0  0
   -1.5634    0.0053   -1.1795 H   0  0  0  0  0  0  0  0  0  0  0  0
  1  6  1  0  0  0  0
  2  1  2  0  0  0  0
  2  3  1  0  0  0  0
  3 21  1  0  0  0  0
  3  4  2  0  0  0  0
  4  8  1  0  0  0  0
  5  4  1  0  0  0  0
  5  7  1  0  0  0  0
  6  5  2  0  0  0  0
  7 27  1  0  0  0  0
  7 26  1  0  0  0  0
  8  9  2  0  0  0  0
  8 28  1  0  0  0  0
  9 10  1  0  0  0  0
 10 11  2  0  0  0  0
 10 20  1  0  0  0  0
 11 12  1  0  0  0  0
 12 31  1  0  0  0  0
 12 13  2  0  0  0  0
 13 14  1  0  0  0  0
 14 19  1  0  0  0  0
 14 15  2  0  0  0  0
 15 16  1  0  0  0  0
 16 17  2  0  0  0  0
 16 18  1  0  0  0  0
 18 34  1  0  0  0  0
 19 37  1  0  0  0  0
 19 36  1  0  0  0  0
 20 40  1  0  0  0  0
 21 42  1  0  0  0  0
 21 41  1  0  0  0  0
 22 44  1  0  0  0  0
 22  1  1  0  0  0  0
 23  2  1  0  0  0  0
 24  6  1  0  0  0  0
 25  7  1  0  0  0  0
 29  9  1  0  0  0  0
 30 11  1  0  0  0  0
 32 13  1  0  0  0  0
 33 15  1  0  0  0  0
 35 19  1  0  0  0  0
 38 20  1  0  0  0  0
 39 20  1  0  0  0  0
 43 21  1  0  0  0  0
M  END
$$$$
