
     RDKit          3D

 44 44  0  0  0  0  0  0  0  0999 V2000
   -0.3797   -0.1448    0.1950 C   0  0  0  0  0  0  0  0  0  0  0  0
    0.9375    0.2952    0.0441 C   0  0  0  0  0  0  0  0  0  0  0  0
    1.7812    0.4515    1.1462 C   0  0  0  0  0  0  0  0  0  0  0  0
    1.2978    0.1545    2.4529 C   0  0  0  0  0  0  0  0  0  0  0  0
   -0.0379   -0.3175    2.5947 C   0  0  0  0  0  0  0  0  0  0  0  0
   -0.8573   -0.4524    1.4733 C   0  0  0  0  0  0  0  0  0  0  0  0
   -0.6055   -0.6565    3.9515 C   0  0  0  0  0  0  0  0  0  0  0  0
    2.1099    0.2729    3.6651 C   0  0  0  0  0  0  0  0  0  0  0  0
    3.0951    1.1626    3.9439 C   0  0  0  0  0  0  0  0  0  0  0  0
    3.8812    1.2088    5.1756 C   0  0  0  0  0  0  0  0  0  0  0  0
    4.0549    0.1023    5.9610 C   0  0  0  0  0  0  0  0  0  0  0  0
    4.7524    0.0328    7.2135 C   0  0  0  0  0  0  0  0  0  0  0  0
    4.8939   -1.1142    7.9315 C   0  0  0  0  0  0  0  0  0  0  0  0
    5.5782   -1.2844    9.2122 C   0  0  0  0  0  0  0  0  0  0  0  0
    6.0758   -0.2244    9.9091 C   0  0  0  0  0  0  0  0  0  0  0  0
    6.7891   -0.2701   11.1914 C   0  0  0  0  0  0  0  0  0  0  0  0
    7.0687   -1.2357   11.8747 O   0  0  0  0  0  0  0  0  0  0  0  0
    7.1406    0.9829   11.5822 O   0  0  0  0  0  0  0  0  0  0  0  0
    5.6773   -2.7117    9.6850 C   0  0  0  0  0  0  0  0  0  0  0  0
    4.4830    2.5547    5.4913 C   0  0  0  0  0  0  0  0  0  0  0  0
    3.1976    0.8980    0.8791 C   0  0  0  0  0  0  0  0  0  0  0  0
   -1.1425   -0.2654   -0.9193 O   0  0  0  0  0  0  0  0  0  0  0  0
    1.2998    0.5054   -0.9640 H   0  0  0  0  0  0  0  0  0  0  0  0
   -1.8873   -0.8021    1.5959 H   0  0  0  0  0  0  0  0  0  0  0  0
   -1.6609   -0.9530    3.8738 H   0  0  0  0  0  0  0  0  0  0  0  0
   -0.5417    0.1975    4.6443 H   0  0  0  0  0  0  0  0  0  0  0  0
   -0.0613   -1.4911    4.4249 H   0  0  0  0  0  0  0  0  0  0  0  0
    1.8509   -0.4274    4.4643 H   0  0  0  0  0  0  0  0  0  0  0  0
    3.2991    1.9674    3.2342 H   0  0  0  0  0  0  0  0  0  0  0  0
    3.6332   -0.8424    5.6030 H   0  0  0  0  0  0  0  0  0  0  0  0
    5.1913    0.9542    7.6046 H   0  0  0  0  0  0  0  0  0  0  0  0
    4.4586   -2.0279    7.5108 H   0  0  0  0  0  0  0  0  0  0  0  0
    5.9520    0.7851    9.5146 H   0  0  0  0  0  0  0  0  0  0  0  0
    7.6037    0.8756   12.4295 H   0  0  0  0  0  0  0  0  0  0  0  0
    6.2067   -3.3165    8.9290 H   0  0  0  0  0  0  0  0  0  0  0  0
    4.6645   -3.1410    9.7738 H   0  0  0  0  0  0  0  0  0  0  0  0
    6.1938   -2.7959   10.6451 H   0  0  0  0  0  0  0  0  0  0  0  0
    3.6912    3.3059    5.6546 H   0  0  0  0  0  0  0  0  0  0  0  0
    5.0812    2.9119    4.6358 H   0  0  0  0  0  0  0  0  0  0  0  0
    5.1330    2.5482    6.3743 H   0  0  0  0  0  0  0  0  0  0  0  0
    3.9193    0.3796    1.5269 H   0  0  0  0  0  0  0  0  0  0  0  0
    3.3258    1.9791    1.0555 H   0  0  0  0  0  0  0  0  0  0  0  0
    3.4676    0.7079   -0.1695 H   0  0  0  0  0  0  0  0  0  0  0  0
   -2.0208   -0.5849   -0.6742 H   0  0  0  0  0  0  0  0  0  0  0  0
  1  2  2  0
  1  6  1  0
  1 22  1  0
  2  3  1  0
  2 23  1  0
  3  4  2  0
  3 21  1  0
  4  5  1  0
  4  8  1  0
  5  6  2  0
  5  7  1  0
  6 24  1  0
  7 25  1  0
  7 26  1  0
  7 27  1  0
  8  9  2  0
  8 28  1  0
  9 10  1  0
  9 29  1  0
 10 11  2  0
 10 20  1  0
 11 12  1  0
 11 30  1  0
 12 13  2  0
 12 31  1  0
 13 14  1  0
 13 32  1  0
 14 15  2  0
 14 19  1  0
 15 16  1  0
 15 33  1  0
 16 17  2  0
 16 18  1  0
 18 34  1  0
 19 35  1  0
 19 36  1  0
 19 37  1  0
 20 38  1  0
 20 39  1  0
 20 40  1  0
 21 41  1  0
 21 42  1  0
 21 43  1  0
 22 44  1  0
M  END

