
     RDKit          3D

 44 44  0  0  0  0  0  0  0  0999 V2000
   -0.0847   -0.1831   -0.0085 C   0  0  0  0  0  0  0  0  0  0  0  0
    1.3015   -0.0151    0.0318 C   0  0  0  0  0  0  0  0  0  0  0  0
    1.9768    0.1567    1.2422 C   0  0  0  0  0  0  0  0  0  0  0  0
    1.2453    0.1579    2.4647 C   0  0  0  0  0  0  0  0  0  0  0  0
   -0.1639   -0.0392    2.4159 C   0  0  0  0  0  0  0  0  0  0  0  0
   -0.8084   -0.1976    1.1885 C   0  0  0  0  0  0  0  0  0  0  0  0
   -0.9933   -0.0561    3.6768 C   0  0  0  0  0  0  0  0  0  0  0  0
    1.8652    0.3157    3.7814 C   0  0  0  0  0  0  0  0  0  0  0  0
    2.9557    1.0454    4.1251 C   0  0  0  0  0  0  0  0  0  0  0  0
    3.5322    1.1409    5.4651 C   0  0  0  0  0  0  0  0  0  0  0  0
    3.3517    0.1574    6.3986 C   0  0  0  0  0  0  0  0  0  0  0  0
    3.8156    0.1598    7.7568 C   0  0  0  0  0  0  0  0  0  0  0  0
    3.6068   -0.8680    8.6235 C   0  0  0  0  0  0  0  0  0  0  0  0
    4.0329   -0.9567   10.0192 C   0  0  0  0  0  0  0  0  0  0  0  0
    4.6258    0.0904   10.6589 C   0  0  0  0  0  0  0  0  0  0  0  0
    5.1051    0.1175   12.0463 C   0  0  0  0  0  0  0  0  0  0  0  0
    5.0670   -0.7625   12.8838 O   0  0  0  0  0  0  0  0  0  0  0  0
    5.6451    1.3302   12.3366 O   0  0  0  0  0  0  0  0  0  0  0  0
    3.7579   -2.2849   10.6753 C   0  0  0  0  0  0  0  0  0  0  0  0
    4.3390    2.3892    5.7185 C   0  0  0  0  0  0  0  0  0  0  0  0
    3.4783    0.2950    1.1865 C   0  0  0  0  0  0  0  0  0  0  0  0
   -0.6727   -0.3366   -1.2205 O   0  0  0  0  0  0  0  0  0  0  0  0
    1.8517   -0.0325   -0.9109 H   0  0  0  0  0  0  0  0  0  0  0  0
   -1.8942   -0.3336    1.1622 H   0  0  0  0  0  0  0  0  0  0  0  0
   -2.0617   -0.1662    3.4437 H   0  0  0  0  0  0  0  0  0  0  0  0
   -0.8657    0.8692    4.2606 H   0  0  0  0  0  0  0  0  0  0  0  0
   -0.7116   -0.8916    4.3398 H   0  0  0  0  0  0  0  0  0  0  0  0
    1.3469   -0.1930    4.5993 H   0  0  0  0  0  0  0  0  0  0  0  0
    3.4284    1.6795    3.3717 H   0  0  0  0  0  0  0  0  0  0  0  0
    2.8078   -0.7404    6.0875 H   0  0  0  0  0  0  0  0  0  0  0  0
    4.3655    1.0373    8.1062 H   0  0  0  0  0  0  0  0  0  0  0  0
    3.0658   -1.7430    8.2452 H   0  0  0  0  0  0  0  0  0  0  0  0
    4.7786    1.0299   10.1263 H   0  0  0  0  0  0  0  0  0  0  0  0
    5.9377    1.2749   13.2614 H   0  0  0  0  0  0  0  0  0  0  0  0
    4.2598   -3.0885   10.1097 H   0  0  0  0  0  0  0  0  0  0  0  0
    2.6765   -2.5007   10.6299 H   0  0  0  0  0  0  0  0  0  0  0  0
    4.0906   -2.3103   11.7167 H   0  0  0  0  0  0  0  0  0  0  0  0
    3.7022    3.2868    5.6377 H   0  0  0  0  0  0  0  0  0  0  0  0
    5.1254    2.4937    4.9516 H   0  0  0  0  0  0  0  0  0  0  0  0
    4.8259    2.4048    6.7009 H   0  0  0  0  0  0  0  0  0  0  0  0
    3.9696   -0.2382    2.0133 H   0  0  0  0  0  0  0  0  0  0  0  0
    3.7946    1.3495    1.2509 H   0  0  0  0  0  0  0  0  0  0  0  0
    3.8640   -0.1001    0.2358 H   0  0  0  0  0  0  0  0  0  0  0  0
   -1.6249   -0.4517   -1.1031 H   0  0  0  0  0  0  0  0  0  0  0  0
  1  2  2  0
  1  6  1  0
  1 22  1  0
  2  3  1  0
  2 23  1  0
  3  4  2  0
  3 21  1  0
  4  5  1  0
  4  8  1  0
  5  6  2  0
  5  7  1  0
  6 24  1  0
  7 25  1  0
  7 26  1  0
  7 27  1  0
  8  9  2  0
  8 28  1  0
  9 10  1  0
  9 29  1  0
 10 11  2  0
 10 20  1  0
 11 12  1  0
 11 30  1  0
 12 13  2  0
 12 31  1  0
 13 14  1  0
 13 32  1  0
 14 15  2  0
 14 19  1  0
 15 16  1  0
 15 33  1  0
 16 17  2  0
 16 18  1  0
 18 34  1  0
 19 35  1  0
 19 36  1  0
 19 37  1  0
 20 38  1  0
 20 39  1  0
 20 40  1  0
 21 41  1  0
 21 42  1  0
 21 43  1  0
 22 44  1  0
M  END

