rmsd75.gzmat
 OpenBabel08211713433D

 44 44  0  0  0  0  0  0  0  0999 V2000
    0.0000    0.0000    0.0000 C   0  0  0  0  0  0  0  0  0  0  0  0
    1.3971    0.0000    0.0000 C   0  0  0  0  0  0  0  0  0  0  0  0
    2.0579    0.0000    1.2247 C   0  0  0  0  0  0  0  0  0  0  0  0
    1.3227    0.0023    2.4221 C   0  0  0  0  0  0  0  0  0  0  0  0
   -0.0769   -0.0111    2.3955 C   0  0  0  0  0  0  0  0  0  0  0  0
   -0.7526   -0.0100    1.1740 C   0  0  0  0  0  0  0  0  0  0  0  0
   -0.8504   -0.0293    3.6701 C   0  0  0  0  0  0  0  0  0  0  0  0
    2.0455    0.0119    3.6970 C   0  0  0  0  0  0  0  0  0  0  0  0
    2.2783    1.1388    4.3797 C   0  0  0  0  0  0  0  0  0  0  0  0
    3.0390    1.1714    5.6317 C   0  0  0  0  0  0  0  0  0  0  0  0
    4.2749    0.6396    5.6935 C   0  0  0  0  0  0  0  0  0  0  0  0
    5.1321    0.6675    6.8616 C   0  0  0  0  0  0  0  0  0  0  0  0
    6.4095    0.2476    6.8264 C   0  0  0  0  0  0  0  0  0  0  0  0
    7.2832    0.2759    7.9969 C   0  0  0  0  0  0  0  0  0  0  0  0
    7.2592    1.3119    8.8618 C   0  0  0  0  0  0  0  0  0  0  0  0
    8.1055    1.3676   10.0420 C   0  0  0  0  0  0  0  0  0  0  0  0
    8.9046    0.5644   10.4620 O   0  0  0  0  0  0  0  0  0  0  0  0
    7.9038    2.5313   10.7272 O   0  0  0  0  0  0  0  0  0  0  0  0
    8.1953   -0.8869    8.1584 C   0  0  0  0  0  0  0  0  0  0  0  0
    2.3471    1.8642    6.7543 C   0  0  0  0  0  0  0  0  0  0  0  0
    3.5483    0.0036    1.2676 C   0  0  0  0  0  0  0  0  0  0  0  0
   -0.5772    0.0086   -1.2293 O   0  0  0  0  0  0  0  0  0  0  0  0
    1.9366    0.0005   -0.9425 H   0  0  0  0  0  0  0  0  0  0  0  0
   -1.8349   -0.0179    1.1412 H   0  0  0  0  0  0  0  0  0  0  0  0
   -1.9360   -0.0625    3.5116 H   0  0  0  0  0  0  0  0  0  0  0  0
   -0.6346    0.8641    4.2761 H   0  0  0  0  0  0  0  0  0  0  0  0
   -0.5838   -0.9044    4.2829 H   0  0  0  0  0  0  0  0  0  0  0  0
    2.3911   -0.9645    4.0435 H   0  0  0  0  0  0  0  0  0  0  0  0
    1.9127    2.1069    4.0318 H   0  0  0  0  0  0  0  0  0  0  0  0
    4.6999    0.1615    4.8068 H   0  0  0  0  0  0  0  0  0  0  0  0
    4.6926    1.0463    7.7895 H   0  0  0  0  0  0  0  0  0  0  0  0
    6.8578   -0.1499    5.9148 H   0  0  0  0  0  0  0  0  0  0  0  0
    6.6051    2.1729    8.7142 H   0  0  0  0  0  0  0  0  0  0  0  0
    8.4654    2.6063   11.5357 H   0  0  0  0  0  0  0  0  0  0  0  0
    8.0480   -1.6707    7.4064 H   0  0  0  0  0  0  0  0  0  0  0  0
    8.0781   -1.3553    9.1534 H   0  0  0  0  0  0  0  0  0  0  0  0
    9.2542   -0.5744    8.1209 H   0  0  0  0  0  0  0  0  0  0  0  0
    1.2746    1.6184    6.7833 H   0  0  0  0  0  0  0  0  0  0  0  0
    2.4252    2.9575    6.6462 H   0  0  0  0  0  0  0  0  0  0  0  0
    2.7589    1.6056    7.7394 H   0  0  0  0  0  0  0  0  0  0  0  0
    3.9337   -0.8340    1.8688 H   0  0  0  0  0  0  0  0  0  0  0  0
    3.9267    0.9305    1.7276 H   0  0  0  0  0  0  0  0  0  0  0  0
    4.0037   -0.0744    0.2716 H   0  0  0  0  0  0  0  0  0  0  0  0
   -1.5632    0.0162   -1.1790 H   0  0  0  0  0  0  0  0  0  0  0  0
  1  6  1  0  0  0  0
  2  1  2  0  0  0  0
  2  3  1  0  0  0  0
  3 21  1  0  0  0  0
  3  4  2  0  0  0  0
  4  8  1  0  0  0  0
  5  4  1  0  0  0  0
  5  7  1  0  0  0  0
  6  5  2  0  0  0  0
  7 26  1  0  0  0  0
  7 27  1  0  0  0  0
  8 28  1  0  0  0  0
  8  9  2  0  0  0  0
  9 10  1  0  0  0  0
 10 11  2  0  0  0  0
 10 20  1  0  0  0  0
 11 12  1  0  0  0  0
 12 31  1  0  0  0  0
 13 12  2  0  0  0  0
 13 14  1  0  0  0  0
 14 19  1  0  0  0  0
 14 15  2  0  0  0  0
 15 16  1  0  0  0  0
 16 17  2  0  0  0  0
 16 18  1  0  0  0  0
 18 34  1  0  0  0  0
 19 36  1  0  0  0  0
 20 38  1  0  0  0  0
 20 40  1  0  0  0  0
 21 42  1  0  0  0  0
 21 41  1  0  0  0  0
 22 44  1  0  0  0  0
 22  1  1  0  0  0  0
 23  2  1  0  0  0  0
 24  6  1  0  0  0  0
 25  7  1  0  0  0  0
 29  9  1  0  0  0  0
 30 11  1  0  0  0  0
 32 13  1  0  0  0  0
 33 15  1  0  0  0  0
 35 19  1  0  0  0  0
 37 19  1  0  0  0  0
 39 20  1  0  0  0  0
 43 21  1  0  0  0  0
M  END
$$$$
