rmsd47.gzmat
 OpenBabel08211713433D

 44 44  0  0  0  0  0  0  0  0999 V2000
    0.0000    0.0000    0.0000 C   0  0  0  0  0  0  0  0  0  0  0  0
    1.3958    0.0000    0.0000 C   0  0  0  0  0  0  0  0  0  0  0  0
    2.0607    0.0000    1.2246 C   0  0  0  0  0  0  0  0  0  0  0  0
    1.3275    0.0030    2.4211 C   0  0  0  0  0  0  0  0  0  0  0  0
   -0.0746   -0.0044    2.3942 C   0  0  0  0  0  0  0  0  0  0  0  0
   -0.7521   -0.0057    1.1751 C   0  0  0  0  0  0  0  0  0  0  0  0
   -0.8454   -0.0059    3.6710 C   0  0  0  0  0  0  0  0  0  0  0  0
    2.0144    0.0030    3.7151 C   0  0  0  0  0  0  0  0  0  0  0  0
    2.5750    1.1037    4.2327 C   0  0  0  0  0  0  0  0  0  0  0  0
    3.2361    1.1241    5.5386 C   0  0  0  0  0  0  0  0  0  0  0  0
    4.0644    0.1311    5.9156 C   0  0  0  0  0  0  0  0  0  0  0  0
    4.7462    0.0648    7.1934 C   0  0  0  0  0  0  0  0  0  0  0  0
    5.2259   -1.0865    7.6947 C   0  0  0  0  0  0  0  0  0  0  0  0
    5.8868   -1.1654    8.9952 C   0  0  0  0  0  0  0  0  0  0  0  0
    6.7634   -0.2204    9.3951 C   0  0  0  0  0  0  0  0  0  0  0  0
    7.4276   -0.2715   10.6869 C   0  0  0  0  0  0  0  0  0  0  0  0
    7.3586   -1.1044   11.5598 O   0  0  0  0  0  0  0  0  0  0  0  0
    8.2286    0.8194   10.8647 O   0  0  0  0  0  0  0  0  0  0  0  0
    5.5371   -2.3426    9.8331 C   0  0  0  0  0  0  0  0  0  0  0  0
    2.8969    2.3133    6.3716 C   0  0  0  0  0  0  0  0  0  0  0  0
    3.5518    0.0091    1.2382 C   0  0  0  0  0  0  0  0  0  0  0  0
   -0.5780    0.0064   -1.2289 O   0  0  0  0  0  0  0  0  0  0  0  0
    1.9364    0.0034   -0.9420 H   0  0  0  0  0  0  0  0  0  0  0  0
   -1.8346   -0.0117    1.1432 H   0  0  0  0  0  0  0  0  0  0  0  0
   -1.9294    0.0730    3.5177 H   0  0  0  0  0  0  0  0  0  0  0  0
   -0.5472    0.8338    4.3181 H   0  0  0  0  0  0  0  0  0  0  0  0
   -0.6641   -0.9298    4.2420 H   0  0  0  0  0  0  0  0  0  0  0  0
    2.0179   -0.9562    4.2375 H   0  0  0  0  0  0  0  0  0  0  0  0
    2.5448    2.0581    3.7043 H   0  0  0  0  0  0  0  0  0  0  0  0
    4.2591   -0.7023    5.2354 H   0  0  0  0  0  0  0  0  0  0  0  0
    4.8455    1.0027    7.7479 H   0  0  0  0  0  0  0  0  0  0  0  0
    5.1219   -2.0320    7.1614 H   0  0  0  0  0  0  0  0  0  0  0  0
    7.0291    0.6288    8.7634 H   0  0  0  0  0  0  0  0  0  0  0  0
    8.6978    0.8168   11.7332 H   0  0  0  0  0  0  0  0  0  0  0  0
    4.7888   -3.0022    9.3794 H   0  0  0  0  0  0  0  0  0  0  0  0
    5.1499   -2.0301   10.8206 H   0  0  0  0  0  0  0  0  0  0  0  0
    6.4301   -2.9516   10.0635 H   0  0  0  0  0  0  0  0  0  0  0  0
    1.8108    2.3735    6.5448 H   0  0  0  0  0  0  0  0  0  0  0  0
    3.1961    3.2470    5.8721 H   0  0  0  0  0  0  0  0  0  0  0  0
    3.3756    2.3078    7.3596 H   0  0  0  0  0  0  0  0  0  0  0  0
    3.9676   -0.4834    2.1287 H   0  0  0  0  0  0  0  0  0  0  0  0
    3.9322    1.0427    1.2361 H   0  0  0  0  0  0  0  0  0  0  0  0
    3.9799   -0.4956    0.3609 H   0  0  0  0  0  0  0  0  0  0  0  0
   -1.5638    0.0106   -1.1783 H   0  0  0  0  0  0  0  0  0  0  0  0
  1  6  1  0  0  0  0
  2  1  2  0  0  0  0
  2  3  1  0  0  0  0
  3 21  1  0  0  0  0
  3  4  2  0  0  0  0
  4  8  1  0  0  0  0
  5  4  1  0  0  0  0
  5  7  1  0  0  0  0
  6  5  2  0  0  0  0
  7 27  1  0  0  0  0
  7 26  1  0  0  0  0
  8  9  2  0  0  0  0
  8 28  1  0  0  0  0
  9 10  1  0  0  0  0
 10 11  2  0  0  0  0
 10 20  1  0  0  0  0
 11 12  1  0  0  0  0
 12 13  2  0  0  0  0
 12 31  1  0  0  0  0
 13 14  1  0  0  0  0
 14 15  2  0  0  0  0
 14 19  1  0  0  0  0
 15 16  1  0  0  0  0
 16 18  1  0  0  0  0
 16 17  2  0  0  0  0
 18 34  1  0  0  0  0
 19 37  1  0  0  0  0
 19 36  1  0  0  0  0
 20 38  1  0  0  0  0
 20 40  1  0  0  0  0
 21 41  1  0  0  0  0
 22 44  1  0  0  0  0
 22  1  1  0  0  0  0
 23  2  1  0  0  0  0
 24  6  1  0  0  0  0
 25  7  1  0  0  0  0
 29  9  1  0  0  0  0
 30 11  1  0  0  0  0
 32 13  1  0  0  0  0
 33 15  1  0  0  0  0
 35 19  1  0  0  0  0
 39 20  1  0  0  0  0
 42 21  1  0  0  0  0
 43 21  1  0  0  0  0
M  END
$$$$
