rmsd246.gzmat
 OpenBabel08211713433D

 44 44  0  0  0  0  0  0  0  0999 V2000
    0.0000    0.0000    0.0000 C   0  0  0  0  0  0  0  0  0  0  0  0
    1.3970    0.0000    0.0000 C   0  0  0  0  0  0  0  0  0  0  0  0
    2.0580    0.0000    1.2250 C   0  0  0  0  0  0  0  0  0  0  0  0
    1.3229    0.0040    2.4214 C   0  0  0  0  0  0  0  0  0  0  0  0
   -0.0777   -0.0037    2.3948 C   0  0  0  0  0  0  0  0  0  0  0  0
   -0.7530   -0.0074    1.1738 C   0  0  0  0  0  0  0  0  0  0  0  0
   -0.8540   -0.0120    3.6678 C   0  0  0  0  0  0  0  0  0  0  0  0
    2.0297    0.0046    3.7045 C   0  0  0  0  0  0  0  0  0  0  0  0
    2.2467    1.1261    4.4037 C   0  0  0  0  0  0  0  0  0  0  0  0
    2.9391    1.1405    5.6916 C   0  0  0  0  0  0  0  0  0  0  0  0
    2.6589    0.2223    6.6384 C   0  0  0  0  0  0  0  0  0  0  0  0
    3.2841    0.1801    7.9449 C   0  0  0  0  0  0  0  0  0  0  0  0
    3.0290   -0.7978    8.8320 C   0  0  0  0  0  0  0  0  0  0  0  0
    3.6252   -0.8363   10.1650 C   0  0  0  0  0  0  0  0  0  0  0  0
    4.9242   -0.5300   10.3649 C   0  0  0  0  0  0  0  0  0  0  0  0
    5.5409   -0.5786   11.6805 C   0  0  0  0  0  0  0  0  0  0  0  0
    5.0751   -0.9207   12.7417 O   0  0  0  0  0  0  0  0  0  0  0  0
    6.8396   -0.1617   11.6233 O   0  0  0  0  0  0  0  0  0  0  0  0
    2.7154   -1.2390   11.2700 C   0  0  0  0  0  0  0  0  0  0  0  0
    3.9406    2.2314    5.8700 C   0  0  0  0  0  0  0  0  0  0  0  0
    3.5482   -0.0002    1.2664 C   0  0  0  0  0  0  0  0  0  0  0  0
   -0.5785    0.0069   -1.2287 O   0  0  0  0  0  0  0  0  0  0  0  0
    1.9369   -0.0013   -0.9420 H   0  0  0  0  0  0  0  0  0  0  0  0
   -1.8355   -0.0159    1.1422 H   0  0  0  0  0  0  0  0  0  0  0  0
   -1.9396    0.0108    3.5080 H   0  0  0  0  0  0  0  0  0  0  0  0
   -0.5996    0.8575    4.2944 H   0  0  0  0  0  0  0  0  0  0  0  0
   -0.6315   -0.9117    4.2614 H   0  0  0  0  0  0  0  0  0  0  0  0
    2.3755   -0.9740    4.0444 H   0  0  0  0  0  0  0  0  0  0  0  0
    1.9175    2.0993    4.0338 H   0  0  0  0  0  0  0  0  0  0  0  0
    1.9103   -0.5492    6.4436 H   0  0  0  0  0  0  0  0  0  0  0  0
    3.9707    0.9955    8.1899 H   0  0  0  0  0  0  0  0  0  0  0  0
    2.3405   -1.6134    8.6052 H   0  0  0  0  0  0  0  0  0  0  0  0
    5.5844   -0.2401    9.5459 H   0  0  0  0  0  0  0  0  0  0  0  0
    7.2911   -0.1839   12.5010 H   0  0  0  0  0  0  0  0  0  0  0  0
    1.6804   -1.4087   10.9516 H   0  0  0  0  0  0  0  0  0  0  0  0
    2.6962   -0.4767   12.0705 H   0  0  0  0  0  0  0  0  0  0  0  0
    3.0714   -2.1584   11.7692 H   0  0  0  0  0  0  0  0  0  0  0  0
    4.0347    2.8732    4.9833 H   0  0  0  0  0  0  0  0  0  0  0  0
    4.9430    1.8236    6.0723 H   0  0  0  0  0  0  0  0  0  0  0  0
    3.6769    2.8873    6.7135 H   0  0  0  0  0  0  0  0  0  0  0  0
    3.9319   -0.8947    1.7811 H   0  0  0  0  0  0  0  0  0  0  0  0
    3.9306    0.8742    1.8158 H   0  0  0  0  0  0  0  0  0  0  0  0
    4.0031    0.0183    0.2670 H   0  0  0  0  0  0  0  0  0  0  0  0
   -1.5646    0.0093   -1.1767 H   0  0  0  0  0  0  0  0  0  0  0  0
  1  6  1  0  0  0  0
  2  1  2  0  0  0  0
  2  3  1  0  0  0  0
  3 21  1  0  0  0  0
  3  4  2  0  0  0  0
  4  8  1  0  0  0  0
  5  4  1  0  0  0  0
  5  7  1  0  0  0  0
  6  5  2  0  0  0  0
  7 27  1  0  0  0  0
  7 26  1  0  0  0  0
  8 28  1  0  0  0  0
  8  9  2  0  0  0  0
  9 10  1  0  0  0  0
 10 20  1  0  0  0  0
 10 11  2  0  0  0  0
 11 12  1  0  0  0  0
 12 31  1  0  0  0  0
 12 13  2  0  0  0  0
 13 14  1  0  0  0  0
 14 15  2  0  0  0  0
 14 19  1  0  0  0  0
 15 16  1  0  0  0  0
 16 17  2  0  0  0  0
 18 16  1  0  0  0  0
 18 34  1  0  0  0  0
 19 37  1  0  0  0  0
 19 36  1  0  0  0  0
 20 39  1  0  0  0  0
 20 40  1  0  0  0  0
 21 41  1  0  0  0  0
 21 42  1  0  0  0  0
 22 44  1  0  0  0  0
 22  1  1  0  0  0  0
 23  2  1  0  0  0  0
 24  6  1  0  0  0  0
 25  7  1  0  0  0  0
 29  9  1  0  0  0  0
 30 11  1  0  0  0  0
 32 13  1  0  0  0  0
 33 15  1  0  0  0  0
 35 19  1  0  0  0  0
 38 20  1  0  0  0  0
 43 21  1  0  0  0  0
M  END
$$$$
