44
rmsd81.gzmat
C          0.00000        0.00000        0.00000
C          1.39710        0.00000        0.00000
C          2.05990        0.00000        1.22420
C          1.32570       -0.00420        2.42230
C         -0.07510       -0.01460        2.39490
C         -0.75220       -0.00860        1.17430
C         -0.84740       -0.03480        3.67020
C          2.02220       -0.01660        3.71040
C          2.66770        1.05500        4.19090
C          3.39570        1.05910        5.45810
C          4.06420       -0.03050        5.88570
C          4.83200       -0.08880        7.11450
C          5.13030       -1.25050        7.72110
C          5.91800       -1.32360        8.94940
C          5.74070       -0.43340        9.94800
C          6.50980       -0.47920       11.18050
O          7.36660       -1.25600       11.53060
O          6.15190        0.54310       12.01100
C          6.90260       -2.43490        9.02420
C          3.35710        2.35200        6.20210
C          3.55070       -0.00770        1.25390
O         -0.57730        0.00770       -1.22900
H          1.93770       -0.00130       -0.94240
H         -1.83480       -0.01080        1.14370
H         -1.92400        0.11750        3.52010
H         -0.50300        0.74860        4.36330
H         -0.72430       -0.99860        4.18880
H          1.97000       -0.96240        4.25460
H          2.67260        2.00080        3.64420
H          4.05360       -0.94820        5.29260
H          5.17740        0.86610        7.52270
H          4.80340       -2.20940        7.31690
H          5.00030        0.36560        9.88660
H          6.65210        0.54350       12.86180
H          6.92760       -3.06370        8.12660
H          6.70500       -3.09110        9.89160
H          7.92650       -2.05220        9.19100
H          2.43670        2.91900        5.99950
H          4.20330        2.99480        5.91360
H          3.40590        2.21490        7.29120
H          3.93300       -0.88280        1.80160
H          3.94460        0.88490        1.76460
H          3.99770       -0.03070        0.25130
H         -1.56340        0.00530       -1.17950
