rmsd93.gzmat
 OpenBabel08211713433D

 44 44  0  0  0  0  0  0  0  0999 V2000
    0.0000    0.0000    0.0000 C   0  0  0  0  0  0  0  0  0  0  0  0
    1.3970    0.0000    0.0000 C   0  0  0  0  0  0  0  0  0  0  0  0
    2.0579    0.0000    1.2249 C   0  0  0  0  0  0  0  0  0  0  0  0
    1.3220   -0.0028    2.4211 C   0  0  0  0  0  0  0  0  0  0  0  0
   -0.0781   -0.0038    2.3955 C   0  0  0  0  0  0  0  0  0  0  0  0
   -0.7532    0.0022    1.1737 C   0  0  0  0  0  0  0  0  0  0  0  0
   -0.8499   -0.0099    3.6714 C   0  0  0  0  0  0  0  0  0  0  0  0
    2.0321    0.0111    3.7023 C   0  0  0  0  0  0  0  0  0  0  0  0
    2.3307   -1.1092    4.3718 C   0  0  0  0  0  0  0  0  0  0  0  0
    3.0450   -1.1031    5.6480 C   0  0  0  0  0  0  0  0  0  0  0  0
    4.1533   -0.3557    5.8175 C   0  0  0  0  0  0  0  0  0  0  0  0
    4.9265   -0.3187    7.0431 C   0  0  0  0  0  0  0  0  0  0  0  0
    5.8366    0.6370    7.2948 C   0  0  0  0  0  0  0  0  0  0  0  0
    6.6163    0.6750    8.5307 C   0  0  0  0  0  0  0  0  0  0  0  0
    7.2197   -0.4339    9.0058 C   0  0  0  0  0  0  0  0  0  0  0  0
    8.0143   -0.4301   10.2230 C   0  0  0  0  0  0  0  0  0  0  0  0
    8.2750    0.4802   10.9740 O   0  0  0  0  0  0  0  0  0  0  0  0
    8.5027   -1.6769   10.4880 O   0  0  0  0  0  0  0  0  0  0  0  0
    6.7081    1.9990    9.1992 C   0  0  0  0  0  0  0  0  0  0  0  0
    2.4641   -1.9722    6.7120 C   0  0  0  0  0  0  0  0  0  0  0  0
    3.5482    0.0004    1.2655 C   0  0  0  0  0  0  0  0  0  0  0  0
   -0.5765   -0.0039   -1.2296 O   0  0  0  0  0  0  0  0  0  0  0  0
    1.9372   -0.0011   -0.9420 H   0  0  0  0  0  0  0  0  0  0  0  0
   -1.8353    0.0093    1.1408 H   0  0  0  0  0  0  0  0  0  0  0  0
   -1.9333   -0.0935    3.5176 H   0  0  0  0  0  0  0  0  0  0  0  0
   -0.6718    0.9128    4.2454 H   0  0  0  0  0  0  0  0  0  0  0  0
   -0.5465   -0.8493    4.3166 H   0  0  0  0  0  0  0  0  0  0  0  0
    2.2974    1.0037    4.0734 H   0  0  0  0  0  0  0  0  0  0  0  0
    2.0483   -2.0941    3.9950 H   0  0  0  0  0  0  0  0  0  0  0  0
    4.5252    0.2647    4.9991 H   0  0  0  0  0  0  0  0  0  0  0  0
    4.7306   -1.1123    7.7702 H   0  0  0  0  0  0  0  0  0  0  0  0
    6.0328    1.4499    6.5945 H   0  0  0  0  0  0  0  0  0  0  0  0
    7.1527   -1.3937    8.4905 H   0  0  0  0  0  0  0  0  0  0  0  0
    9.0541   -1.7094   11.3064 H   0  0  0  0  0  0  0  0  0  0  0  0
    6.0932    2.7741    8.7273 H   0  0  0  0  0  0  0  0  0  0  0  0
    7.7510    2.3622    9.2249 H   0  0  0  0  0  0  0  0  0  0  0  0
    6.4073    1.9361   10.2615 H   0  0  0  0  0  0  0  0  0  0  0  0
    1.5300   -2.4598    6.4007 H   0  0  0  0  0  0  0  0  0  0  0  0
    2.2315   -1.3924    7.6185 H   0  0  0  0  0  0  0  0  0  0  0  0
    3.1617   -2.7716    7.0052 H   0  0  0  0  0  0  0  0  0  0  0  0
    3.9315   -0.8735    1.8159 H   0  0  0  0  0  0  0  0  0  0  0  0
    3.9315    0.8961    1.7776 H   0  0  0  0  0  0  0  0  0  0  0  0
    4.0019   -0.0217    0.2656 H   0  0  0  0  0  0  0  0  0  0  0  0
   -1.5624   -0.0168   -1.1806 H   0  0  0  0  0  0  0  0  0  0  0  0
  1  6  1  0  0  0  0
  2  1  2  0  0  0  0
  2  3  1  0  0  0  0
  3 21  1  0  0  0  0
  3  4  2  0  0  0  0
  4  8  1  0  0  0  0
  5  4  1  0  0  0  0
  5  7  1  0  0  0  0
  6  5  2  0  0  0  0
  7 26  1  0  0  0  0
  7 27  1  0  0  0  0
  8 28  1  0  0  0  0
  8  9  2  0  0  0  0
  9 10  1  0  0  0  0
 10 11  2  0  0  0  0
 10 20  1  0  0  0  0
 11 12  1  0  0  0  0
 12 13  2  0  0  0  0
 12 31  1  0  0  0  0
 13 14  1  0  0  0  0
 14 15  2  0  0  0  0
 14 19  1  0  0  0  0
 15 16  1  0  0  0  0
 16 18  1  0  0  0  0
 16 17  2  0  0  0  0
 18 34  1  0  0  0  0
 19 36  1  0  0  0  0
 19 37  1  0  0  0  0
 20 40  1  0  0  0  0
 20 39  1  0  0  0  0
 21 42  1  0  0  0  0
 21 41  1  0  0  0  0
 22 44  1  0  0  0  0
 22  1  1  0  0  0  0
 23  2  1  0  0  0  0
 24  6  1  0  0  0  0
 25  7  1  0  0  0  0
 29  9  1  0  0  0  0
 30 11  1  0  0  0  0
 32 13  1  0  0  0  0
 33 15  1  0  0  0  0
 35 19  1  0  0  0  0
 38 20  1  0  0  0  0
 43 21  1  0  0  0  0
M  END
$$$$
