38

S          0.17750        0.04180       -0.03870
O          1.63560       -0.05140        0.13660
O         -0.42900        0.19190       -1.36880
C         -0.40690        1.38270        1.02180
C         -1.68520        1.90260        0.81310
C         -2.22290        2.77360        1.76010
C         -1.46480        3.07500        2.89230
N         -2.07270        3.90330        3.95160
O         -1.48850        3.96140        5.02470
O         -3.12400        4.46520        3.69860
C         -0.16800        2.59660        3.08030
C          0.37560        1.75170        2.11690
C         -0.57650       -1.43750        0.79080
C         -0.53730       -1.28010        2.27460
C         -1.64690       -0.76670        2.96340
C         -1.56300       -0.36270        4.28890
C         -0.34200       -0.46280        5.00410
N         -0.23510       -0.01250        6.30140
C          1.04900       -0.04520        6.96840
C         -1.31000        0.77290        6.87930
C          0.76320       -1.03210        4.32010
C          0.66090       -1.42210        2.98900
H         -2.25190        1.60680       -0.07150
H         -3.22010        3.19880        1.65480
H          0.38100        2.86940        3.97990
H          1.37660        1.33600        2.22600
H          0.04300       -2.25820        0.39900
H         -1.59270       -1.50920        0.38110
H         -2.59560       -0.64170        2.43500
H         -2.44910        0.04950        4.76760
H          1.80370        0.60030        6.47730
H          1.45850       -1.06870        7.00380
H          0.92960        0.29950        8.00310
H         -1.50140        1.70440        6.31410
H         -1.04250        1.04930        7.90660
H         -2.25130        0.19970        6.92660
H          1.72110       -1.14860        4.82380
H          1.54900       -1.79920        2.47650
