rmsd57.gzmat
 OpenBabel08211713373D

 38 39  0  0  0  0  0  0  0  0999 V2000
    0.0000    0.0000    0.0000 S   0  0  0  0  0  0  0  0  0  0  0  0
    1.4456    0.0000    0.0000 O   0  0  0  0  0  0  0  0  0  0  0  0
   -0.7537    0.0000   -1.2357 O   0  0  0  0  0  0  0  0  0  0  0  0
   -0.5407    1.4125    0.9356 C   0  0  0  0  0  0  0  0  0  0  0  0
    0.2346    1.8817    1.9929 C   0  0  0  0  0  0  0  0  0  0  0  0
   -0.2227    2.9423    2.7738 C   0  0  0  0  0  0  0  0  0  0  0  0
   -1.4497    3.5278    2.4582 C   0  0  0  0  0  0  0  0  0  0  0  0
   -1.9481    4.6253    3.2799 N   0  0  0  0  0  0  0  0  0  0  0  0
   -2.9644    5.1974    2.9192 O   0  0  0  0  0  0  0  0  0  0  0  0
   -1.3299    4.9183    4.2902 O   0  0  0  0  0  0  0  0  0  0  0  0
   -2.2138    3.0919    1.3732 C   0  0  0  0  0  0  0  0  0  0  0  0
   -1.7481    2.0250    0.6087 C   0  0  0  0  0  0  0  0  0  0  0  0
   -0.5537   -1.4345    0.9423 C   0  0  0  0  0  0  0  0  0  0  0  0
   -0.3177   -1.2246    2.3950 C   0  0  0  0  0  0  0  0  0  0  0  0
   -1.3721   -0.8924    3.2480 C   0  0  0  0  0  0  0  0  0  0  0  0
   -1.1461   -0.6427    4.5941 C   0  0  0  0  0  0  0  0  0  0  0  0
    0.1574   -0.7245    5.1285 C   0  0  0  0  0  0  0  0  0  0  0  0
    0.4205   -0.3251    6.4450 N   0  0  0  0  0  0  0  0  0  0  0  0
    1.6541   -0.8344    7.0677 C   0  0  0  0  0  0  0  0  0  0  0  0
   -0.7173   -0.2996    7.3795 C   0  0  0  0  0  0  0  0  0  0  0  0
    1.2123   -1.0964    4.2665 C   0  0  0  0  0  0  0  0  0  0  0  0
    0.9719   -1.3393    2.9235 C   0  0  0  0  0  0  0  0  0  0  0  0
    1.2040    1.4244    2.2312 H   0  0  0  0  0  0  0  0  0  0  0  0
    0.3649    3.3017    3.6244 H   0  0  0  0  0  0  0  0  0  0  0  0
   -3.1611    3.5815    1.1295 H   0  0  0  0  0  0  0  0  0  0  0  0
   -2.3379    1.6860   -0.2528 H   0  0  0  0  0  0  0  0  0  0  0  0
   -0.0163   -2.3382    0.5804 H   0  0  0  0  0  0  0  0  0  0  0  0
   -1.6184   -1.6494    0.7185 H   0  0  0  0  0  0  0  0  0  0  0  0
   -2.3887   -0.8243    2.8597 H   0  0  0  0  0  0  0  0  0  0  0  0
   -1.9872   -0.3764    5.2265 H   0  0  0  0  0  0  0  0  0  0  0  0
    2.5317   -0.4526    6.5142 H   0  0  0  0  0  0  0  0  0  0  0  0
    1.7028   -1.9351    7.1004 H   0  0  0  0  0  0  0  0  0  0  0  0
    1.7441   -0.4494    8.0983 H   0  0  0  0  0  0  0  0  0  0  0  0
   -1.4363    0.4769    7.0569 H   0  0  0  0  0  0  0  0  0  0  0  0
   -0.3757   -0.0097    8.3881 H   0  0  0  0  0  0  0  0  0  0  0  0
   -1.2422   -1.2658    7.4549 H   0  0  0  0  0  0  0  0  0  0  0  0
    2.2264   -1.1886    4.6434 H   0  0  0  0  0  0  0  0  0  0  0  0
    1.8062   -1.6097    2.2686 H   0  0  0  0  0  0  0  0  0  0  0  0
  1  4  1  0  0  0  0
  1 13  1  0  0  0  0
  2  1  2  0  0  0  0
  3  1  2  0  0  0  0
  4  5  1  0  0  0  0
  5 23  1  0  0  0  0
  5  6  2  0  0  0  0
  6 24  1  0  0  0  0
  7  6  1  0  0  0  0
  7  8  1  0  0  0  0
  8 10  2  0  0  0  0
  9  8  2  0  0  0  0
 11  7  2  0  0  0  0
 12  4  2  0  0  0  0
 12 11  1  0  0  0  0
 13 14  1  0  0  0  0
 14 22  2  0  0  0  0
 14 15  1  0  0  0  0
 15 16  2  0  0  0  0
 16 17  1  0  0  0  0
 16 30  1  0  0  0  0
 17 18  1  0  0  0  0
 18 19  1  0  0  0  0
 18 20  1  0  0  0  0
 19 32  1  0  0  0  0
 19 33  1  0  0  0  0
 20 36  1  0  0  0  0
 20 35  1  0  0  0  0
 21 37  1  0  0  0  0
 21 17  2  0  0  0  0
 22 21  1  0  0  0  0
 25 11  1  0  0  0  0
 26 12  1  0  0  0  0
 27 13  1  0  0  0  0
 28 13  1  0  0  0  0
 29 15  1  0  0  0  0
 31 19  1  0  0  0  0
 34 20  1  0  0  0  0
 38 22  1  0  0  0  0
M  END
$$$$
