
     RDKit          3D

 38 39  0  0  0  0  0  0  0  0999 V2000
    0.1775    0.0418   -0.0387 S   0  0  0  0  0  0  0  0  0  0  0  0
    1.6356   -0.0514    0.1366 O   0  0  0  0  0  0  0  0  0  0  0  0
   -0.4290    0.1919   -1.3688 O   0  0  0  0  0  0  0  0  0  0  0  0
   -0.4069    1.3827    1.0218 C   0  0  0  0  0  0  0  0  0  0  0  0
   -1.6852    1.9026    0.8131 C   0  0  0  0  0  0  0  0  0  0  0  0
   -2.2229    2.7736    1.7601 C   0  0  0  0  0  0  0  0  0  0  0  0
   -1.4648    3.0750    2.8923 C   0  0  0  0  0  0  0  0  0  0  0  0
   -2.0727    3.9033    3.9516 N   0  0  0  0  0  0  0  0  0  0  0  0
   -1.4885    3.9614    5.0247 O   0  0  0  0  0  0  0  0  0  0  0  0
   -3.1240    4.4652    3.6986 O   0  0  0  0  0  0  0  0  0  0  0  0
   -0.1680    2.5966    3.0803 C   0  0  0  0  0  0  0  0  0  0  0  0
    0.3756    1.7517    2.1169 C   0  0  0  0  0  0  0  0  0  0  0  0
   -0.5765   -1.4375    0.7908 C   0  0  0  0  0  0  0  0  0  0  0  0
   -0.5373   -1.2801    2.2746 C   0  0  0  0  0  0  0  0  0  0  0  0
   -1.6469   -0.7667    2.9634 C   0  0  0  0  0  0  0  0  0  0  0  0
   -1.5630   -0.3627    4.2889 C   0  0  0  0  0  0  0  0  0  0  0  0
   -0.3420   -0.4628    5.0041 C   0  0  0  0  0  0  0  0  0  0  0  0
   -0.2351   -0.0125    6.3014 N   0  0  0  0  0  0  0  0  0  0  0  0
    1.0490   -0.0452    6.9684 C   0  0  0  0  0  0  0  0  0  0  0  0
   -1.3100    0.7729    6.8793 C   0  0  0  0  0  0  0  0  0  0  0  0
    0.7632   -1.0321    4.3201 C   0  0  0  0  0  0  0  0  0  0  0  0
    0.6609   -1.4221    2.9890 C   0  0  0  0  0  0  0  0  0  0  0  0
   -2.2519    1.6068   -0.0715 H   0  0  0  0  0  0  0  0  0  0  0  0
   -3.2201    3.1988    1.6548 H   0  0  0  0  0  0  0  0  0  0  0  0
    0.3810    2.8694    3.9799 H   0  0  0  0  0  0  0  0  0  0  0  0
    1.3766    1.3360    2.2260 H   0  0  0  0  0  0  0  0  0  0  0  0
    0.0430   -2.2582    0.3990 H   0  0  0  0  0  0  0  0  0  0  0  0
   -1.5927   -1.5092    0.3811 H   0  0  0  0  0  0  0  0  0  0  0  0
   -2.5956   -0.6417    2.4350 H   0  0  0  0  0  0  0  0  0  0  0  0
   -2.4491    0.0495    4.7676 H   0  0  0  0  0  0  0  0  0  0  0  0
    1.8037    0.6003    6.4773 H   0  0  0  0  0  0  0  0  0  0  0  0
    1.4585   -1.0687    7.0038 H   0  0  0  0  0  0  0  0  0  0  0  0
    0.9296    0.2995    8.0031 H   0  0  0  0  0  0  0  0  0  0  0  0
   -1.5014    1.7044    6.3141 H   0  0  0  0  0  0  0  0  0  0  0  0
   -1.0425    1.0493    7.9066 H   0  0  0  0  0  0  0  0  0  0  0  0
   -2.2513    0.1997    6.9266 H   0  0  0  0  0  0  0  0  0  0  0  0
    1.7211   -1.1486    4.8238 H   0  0  0  0  0  0  0  0  0  0  0  0
    1.5490   -1.7992    2.4765 H   0  0  0  0  0  0  0  0  0  0  0  0
  1  2  2  0
  1  3  2  0
  1  4  1  0
  1 13  1  0
  4  5  2  0
  4 12  1  0
  5  6  1  0
  5 23  1  0
  6  7  2  0
  6 24  1  0
  7  8  1  0
  7 11  1  0
  8  9  1  0
  8 10  2  0
 11 12  2  0
 11 25  1  0
 12 26  1  0
 13 14  1  0
 13 27  1  0
 13 28  1  0
 14 15  2  0
 14 22  1  0
 15 16  1  0
 15 29  1  0
 16 17  2  0
 16 30  1  0
 17 18  1  0
 17 21  1  0
 18 19  1  0
 18 20  1  0
 19 31  1  0
 19 32  1  0
 19 33  1  0
 20 34  1  0
 20 35  1  0
 20 36  1  0
 21 22  2  0
 21 37  1  0
 22 38  1  0
M  CHG  2   8   1   9  -1
M  END

