rmsd124.gzmat
 OpenBabel08211713373D

 38 39  0  0  0  0  0  0  0  0999 V2000
    0.0000    0.0000    0.0000 S   0  0  0  0  0  0  0  0  0  0  0  0
    1.4455    0.0000    0.0000 O   0  0  0  0  0  0  0  0  0  0  0  0
   -0.7529    0.0000   -1.2358 O   0  0  0  0  0  0  0  0  0  0  0  0
   -0.5385    1.4133    0.9348 C   0  0  0  0  0  0  0  0  0  0  0  0
    0.2800    1.9342    1.9332 C   0  0  0  0  0  0  0  0  0  0  0  0
   -0.1614    3.0092    2.7033 C   0  0  0  0  0  0  0  0  0  0  0  0
   -1.4213    3.5496    2.4420 C   0  0  0  0  0  0  0  0  0  0  0  0
   -1.9022    4.6638    3.2512 N   0  0  0  0  0  0  0  0  0  0  0  0
   -3.0565    5.0293    3.0956 O   0  0  0  0  0  0  0  0  0  0  0  0
   -1.1323    5.1761    4.0466 O   0  0  0  0  0  0  0  0  0  0  0  0
   -2.2364    3.0534    1.4222 C   0  0  0  0  0  0  0  0  0  0  0  0
   -1.7825    1.9777    0.6631 C   0  0  0  0  0  0  0  0  0  0  0  0
   -0.5583   -1.4320    0.9406 C   0  0  0  0  0  0  0  0  0  0  0  0
   -0.3442   -1.2263    2.3975 C   0  0  0  0  0  0  0  0  0  0  0  0
   -1.4006   -0.8447    3.2262 C   0  0  0  0  0  0  0  0  0  0  0  0
   -1.2011   -0.6380    4.5845 C   0  0  0  0  0  0  0  0  0  0  0  0
    0.0756   -0.8180    5.1546 C   0  0  0  0  0  0  0  0  0  0  0  0
    0.3313   -0.5012    6.4967 N   0  0  0  0  0  0  0  0  0  0  0  0
    1.4204   -1.2506    7.1493 C   0  0  0  0  0  0  0  0  0  0  0  0
   -0.8317   -0.3051    7.3772 C   0  0  0  0  0  0  0  0  0  0  0  0
    1.1372   -1.2158    4.3120 C   0  0  0  0  0  0  0  0  0  0  0  0
    0.9243   -1.4122    2.9572 C   0  0  0  0  0  0  0  0  0  0  0  0
    1.2732    1.5094    2.1295 H   0  0  0  0  0  0  0  0  0  0  0  0
    0.4659    3.4176    3.5013 H   0  0  0  0  0  0  0  0  0  0  0  0
   -3.2130    3.5042    1.2244 H   0  0  0  0  0  0  0  0  0  0  0  0
   -2.4107    1.5958   -0.1517 H   0  0  0  0  0  0  0  0  0  0  0  0
   -0.0140   -2.3345    0.5853 H   0  0  0  0  0  0  0  0  0  0  0  0
   -1.6199   -1.6518    0.7049 H   0  0  0  0  0  0  0  0  0  0  0  0
   -2.3997   -0.7078    2.8111 H   0  0  0  0  0  0  0  0  0  0  0  0
   -2.0456   -0.3414    5.1985 H   0  0  0  0  0  0  0  0  0  0  0  0
    2.3888   -0.9198    6.7309 H   0  0  0  0  0  0  0  0  0  0  0  0
    1.3324   -2.3423    7.0242 H   0  0  0  0  0  0  0  0  0  0  0  0
    1.4505   -1.0287    8.2289 H   0  0  0  0  0  0  0  0  0  0  0  0
   -1.4252    0.5540    7.0126 H   0  0  0  0  0  0  0  0  0  0  0  0
   -0.4921   -0.0398    8.3933 H   0  0  0  0  0  0  0  0  0  0  0  0
   -1.4853   -1.1893    7.4475 H   0  0  0  0  0  0  0  0  0  0  0  0
    2.1351   -1.3596    4.7164 H   0  0  0  0  0  0  0  0  0  0  0  0
    1.7629   -1.7054    2.3188 H   0  0  0  0  0  0  0  0  0  0  0  0
  1  4  1  0  0  0  0
  1 13  1  0  0  0  0
  2  1  2  0  0  0  0
  3  1  2  0  0  0  0
  4  5  1  0  0  0  0
  5 23  1  0  0  0  0
  5  6  2  0  0  0  0
  6 24  1  0  0  0  0
  7  6  1  0  0  0  0
  7  8  1  0  0  0  0
  8 10  2  0  0  0  0
  9  8  2  0  0  0  0
 11  7  2  0  0  0  0
 12  4  2  0  0  0  0
 12 11  1  0  0  0  0
 13 14  1  0  0  0  0
 14 22  2  0  0  0  0
 14 15  1  0  0  0  0
 15 16  2  0  0  0  0
 16 17  1  0  0  0  0
 16 30  1  0  0  0  0
 17 18  1  0  0  0  0
 18 19  1  0  0  0  0
 18 20  1  0  0  0  0
 19 33  1  0  0  0  0
 20 36  1  0  0  0  0
 20 35  1  0  0  0  0
 21 37  1  0  0  0  0
 21 17  2  0  0  0  0
 22 21  1  0  0  0  0
 25 11  1  0  0  0  0
 26 12  1  0  0  0  0
 27 13  1  0  0  0  0
 28 13  1  0  0  0  0
 29 15  1  0  0  0  0
 31 19  1  0  0  0  0
 32 19  1  0  0  0  0
 34 20  1  0  0  0  0
 38 22  1  0  0  0  0
M  END
$$$$
