38
rmsd151.gzmat
S          0.00000        0.00000        0.00000
O          1.44550        0.00000        0.00000
O         -0.75260        0.00000       -1.23630
C         -0.54250        1.41120        0.93660
C          0.21350        1.85560        2.01800
C         -0.25650        2.90030        2.81240
C         -1.47480        3.49700        2.48500
N         -1.99550        4.56400        3.33170
O         -3.04420        5.09740        3.00620
O         -1.36430        4.86890        4.33030
C         -2.21150        3.09630        1.36800
C         -1.73510        2.04260        0.59190
C         -0.55480       -1.43490        0.94220
C         -0.30380       -1.23570        2.39390
C         -1.34570       -0.89890        3.25950
C         -1.10180       -0.65240        4.60410
C          0.20680       -0.74040        5.12060
N          0.51260       -0.33420        6.42650
C          1.64020       -1.02100        7.08160
C         -0.61050       -0.08000        7.34210
C          1.24830       -1.12920        4.24850
C          0.99020       -1.36880        2.90900
H          1.17640        1.39030        2.26670
H          0.31440        3.23800        3.68300
H         -3.14680        3.60140        1.11050
H         -2.30670        1.72630       -0.29050
H         -0.02670       -2.34020        0.57040
H         -1.62280       -1.64280        0.72780
H         -2.36710       -0.82650        2.88480
H         -1.93600       -0.39490        5.24920
H          2.58390       -0.72230        6.58940
H          1.55560       -2.11940        7.05140
H          1.72140       -0.70960        8.13620
H         -1.25840        0.71060        6.91890
H         -0.22630        0.31460        8.29940
H         -1.22150       -0.97280        7.55050
H          2.26540       -1.22550        4.61700
H          1.81370       -1.64840        2.24480
