38
rmsd57.gzmat
S          0.00000        0.00000        0.00000
O          1.44560        0.00000        0.00000
O         -0.75370        0.00000       -1.23570
C         -0.54070        1.41250        0.93560
C          0.23460        1.88170        1.99290
C         -0.22270        2.94230        2.77380
C         -1.44970        3.52780        2.45820
N         -1.94810        4.62530        3.27990
O         -2.96440        5.19740        2.91920
O         -1.32990        4.91830        4.29020
C         -2.21380        3.09190        1.37320
C         -1.74810        2.02500        0.60870
C         -0.55370       -1.43450        0.94230
C         -0.31770       -1.22460        2.39500
C         -1.37210       -0.89240        3.24800
C         -1.14610       -0.64270        4.59410
C          0.15740       -0.72450        5.12850
N          0.42050       -0.32510        6.44500
C          1.65410       -0.83440        7.06770
C         -0.71730       -0.29960        7.37950
C          1.21230       -1.09640        4.26650
C          0.97190       -1.33930        2.92350
H          1.20400        1.42440        2.23120
H          0.36490        3.30170        3.62440
H         -3.16110        3.58150        1.12950
H         -2.33790        1.68600       -0.25280
H         -0.01630       -2.33820        0.58040
H         -1.61840       -1.64940        0.71850
H         -2.38870       -0.82430        2.85970
H         -1.98720       -0.37640        5.22650
H          2.53170       -0.45260        6.51420
H          1.70280       -1.93510        7.10040
H          1.74410       -0.44940        8.09830
H         -1.43630        0.47690        7.05690
H         -0.37570       -0.00970        8.38810
H         -1.24220       -1.26580        7.45490
H          2.22640       -1.18860        4.64340
H          1.80620       -1.60970        2.26860
