38
rmsd104.gzmat
S          0.00000        0.00000        0.00000
O          1.44590        0.00000        0.00000
O         -0.75400        0.00000       -1.23520
C         -0.53600        1.41470        0.93490
C         -1.76590        2.00030        0.64580
C         -2.22440        3.06610        1.41610
C         -1.42960        3.52900        2.46700
N         -1.92100        4.62350        3.29620
O         -1.18780        5.06640        4.16470
O         -3.04750        5.04370        3.08340
C         -0.18050        2.97130        2.74270
C          0.26750        1.90900        1.95880
C         -0.54840       -1.43720        0.94370
C         -0.46720       -1.16340        2.40230
C         -1.61090       -0.82190        3.12880
C         -1.52550       -0.48710        4.47180
C         -0.27640       -0.48460        5.13060
N         -0.16390        0.03030        6.42560
C          1.08430       -0.23500        7.15750
C         -1.36190       -0.03260        7.27950
C          0.86450       -0.89190        4.40580
C          0.76310       -1.22170        3.06310
H         -2.38000        1.64050       -0.18940
H         -3.19020        3.53380        1.20480
H          0.43100        3.35330        3.56560
H          1.25100        1.46910        2.16850
H          0.07870       -2.31290        0.66800
H         -1.57160       -1.72910        0.63040
H         -2.58540       -0.80960        2.63950
H         -2.43020       -0.21300        5.00560
H          1.92930        0.23600        6.62090
H          1.29590       -1.30870        7.28840
H          1.04580        0.23710        8.15470
H         -2.11560        0.68230        6.89760
H         -1.12170        0.28280        8.30870
H         -1.81170       -1.03810        7.32290
H          1.83540       -0.95040        4.88760
H          1.66200       -1.51830        2.51490
