rmsd100.gzmat
 OpenBabel08211713373D

 38 39  0  0  0  0  0  0  0  0999 V2000
    0.0000    0.0000    0.0000 S   0  0  0  0  0  0  0  0  0  0  0  0
    1.4472    0.0000    0.0000 O   0  0  0  0  0  0  0  0  0  0  0  0
   -0.7518    0.0000   -1.2346 O   0  0  0  0  0  0  0  0  0  0  0  0
   -0.5191    1.4146    0.9449 C   0  0  0  0  0  0  0  0  0  0  0  0
    0.3670    1.9940    1.8494 C   0  0  0  0  0  0  0  0  0  0  0  0
   -0.0543    3.0496    2.6543 C   0  0  0  0  0  0  0  0  0  0  0  0
   -1.3667    3.5102    2.5287 C   0  0  0  0  0  0  0  0  0  0  0  0
   -1.8258    4.5893    3.3957 N   0  0  0  0  0  0  0  0  0  0  0  0
   -2.9433    5.0427    3.2126 O   0  0  0  0  0  0  0  0  0  0  0  0
   -1.0705    4.9860    4.2693 O   0  0  0  0  0  0  0  0  0  0  0  0
   -2.2494    2.9638    1.5959 C   0  0  0  0  0  0  0  0  0  0  0  0
   -1.8109    1.9114    0.7930 C   0  0  0  0  0  0  0  0  0  0  0  0
   -0.5165   -1.4354    0.9646 C   0  0  0  0  0  0  0  0  0  0  0  0
   -1.8042   -1.1658    1.6562 C   0  0  0  0  0  0  0  0  0  0  0  0
   -3.0155   -1.2878    0.9702 C   0  0  0  0  0  0  0  0  0  0  0  0
   -4.2168   -0.9823    1.5907 C   0  0  0  0  0  0  0  0  0  0  0  0
   -4.2399   -0.5365    2.9301 C   0  0  0  0  0  0  0  0  0  0  0  0
   -5.4249   -0.0686    3.5099 N   0  0  0  0  0  0  0  0  0  0  0  0
   -5.4821   -0.0173    4.9804 C   0  0  0  0  0  0  0  0  0  0  0  0
   -6.6933   -0.5148    2.9101 C   0  0  0  0  0  0  0  0  0  0  0  0
   -3.0156   -0.4535    3.6281 C   0  0  0  0  0  0  0  0  0  0  0  0
   -1.8222   -0.7664    2.9949 C   0  0  0  0  0  0  0  0  0  0  0  0
    1.4009    1.6361    1.9336 H   0  0  0  0  0  0  0  0  0  0  0  0
    0.6280    3.5090    3.3750 H   0  0  0  0  0  0  0  0  0  0  0  0
   -3.2703    3.3470    1.5045 H   0  0  0  0  0  0  0  0  0  0  0  0
   -2.4984    1.4835    0.0521 H   0  0  0  0  0  0  0  0  0  0  0  0
    0.2839   -1.7231    1.6773 H   0  0  0  0  0  0  0  0  0  0  0  0
   -0.6029   -2.3146    0.2894 H   0  0  0  0  0  0  0  0  0  0  0  0
   -3.0192   -1.6163   -0.0727 H   0  0  0  0  0  0  0  0  0  0  0  0
   -5.1386   -1.0838    1.0263 H   0  0  0  0  0  0  0  0  0  0  0  0
   -4.7333    0.7061    5.3526 H   0  0  0  0  0  0  0  0  0  0  0  0
   -5.3048   -0.9946    5.4574 H   0  0  0  0  0  0  0  0  0  0  0  0
   -6.4666    0.3572    5.3089 H   0  0  0  0  0  0  0  0  0  0  0  0
   -6.7530   -0.1594    1.8650 H   0  0  0  0  0  0  0  0  0  0  0  0
   -7.5436   -0.0561    3.4436 H   0  0  0  0  0  0  0  0  0  0  0  0
   -6.8214   -1.6093    2.9248 H   0  0  0  0  0  0  0  0  0  0  0  0
   -2.9925   -0.1356    4.6658 H   0  0  0  0  0  0  0  0  0  0  0  0
   -0.8891   -0.6920    3.5540 H   0  0  0  0  0  0  0  0  0  0  0  0
  1  4  1  0  0  0  0
  1 13  1  0  0  0  0
  2  1  2  0  0  0  0
  3  1  2  0  0  0  0
  4  5  1  0  0  0  0
  5 23  1  0  0  0  0
  5  6  2  0  0  0  0
  6 24  1  0  0  0  0
  7  6  1  0  0  0  0
  7  8  1  0  0  0  0
  8 10  2  0  0  0  0
  9  8  2  0  0  0  0
 11  7  2  0  0  0  0
 12  4  2  0  0  0  0
 12 11  1  0  0  0  0
 13 14  1  0  0  0  0
 13 27  1  0  0  0  0
 14 22  2  0  0  0  0
 15 16  2  0  0  0  0
 15 14  1  0  0  0  0
 16 17  1  0  0  0  0
 17 18  1  0  0  0  0
 17 21  2  0  0  0  0
 18 19  1  0  0  0  0
 19 33  1  0  0  0  0
 19 31  1  0  0  0  0
 19 32  1  0  0  0  0
 20 36  1  0  0  0  0
 20 35  1  0  0  0  0
 20 18  1  0  0  0  0
 21 37  1  0  0  0  0
 22 38  1  0  0  0  0
 22 21  1  0  0  0  0
 25 11  1  0  0  0  0
 26 12  1  0  0  0  0
 28 13  1  0  0  0  0
 29 15  1  0  0  0  0
 30 16  1  0  0  0  0
 34 20  1  0  0  0  0
M  END
$$$$
