45

C          0.12520        0.04080       -0.10610
C          1.46550        0.41780       -0.33550
O          2.34350        0.79460        0.60540
C          2.24060        0.40830        1.96650
C          1.96060        0.40270       -1.66250
Br         3.76730        0.89570       -1.99020
C          1.15180        0.01780       -2.72130
C         -0.16970       -0.38090       -2.50160
C         -0.67520       -0.37220       -1.20020
O         -1.95420       -0.73130       -0.89590
C         -2.86520       -1.00560       -1.93690
C         -0.54990        0.26930        1.22610
O         -0.54720        1.37000        1.75850
N         -1.14770       -0.82670        1.77300
C         -2.09510       -0.72820        2.86790
C         -3.55580       -0.70230        2.38850
H         -3.69900       -1.55780        1.69430
C         -3.95320        0.61110        1.67510
C         -4.80410        1.34980        2.71590
C         -5.50280        0.20090        3.43700
N         -4.45810       -0.80850        3.54200
C         -4.88240       -2.14940        3.88350
C         -5.50610       -2.24540        5.27210
H          1.62360        1.11790        2.53360
H          3.26730        0.39890        2.35750
H          1.80640       -0.60030        2.06100
H          1.56190        0.01370       -3.73210
H         -0.78420       -0.68660       -3.34630
H         -2.56390       -1.89180       -2.52270
H         -2.97140       -0.14450       -2.61890
H         -3.83170       -1.20560       -1.45600
H         -1.22590       -1.63630        1.16860
H         -1.87090        0.19150        3.42290
H         -1.95180       -1.57840        3.55420
H         -4.56310        0.38130        0.78710
H         -3.08340        1.18980        1.34010
H         -4.15890        1.89540        3.42270
H         -5.50590        2.07130        2.27240
H         -5.88810        0.48660        4.42890
H         -6.37300       -0.16050        2.83850
H         -3.99760       -2.80670        3.84550
H         -5.59900       -2.55170        3.12600
H         -4.81210       -1.85010        6.03040
H         -5.74070       -3.29220        5.52070
H         -6.44340       -1.67160        5.33870
