45
rmsd111.gzmat
C          0.00000        0.00000        0.00000
C          1.39390        0.00000        0.00000
O          2.23300        0.00000        1.04660
C          1.71800        0.11660        2.36810
C          2.08960       -0.04690       -1.23120
Br         3.97750       -0.03590       -1.20160
C          1.41760       -0.09340       -2.43600
C          0.02020       -0.11170       -2.45610
C         -0.66320       -0.07190       -1.24540
O         -2.00980       -0.12730       -1.10610
C         -2.80570       -0.03240       -2.28080
C         -0.85820        0.15810        1.19760
O         -0.92150        1.17240        1.86170
N         -1.59710       -0.96790        1.53800
C         -2.70430       -0.81820        2.48530
C         -3.99310       -0.27940        1.79420
H         -3.70030        0.41650        0.96860
C         -4.88460        0.43000        2.84030
C         -5.81580       -0.67270        3.37270
C         -5.79990       -1.77690        2.29150
N         -4.89870       -1.29720        1.20990
C         -4.22860       -2.38100        0.46870
C         -5.27070       -3.19540       -0.31000
H          2.63470        0.02590        2.96770
H          1.02220       -0.69510        2.60060
H          1.25560        1.10240        2.51680
H          1.96370       -0.12010       -3.38340
H         -0.50400       -0.15600       -3.40330
H         -2.66420       -0.91130       -2.91620
H         -2.59830        0.89710       -2.81960
H         -3.82430       -0.01430       -1.86120
H         -1.65180       -1.74190        0.89280
H         -2.38910       -0.10940        3.28910
H         -2.89890       -1.79370        2.97580
H         -5.46760        1.23250        2.35320
H         -4.30170        0.91270        3.63710
H         -5.46230       -1.06050        4.34080
H         -6.83410       -0.28980        3.54090
H         -5.49040       -2.74940        2.71790
H         -6.80320       -1.91690        1.84000
H         -3.63490       -3.05690        1.12110
H         -3.52330       -1.90640       -0.25330
H         -5.87940       -3.81670        0.35400
H         -4.78950       -3.85170       -1.04120
H         -5.95660       -2.52990       -0.85010
