45
rmsd212.gzmat
C          0.00000        0.00000        0.00000
C          1.39450        0.00000        0.00000
O          2.23590        0.00000        1.04460
C          1.72420       -0.06940        2.37070
C          2.09050        0.04000       -1.23110
Br         3.97840        0.02710       -1.20120
C          1.41930        0.08240       -2.43630
C          0.02200        0.09300       -2.45670
C         -0.66270        0.05100       -1.24630
O         -2.01060        0.08360       -1.11190
C         -2.79440       -0.06340       -2.28970
C         -0.84940       -0.12900        1.20750
O         -0.91650       -1.13390        1.88700
N         -1.55220        1.01630        1.55020
C         -2.58640        0.93250        2.58290
C         -3.95860        0.52880        1.96310
H         -3.79710       -0.30900        1.24000
C         -4.61910        1.75350        1.28470
C         -5.47220        2.39920        2.39250
C         -5.66790        1.29380        3.45520
N         -4.98490        0.08210        2.92840
C         -4.53890       -0.83350        3.99620
C         -3.95510       -2.11450        3.39260
H          2.64240        0.03940        2.96460
H          1.25860       -1.04810        2.55120
H          1.03250        0.75210        2.57940
H          1.96630        0.10940       -3.38300
H         -0.50100        0.13560       -3.40450
H         -2.53760       -0.98500       -2.82180
H         -2.69110        0.81690       -2.93090
H         -3.81200       -0.13160       -1.87780
H         -1.62530        1.77960        0.89470
H         -2.66110        1.91090        3.10120
H         -2.27480        0.18180        3.34790
H         -5.25690        1.42110        0.44750
H         -3.88460        2.45100        0.86330
H         -4.96740        3.27750        2.82320
H         -6.43760        2.75290        2.00020
H         -5.28660        1.61920        4.44150
H         -6.73940        1.03480        3.58030
H         -5.44210       -1.08790        4.59940
H         -3.81000       -0.36960        4.69510
H         -4.62480       -2.52960        2.62940
H         -3.80140       -2.87730        4.16150
H         -2.98450       -1.93760        2.90390
