45
rmsd25.gzmat
C          0.00000        0.00000        0.00000
C          1.39510        0.00000        0.00000
O          2.23670        0.00000        1.04560
C          1.73370       -0.16620        2.36620
C          2.09270        0.04810       -1.22910
Br         3.98050        0.07600       -1.19580
C          1.42270        0.07200       -2.43610
C          0.02620        0.06880       -2.45760
C         -0.66120        0.03960       -1.24690
O         -2.00750        0.07370       -1.11790
C         -2.79100        0.00660       -2.30380
C         -0.83670       -0.09840        1.22030
O         -0.98120       -1.11770        1.86670
N         -1.41740        1.09020        1.62020
C         -2.31020        1.13060        2.78010
C         -3.75900        1.54800        2.39280
H         -3.73420        2.19030        1.47970
C         -4.41540        2.29170        3.58320
C         -5.12600        1.19100        4.39030
C         -5.27360       -0.00030        3.41710
N         -4.70380        0.44180        2.11640
C         -4.14880       -0.66380        1.31210
C         -5.29700       -1.53130        0.78070
H          1.07740        0.66310        2.64480
H          2.66050       -0.14140        2.95660
H          1.23400       -1.13870        2.47620
H          1.97080        0.09370       -3.38240
H         -0.49610        0.08990       -3.40660
H         -2.57750       -0.90830       -2.86500
H         -2.64240        0.90250       -2.91360
H         -3.81380       -0.02230       -1.89770
H         -1.40880        1.89720        1.01730
H         -1.88450        1.85460        3.51140
H         -2.32330        0.13860        3.29190
H         -5.14680        3.02790        3.20610
H         -3.69160        2.85220        4.18940
H         -4.54080        0.90590        5.27840
H         -6.10660        1.53250        4.75580
H         -4.78330       -0.90740        3.82020
H         -6.33910       -0.25040        3.23700
H         -3.41840       -1.29350        1.86990
H         -3.58980       -0.21990        0.45850
H         -5.77980       -2.09610        1.58430
H         -4.92880       -2.24770        0.03970
H         -6.06810       -0.90940        0.30900
