rmsd235.gzmat
 OpenBabel08211713393D

 45 46  0  0  1  0  0  0  0  0999 V2000
    0.0000    0.0000    0.0000 C   0  0  0  0  0  0  0  0  0  0  0  0
    1.3956    0.0000    0.0000 C   0  0  0  0  0  0  0  0  0  0  0  0
    2.2386    0.0000    1.0421 O   0  0  0  0  0  0  0  0  0  0  0  0
    1.7373   -0.0872    2.3710 C   0  0  0  0  0  0  0  0  0  0  0  0
    2.0924    0.0542   -1.2309 C   0  0  0  0  0  0  0  0  0  0  0  0
    3.9804    0.0401   -1.1999 Br  0  0  0  0  0  0  0  0  0  0  0  0
    1.4228    0.1146   -2.4360 C   0  0  0  0  0  0  0  0  0  0  0  0
    0.0258    0.1492   -2.4558 C   0  0  0  0  0  0  0  0  0  0  0  0
   -0.6582    0.1084   -1.2454 C   0  0  0  0  0  0  0  0  0  0  0  0
   -2.0030    0.2001   -1.1117 O   0  0  0  0  0  0  0  0  0  0  0  0
   -2.7994    0.1283   -2.2879 C   0  0  0  0  0  0  0  0  0  0  0  0
   -0.8446   -0.2039    1.2003 C   0  0  0  0  0  0  0  0  0  0  0  0
   -0.8221   -1.2155    1.8757 O   0  0  0  0  0  0  0  0  0  0  0  0
   -1.6607    0.8608    1.5368 N   0  0  0  0  0  0  0  0  0  0  0  0
   -2.6883    0.7087    2.5696 C   0  0  0  0  0  0  0  0  0  0  0  0
   -4.1239    0.7273    1.9640 C   0  0  2  0  0  0  0  0  0  0  0  0
   -4.1137    1.2879    0.9975 H   0  0  0  0  0  0  0  0  0  0  0  0
   -5.1056    1.3743    2.9723 C   0  0  0  0  0  0  0  0  0  0  0  0
   -5.6590    0.1969    3.7934 C   0  0  0  0  0  0  0  0  0  0  0  0
   -5.3974   -1.0586    2.9322 C   0  0  0  0  0  0  0  0  0  0  0  0
   -4.7377   -0.5910    1.6841 N   0  0  0  0  0  0  0  0  0  0  0  0
   -3.8324   -1.5942    1.0912 C   0  0  0  0  0  0  0  0  0  0  0  0
   -4.6611   -2.7510    0.5178 C   0  0  0  0  0  0  0  0  0  0  0  0
    2.6546    0.0586    2.9585 H   0  0  0  0  0  0  0  0  0  0  0  0
    1.3131   -1.0851    2.5536 H   0  0  0  0  0  0  0  0  0  0  0  0
    1.0147    0.7057    2.5842 H   0  0  0  0  0  0  0  0  0  0  0  0
    1.9698    0.1431   -3.3827 H   0  0  0  0  0  0  0  0  0  0  0  0
   -0.4977    0.2083   -3.4022 H   0  0  0  0  0  0  0  0  0  0  0  0
   -2.6311   -0.8158   -2.8156 H   0  0  0  0  0  0  0  0  0  0  0  0
   -2.6184    0.9932   -2.9325 H   0  0  0  0  0  0  0  0  0  0  0  0
   -3.8184    0.1587   -1.8711 H   0  0  0  0  0  0  0  0  0  0  0  0
   -1.7799    1.6277    0.8910 H   0  0  0  0  0  0  0  0  0  0  0  0
   -2.5627    1.5406    3.2984 H   0  0  0  0  0  0  0  0  0  0  0  0
   -2.5244   -0.2331    3.1437 H   0  0  0  0  0  0  0  0  0  0  0  0
   -5.9199    1.8832    2.4270 H   0  0  0  0  0  0  0  0  0  0  0  0
   -4.6295    2.1348    3.6045 H   0  0  0  0  0  0  0  0  0  0  0  0
   -5.1549    0.1213    4.7696 H   0  0  0  0  0  0  0  0  0  0  0  0
   -6.7318    0.3242    4.0035 H   0  0  0  0  0  0  0  0  0  0  0  0
   -4.7970   -1.8050    3.4867 H   0  0  0  0  0  0  0  0  0  0  0  0
   -6.3449   -1.5507    2.6312 H   0  0  0  0  0  0  0  0  0  0  0  0
   -3.0753   -1.9846    1.8093 H   0  0  0  0  0  0  0  0  0  0  0  0
   -3.2600   -1.1045    0.2719 H   0  0  0  0  0  0  0  0  0  0  0  0
   -5.1077   -3.3589    1.3108 H   0  0  0  0  0  0  0  0  0  0  0  0
   -4.0346   -3.4060   -0.0957 H   0  0  0  0  0  0  0  0  0  0  0  0
   -5.4799   -2.3720   -0.1059 H   0  0  0  0  0  0  0  0  0  0  0  0
  1  2  1  0  0  0  0
  1 12  1  0  0  0  0
  2  3  1  0  0  0  0
  3  4  1  0  0  0  0
  4 25  1  0  0  0  0
  4 26  1  0  0  0  0
  4 24  1  0  0  0  0
  5  6  1  0  0  0  0
  5  2  2  0  0  0  0
  7  5  1  0  0  0  0
  8  7  2  0  0  0  0
  8  9  1  0  0  0  0
  9 10  1  0  0  0  0
  9  1  2  0  0  0  0
 11 31  1  0  0  0  0
 11 10  1  0  0  0  0
 12 14  1  0  0  0  0
 12 13  2  0  0  0  0
 14 15  1  0  0  0  0
 15 34  1  0  0  0  0
 15 33  1  0  0  0  0
 16 17  1  6  0  0  0
 16 15  1  0  0  0  0
 16 18  1  0  0  0  0
 18 36  1  0  0  0  0
 18 19  1  0  0  0  0
 19 38  1  0  0  0  0
 19 37  1  0  0  0  0
 20 39  1  0  0  0  0
 20 19  1  0  0  0  0
 21 16  1  0  0  0  0
 21 20  1  0  0  0  0
 22 21  1  0  0  0  0
 22 41  1  0  0  0  0
 23 22  1  0  0  0  0
 23 43  1  0  0  0  0
 27  7  1  0  0  0  0
 28  8  1  0  0  0  0
 29 11  1  0  0  0  0
 30 11  1  0  0  0  0
 32 14  1  0  0  0  0
 35 18  1  0  0  0  0
 40 20  1  0  0  0  0
 42 22  1  0  0  0  0
 44 23  1  0  0  0  0
 45 23  1  0  0  0  0
M  END
$$$$
