rmsd104.gzmat
 OpenBabel08211713393D

 45 46  0  0  1  0  0  0  0  0999 V2000
    0.0000    0.0000    0.0000 C   0  0  0  0  0  0  0  0  0  0  0  0
    1.3961    0.0000    0.0000 C   0  0  0  0  0  0  0  0  0  0  0  0
    2.2449    0.0000    1.0370 O   0  0  0  0  0  0  0  0  0  0  0  0
    1.7604   -0.1039    2.3705 C   0  0  0  0  0  0  0  0  0  0  0  0
    2.0926    0.0493   -1.2320 C   0  0  0  0  0  0  0  0  0  0  0  0
    3.9809    0.0378   -1.1988 Br  0  0  0  0  0  0  0  0  0  0  0  0
    1.4239    0.0979   -2.4378 C   0  0  0  0  0  0  0  0  0  0  0  0
    0.0266    0.1165   -2.4586 C   0  0  0  0  0  0  0  0  0  0  0  0
   -0.6580    0.0804   -1.2484 C   0  0  0  0  0  0  0  0  0  0  0  0
   -2.0056    0.1511   -1.1219 O   0  0  0  0  0  0  0  0  0  0  0  0
   -2.7916    0.0147   -2.2999 C   0  0  0  0  0  0  0  0  0  0  0  0
   -0.8408   -0.1702    1.2078 C   0  0  0  0  0  0  0  0  0  0  0  0
   -0.7962   -1.1505    1.9278 O   0  0  0  0  0  0  0  0  0  0  0  0
   -1.6762    0.8909    1.5037 N   0  0  0  0  0  0  0  0  0  0  0  0
   -2.6671    0.7761    2.5764 C   0  0  0  0  0  0  0  0  0  0  0  0
   -4.1234    0.7353    2.0250 C   0  0  2  0  0  0  0  0  0  0  0  0
   -4.1654    1.2699    1.0452 H   0  0  0  0  0  0  0  0  0  0  0  0
   -5.0852    1.3806    3.0540 C   0  0  0  0  0  0  0  0  0  0  0  0
   -5.5788    0.2095    3.9218 C   0  0  0  0  0  0  0  0  0  0  0  0
   -5.3006   -1.0621    3.0896 C   0  0  0  0  0  0  0  0  0  0  0  0
   -4.7076   -0.6070    1.8037 N   0  0  0  0  0  0  0  0  0  0  0  0
   -3.7993   -1.5985    1.1963 C   0  0  0  0  0  0  0  0  0  0  0  0
   -4.6240   -2.7732    0.6536 C   0  0  0  0  0  0  0  0  0  0  0  0
    2.6886    0.0133    2.9473 H   0  0  0  0  0  0  0  0  0  0  0  0
    1.3211   -1.0969    2.5429 H   0  0  0  0  0  0  0  0  0  0  0  0
    1.0537    0.6962    2.6068 H   0  0  0  0  0  0  0  0  0  0  0  0
    1.9707    0.1263   -3.3845 H   0  0  0  0  0  0  0  0  0  0  0  0
   -0.4959    0.1631   -3.4065 H   0  0  0  0  0  0  0  0  0  0  0  0
   -2.5795   -0.9339   -2.8036 H   0  0  0  0  0  0  0  0  0  0  0  0
   -2.6427    0.8706   -2.9642 H   0  0  0  0  0  0  0  0  0  0  0  0
   -3.8142    0.0107   -1.8922 H   0  0  0  0  0  0  0  0  0  0  0  0
   -1.8257    1.6220    0.8241 H   0  0  0  0  0  0  0  0  0  0  0  0
   -2.5341    1.6501    3.2533 H   0  0  0  0  0  0  0  0  0  0  0  0
   -2.4657   -0.1306    3.1936 H   0  0  0  0  0  0  0  0  0  0  0  0
   -5.9317    1.8548    2.5264 H   0  0  0  0  0  0  0  0  0  0  0  0
   -4.6077    2.1695    3.6496 H   0  0  0  0  0  0  0  0  0  0  0  0
   -5.0484    0.1741    4.8865 H   0  0  0  0  0  0  0  0  0  0  0  0
   -6.6504    0.3088    4.1549 H   0  0  0  0  0  0  0  0  0  0  0  0
   -4.6505   -1.7668    3.6433 H   0  0  0  0  0  0  0  0  0  0  0  0
   -6.2382   -1.6010    2.8417 H   0  0  0  0  0  0  0  0  0  0  0  0
   -3.0196   -1.9707    1.8997 H   0  0  0  0  0  0  0  0  0  0  0  0
   -3.2560   -1.1076    0.3581 H   0  0  0  0  0  0  0  0  0  0  0  0
   -5.0544   -3.3711    1.4629 H   0  0  0  0  0  0  0  0  0  0  0  0
   -3.9992   -3.4318    0.0419 H   0  0  0  0  0  0  0  0  0  0  0  0
   -5.4554   -2.4122    0.0357 H   0  0  0  0  0  0  0  0  0  0  0  0
  1 12  1  0  0  0  0
  2  1  1  0  0  0  0
  2  3  1  0  0  0  0
  3  4  1  0  0  0  0
  4 25  1  0  0  0  0
  4 26  1  0  0  0  0
  4 24  1  0  0  0  0
  5  6  1  0  0  0  0
  5  2  2  0  0  0  0
  7  5  1  0  0  0  0
  8  7  2  0  0  0  0
  8  9  1  0  0  0  0
  9 10  1  0  0  0  0
  9  1  2  0  0  0  0
 11 31  1  0  0  0  0
 11 10  1  0  0  0  0
 12 14  1  0  0  0  0
 12 13  2  0  0  0  0
 14 15  1  0  0  0  0
 15 34  1  0  0  0  0
 15 33  1  0  0  0  0
 16 17  1  6  0  0  0
 16 15  1  0  0  0  0
 16 18  1  0  0  0  0
 18 36  1  0  0  0  0
 18 19  1  0  0  0  0
 19 38  1  0  0  0  0
 19 37  1  0  0  0  0
 20 39  1  0  0  0  0
 20 19  1  0  0  0  0
 21 16  1  0  0  0  0
 21 20  1  0  0  0  0
 22 21  1  0  0  0  0
 22 41  1  0  0  0  0
 23 22  1  0  0  0  0
 23 43  1  0  0  0  0
 27  7  1  0  0  0  0
 28  8  1  0  0  0  0
 29 11  1  0  0  0  0
 30 11  1  0  0  0  0
 32 14  1  0  0  0  0
 35 18  1  0  0  0  0
 40 20  1  0  0  0  0
 42 22  1  0  0  0  0
 44 23  1  0  0  0  0
 45 23  1  0  0  0  0
M  END
$$$$
