45
rmsd126.gzmat
C          0.00000        0.00000        0.00000
C          1.39430        0.00000        0.00000
O          2.23440        0.00000        1.04560
C          1.72360       -0.12220        2.36830
C          2.08950        0.04520       -1.23150
Br         3.97750        0.04060       -1.20230
C          1.41750        0.08360       -2.43640
C          0.02000        0.09060       -2.45670
C         -0.66370        0.05420       -1.24590
O         -2.01120        0.09540       -1.10880
C         -2.80070       -0.03950       -2.28430
C         -0.85360       -0.13210        1.20420
O         -0.92580       -1.14030        1.87820
N         -1.56210        1.01060        1.54390
C         -2.63170        0.91350        2.53880
C         -3.99640        0.61900        1.84530
H         -3.83380       -0.12750        1.02820
C         -4.61320        1.93280        1.30560
C         -5.50470        2.44860        2.45110
C         -5.71950        1.23550        3.38510
N         -5.05570        0.08160        2.72310
C         -4.66180       -0.97860        3.67150
C         -4.09320       -2.18430        2.91660
H          1.25430       -1.10530        2.51260
H          1.03610        0.69400        2.60980
H          2.64280       -0.04290        2.96490
H          1.96370        0.11100       -3.38360
H         -0.50360        0.12600       -3.40430
H         -2.57820       -0.97940       -2.79970
H         -2.66700        0.82430       -2.94170
H         -3.82000       -0.06120       -1.87110
H         -1.61960        1.77930        0.89270
H         -2.67820        1.85990        3.11650
H         -2.38320        0.10460        3.26640
H         -5.21890        1.72350        0.40740
H         -3.85090        2.66430        1.00970
H         -5.02520        3.28110        2.98780
H         -6.46330        2.83100        2.06840
H         -5.33080        1.44340        4.39990
H         -6.79490        0.98220        3.48410
H         -5.58830       -1.28410        4.21220
H         -3.94120       -0.63240        4.44380
H         -4.73760       -2.45770        2.07220
H         -4.00440       -3.05410        3.57420
H         -3.09250       -1.97950        2.50600
