45
rmsd214.gzmat
C          0.00000        0.00000        0.00000
C          1.39380        0.00000        0.00000
O          2.23270        0.00000        1.04670
C          1.71650        0.09010        2.36980
C          2.08930       -0.04560       -1.23140
Br         3.97730       -0.04270       -1.20120
C          1.41660       -0.08590       -2.43640
C          0.01920       -0.10510       -2.45660
C         -0.66380       -0.07330       -1.24530
O         -2.00970       -0.13530       -1.10490
C         -2.80620       -0.11090       -2.28330
C         -0.85790        0.15460        1.19850
O         -0.92780        1.16870        1.86160
N         -1.58760       -0.97790        1.53920
C         -2.70610       -0.83830        2.47450
C         -4.00600       -0.36350        1.75770
H         -3.73080        0.33000        0.92420
C         -4.93990        0.32560        2.78030
C         -5.83740       -0.80420        3.31610
C         -5.74390       -1.93450        2.26630
N         -4.86320       -1.42640        1.18110
C         -4.14630       -2.48730        0.45110
C         -5.15330       -3.36810       -0.30170
H          2.63280       -0.00910        2.96820
H          1.02260       -0.72740        2.58830
H          1.25180        1.07210        2.53600
H          1.96260       -0.10750       -3.38390
H         -0.50480       -0.14250       -3.40410
H         -2.62360       -0.99950       -2.89430
H         -2.64030        0.81220       -2.84720
H         -3.82590       -0.12900       -1.86610
H         -1.62920       -1.75340        0.89500
H         -2.42190       -0.09810        3.26140
H         -2.87320       -1.80650        2.98970
H         -5.54500        1.09810        2.27290
H         -4.38760        0.84080        3.57860
H         -5.49570       -1.15120        4.30330
H         -6.87600       -0.46280        3.44490
H         -5.37770       -2.87370        2.72200
H         -6.73230       -2.14950        1.81110
H         -3.51120       -3.12090        1.10720
H         -3.47440       -1.98820       -0.28630
H         -5.66880       -4.06060        0.37130
H         -4.65590       -3.95770       -1.07760
H         -5.92200       -2.75100       -0.78640
