31
rmsd15.gzmat
N          0.00000        0.00000        0.00000
C          1.34600        0.00000        0.00000
N          2.09610        0.00000        1.18650
H          3.11680       -0.01080        1.17030
C          1.43360       -0.03440        2.41540
C          0.06090       -0.04690        2.44740
C         -0.66700       -0.01820        1.19820
N         -2.00840       -0.00530        1.12550
C         -0.68720       -0.09520        3.70410
C         -0.98600        1.09020        4.38230
C         -1.70090        1.04400        5.57580
C         -2.10880       -0.19460        6.06110
C         -1.82340       -1.38520        5.40020
C         -1.10090       -1.33050        4.21200
Cl        -2.98770       -0.25600        7.51340
C          2.31260       -0.04410        3.62430
C          3.03420       -1.38120        3.77270
N          1.99620        0.00330       -1.19060
H         -2.48090        0.01780        0.22950
H         -2.57980       -0.01520        1.95770
H         -0.65910        2.05030        3.98090
H         -1.93090        1.96620        6.11660
H         -2.15360       -2.34740        5.80170
H         -0.85360       -2.25130        3.68240
H          1.70510        0.15350        4.54390
H          3.04500        0.79540        3.59790
H          2.33350       -2.22720        3.79710
H          3.59480       -1.41690        4.72220
H          3.75860       -1.56980        2.97360
H          1.45300        0.01180       -2.04990
H          2.99490        0.01980       -1.27330
