rmsd2.gzmat
 OpenBabel08211713363D

 31 32  0  0  0  0  0  0  0  0999 V2000
    0.0000    0.0000    0.0000 N   0  0  0  0  0  0  0  0  0  0  0  0
    1.3458    0.0000    0.0000 C   0  0  0  0  0  0  0  0  0  0  0  0
    2.0968    0.0000    1.1871 N   0  0  0  0  0  0  0  0  0  0  0  0
    3.1171   -0.0157    1.1693 H   0  0  0  0  0  0  0  0  0  0  0  0
    1.4331   -0.0153    2.4148 C   0  0  0  0  0  0  0  0  0  0  0  0
    0.0602   -0.0205    2.4467 C   0  0  0  0  0  0  0  0  0  0  0  0
   -0.6678   -0.0090    1.1983 C   0  0  0  0  0  0  0  0  0  0  0  0
   -2.0095   -0.0066    1.1264 N   0  0  0  0  0  0  0  0  0  0  0  0
   -0.6732   -0.0489    3.7122 C   0  0  0  0  0  0  0  0  0  0  0  0
   -0.8947    1.1389    4.4149 C   0  0  0  0  0  0  0  0  0  0  0  0
   -1.5821    1.1089    5.6250 C   0  0  0  0  0  0  0  0  0  0  0  0
   -2.0336   -0.1165    6.1044 C   0  0  0  0  0  0  0  0  0  0  0  0
   -1.8243   -1.3092    5.4193 C   0  0  0  0  0  0  0  0  0  0  0  0
   -1.1347   -1.2703    4.2112 C   0  0  0  0  0  0  0  0  0  0  0  0
   -2.8720   -0.1586    7.5811 Cl  0  0  0  0  0  0  0  0  0  0  0  0
    2.3030   -0.0311    3.6296 C   0  0  0  0  0  0  0  0  0  0  0  0
    2.4944   -1.4659    4.1188 C   0  0  0  0  0  0  0  0  0  0  0  0
    1.9966    0.0046   -1.1902 N   0  0  0  0  0  0  0  0  0  0  0  0
   -2.4828    0.0036    0.2310 H   0  0  0  0  0  0  0  0  0  0  0  0
   -2.5791   -0.0077    1.9595 H   0  0  0  0  0  0  0  0  0  0  0  0
   -0.5298    2.0876    4.0194 H   0  0  0  0  0  0  0  0  0  0  0  0
   -1.7566    2.0335    6.1826 H   0  0  0  0  0  0  0  0  0  0  0  0
   -2.1878   -2.2610    5.8169 H   0  0  0  0  0  0  0  0  0  0  0  0
   -0.9518   -2.1928    3.6585 H   0  0  0  0  0  0  0  0  0  0  0  0
    1.8332    0.5791    4.4426 H   0  0  0  0  0  0  0  0  0  0  0  0
    3.2881    0.4538    3.4553 H   0  0  0  0  0  0  0  0  0  0  0  0
    1.5435   -1.9212    4.4315 H   0  0  0  0  0  0  0  0  0  0  0  0
    3.1576   -1.4944    4.9987 H   0  0  0  0  0  0  0  0  0  0  0  0
    2.9404   -2.1166    3.3586 H   0  0  0  0  0  0  0  0  0  0  0  0
    1.4543    0.0110   -2.0499 H   0  0  0  0  0  0  0  0  0  0  0  0
    2.9957    0.0078   -1.2727 H   0  0  0  0  0  0  0  0  0  0  0  0
  1  2  2  0  0  0  0
  1  7  2  0  0  0  0
  2  3  1  0  0  0  0
  3  5  1  0  0  0  0
  4  3  1  0  0  0  0
  5  6  2  0  0  0  0
  5 16  1  0  0  0  0
  6  9  1  0  0  0  0
  7  6  1  0  0  0  0
  8  7  1  0  0  0  0
  8 20  1  0  0  0  0
  9 14  2  0  0  0  0
  9 10  1  0  0  0  0
 10 11  2  0  0  0  0
 11 12  1  0  0  0  0
 11 22  1  0  0  0  0
 12 15  1  0  0  0  0
 13 23  1  0  0  0  0
 13 12  2  0  0  0  0
 14 13  1  0  0  0  0
 16 17  1  0  0  0  0
 16 25  1  0  0  0  0
 17 27  1  0  0  0  0
 17 28  1  0  0  0  0
 18  2  1  0  0  0  0
 19  8  1  0  0  0  0
 21 10  1  0  0  0  0
 24 14  1  0  0  0  0
 26 16  1  0  0  0  0
 29 17  1  0  0  0  0
 30 18  1  0  0  0  0
 31 18  1  0  0  0  0
M  END
$$$$
