31
rmsd12.gzmat
N          0.00000        0.00000        0.00000
C          1.34590        0.00000        0.00000
N          2.09660        0.00000        1.18690
H          3.11700       -0.01250        1.16940
C          1.43350       -0.02440        2.41550
C          0.06110       -0.03450        2.44770
C         -0.66660       -0.01340        1.19860
N         -2.00820       -0.00160        1.12850
C         -0.68400       -0.07410        3.70620
C         -1.04660        1.11910        4.33730
C         -1.76830        1.08240        5.52730
C         -2.10660       -0.15610        6.06320
C         -1.75290       -1.35490        5.45210
C         -1.03550       -1.30860        4.26030
Cl        -2.98280       -0.20690        7.51740
C          2.30820       -0.04250        3.62690
C          2.64030       -1.48200        4.01560
N          1.99720        0.00080       -1.18970
H         -2.48300        0.01480        0.23410
H         -2.57650       -0.00970        1.96280
H         -0.76410        2.07840        3.90160
H         -2.05860        2.01140        6.02550
H         -2.02720       -2.31670        5.89380
H         -0.74770       -2.23520        3.76210
H          1.79070        0.46400        4.48080
H          3.24050        0.54690        3.48320
H          1.73620       -2.06090        4.25230
H          3.27090       -1.50710        4.91940
H          3.18470       -2.01840        3.23070
H          1.45610        0.00580       -2.05040
H          2.99620        0.02410       -1.27090
