31
rmsd4.gzmat
N          0.00000        0.00000        0.00000
C          1.34600        0.00000        0.00000
N          2.09690        0.00000        1.18640
H          3.11710        0.02610        1.16990
C          1.43270        0.00830        2.41480
C          0.06050        0.00030        2.44750
C         -0.66750        0.00080        1.19790
N         -2.00880        0.00140        1.12470
C         -0.68540       -0.01130        3.70610
C         -0.99040       -1.23200        4.31560
C         -1.72340       -1.25140        5.49880
C         -2.13260       -0.04020        6.04820
C         -1.83010        1.18520        5.46310
C         -1.09730        1.19530        4.27970
Cl        -3.03650       -0.05770        7.48630
C          2.30660        0.03540        3.62640
C          2.71790        1.47190        3.94340
N          1.99510        0.00040       -1.19110
H         -2.48110       -0.00040        0.22880
H         -2.57980       -0.00290        1.95690
H         -0.65270       -2.16770        3.86760
H         -1.96970       -2.20170        5.98100
H         -2.15700        2.12430        5.91850
H         -0.84420        2.14310        3.80340
H          3.20350       -0.61290        3.51220
H          1.76270       -0.39810        4.50390
H          3.25910        1.95170        3.12090
H          3.37990        1.50310        4.82460
H          1.84950        2.10160        4.18370
H          1.45070       -0.00630       -2.05000
H          2.99380       -0.02730       -1.27430
