31
rmsd9.gzmat
N          0.00000        0.00000        0.00000
C          1.34590        0.00000        0.00000
N          2.09660        0.00000        1.18690
H          3.11640       -0.02010        1.17020
C          1.43310       -0.01170        2.41550
C          0.06070       -0.01300        2.44790
C         -0.66690       -0.00690        1.19820
N         -2.00830       -0.00710        1.12720
C         -0.68360       -0.02330        3.70750
C         -1.01660        1.18680        4.32390
C         -1.73520        1.18250        5.51580
C         -2.10100       -0.04090        6.06880
C         -1.77900       -1.25530        5.47210
C         -1.06260       -1.24190        4.27840
Cl        -2.97560       -0.04930        7.52480
C          2.30590       -0.02870        3.62820
C          2.75010       -1.45690        3.93740
N          1.99520        0.00230       -1.19100
H         -2.48260       -0.00380        0.23230
H         -2.57550       -0.01180        1.96200
H         -0.71350        2.13320        3.87420
H         -2.00430        2.12440        6.00240
H         -2.07820       -2.20450        5.92560
H         -0.79650       -2.18130        3.79250
H          1.75080        0.38770        4.50700
H          3.18730        0.64190        3.52080
H          1.89320       -2.12750        4.09310
H          3.34230       -1.48940        4.86700
H          3.37360       -1.88830        3.14670
H          1.45190        0.00950       -2.05020
H          2.99370        0.01470       -1.27540
