31
rmsd7.gzmat
N          0.00000        0.00000        0.00000
C          1.34590        0.00000        0.00000
N          2.09660        0.00000        1.18690
H          3.11690        0.02330        1.16820
C          1.43350       -0.00060        2.41590
C          0.06060       -0.00750        2.44750
C         -0.66660       -0.00170        1.19870
N         -2.00800        0.00220        1.12750
C         -0.68240       -0.01650        3.70800
C         -1.14310        1.18830        4.24770
C         -1.84660        1.18570        5.44870
C         -2.07250       -0.03070        6.08550
C         -1.62810       -1.24060        5.56210
C         -0.92630       -1.22900        4.36000
Cl        -2.92350       -0.03880        7.55540
C          2.30750        0.01490        3.62780
C          2.44940        1.44430        4.14940
N          1.99720       -0.00310       -1.19010
H         -2.48170        0.00250        0.23220
H         -2.57790       -0.00380        1.96060
H         -0.95030        2.13030        3.73240
H         -2.21000        2.12400        5.87830
H         -1.82020       -2.18560        6.07880
H         -0.56900       -2.16580        3.93050
H          3.30930       -0.42910        3.43820
H          1.86410       -0.63030        4.42820
H          2.87230        2.12700        3.40360
H          3.11150        1.47590        5.02990
H          1.48330        1.85930        4.47180
H          1.45580       -0.01310       -2.05040
H          2.99640       -0.01170       -1.27120
