rmsd12.gzmat
 OpenBabel08211713393D

 49 51  0  0  0  0  0  0  0  0999 V2000
    0.0000    0.0000    0.0000 Cl  0  0  0  0  0  0  0  0  0  0  0  0
    1.7109    0.0000    0.0000 C   0  0  0  0  0  0  0  0  0  0  0  0
    2.3744    0.0000    1.2173 C   0  0  0  0  0  0  0  0  0  0  0  0
    3.7689   -0.0053    1.2118 C   0  0  0  0  0  0  0  0  0  0  0  0
    4.4708   -0.0279    0.0083 C   0  0  0  0  0  0  0  0  0  0  0  0
    3.7707   -0.0083   -1.2045 C   0  0  0  0  0  0  0  0  0  0  0  0
    2.3791    0.0051   -1.2175 C   0  0  0  0  0  0  0  0  0  0  0  0
    5.9825   -0.0714   -0.0654 C   0  0  0  0  0  0  0  0  0  0  0  0
    6.7421    0.2476    1.2336 C   0  0  0  0  0  0  0  0  0  0  0  0
    6.7315   -0.9165    2.2401 C   0  0  0  0  0  0  0  0  0  0  0  0
    7.1569   -2.1803    1.5958 N   0  0  0  0  0  0  0  0  0  0  0  0
    7.2132   -3.2949    2.5616 C   0  0  0  0  0  0  0  0  0  0  0  0
    5.8938   -3.6608    3.2848 C   0  0  0  0  0  0  0  0  0  0  0  0
    5.4193   -5.0774    2.9498 C   0  0  0  0  0  0  0  0  0  0  0  0
    4.8825   -5.1333    1.5389 C   0  0  0  0  0  0  0  0  0  0  0  0
    5.5168   -5.6894    0.6722 O   0  0  0  0  0  0  0  0  0  0  0  0
    3.5819   -4.4920    1.2211 C   0  0  0  0  0  0  0  0  0  0  0  0
    2.6788   -4.1032    2.2124 C   0  0  0  0  0  0  0  0  0  0  0  0
    1.4501   -3.5486    1.8673 C   0  0  0  0  0  0  0  0  0  0  0  0
    1.1565   -3.3949    0.5120 C   0  0  0  0  0  0  0  0  0  0  0  0
    2.0485   -3.7460   -0.5018 C   0  0  0  0  0  0  0  0  0  0  0  0
    3.2666   -4.3043   -0.1304 C   0  0  0  0  0  0  0  0  0  0  0  0
   -0.0259   -2.9094    0.1741 F   0  0  0  0  0  0  0  0  0  0  0  0
    6.3083   -2.5119    0.4291 C   0  0  0  0  0  0  0  0  0  0  0  0
    6.4708   -1.4184   -0.6320 C   0  0  0  0  0  0  0  0  0  0  0  0
    6.2784    0.9507   -1.0119 O   0  0  0  0  0  0  0  0  0  0  0  0
    1.8285    0.0109    2.1590 H   0  0  0  0  0  0  0  0  0  0  0  0
    4.2957    0.0190    2.1642 H   0  0  0  0  0  0  0  0  0  0  0  0
    4.3248    0.0134   -2.1459 H   0  0  0  0  0  0  0  0  0  0  0  0
    1.8352    0.0237   -2.1607 H   0  0  0  0  0  0  0  0  0  0  0  0
    6.3300    1.1608    1.7009 H   0  0  0  0  0  0  0  0  0  0  0  0
    7.7944    0.4892    0.9784 H   0  0  0  0  0  0  0  0  0  0  0  0
    7.4580   -0.6965    3.0553 H   0  0  0  0  0  0  0  0  0  0  0  0
    5.7311   -0.9971    2.7197 H   0  0  0  0  0  0  0  0  0  0  0  0
    7.9925   -3.0367    3.3128 H   0  0  0  0  0  0  0  0  0  0  0  0
    7.6113   -4.1816    2.0141 H   0  0  0  0  0  0  0  0  0  0  0  0
    5.1015   -2.9272    3.0390 H   0  0  0  0  0  0  0  0  0  0  0  0
    6.0408   -3.5749    4.3782 H   0  0  0  0  0  0  0  0  0  0  0  0
    4.6549   -5.4188    3.6734 H   0  0  0  0  0  0  0  0  0  0  0  0
    6.2586   -5.7994    3.0557 H   0  0  0  0  0  0  0  0  0  0  0  0
    2.9226   -4.2401    3.2666 H   0  0  0  0  0  0  0  0  0  0  0  0
    0.7368   -3.2513    2.6336 H   0  0  0  0  0  0  0  0  0  0  0  0
    1.7980   -3.5963   -1.5508 H   0  0  0  0  0  0  0  0  0  0  0  0
    3.9864   -4.6122   -0.8971 H   0  0  0  0  0  0  0  0  0  0  0  0
    6.6474   -3.4907    0.0173 H   0  0  0  0  0  0  0  0  0  0  0  0
    5.2337   -2.6231    0.6938 H   0  0  0  0  0  0  0  0  0  0  0  0
    7.5355   -1.3384   -0.9264 H   0  0  0  0  0  0  0  0  0  0  0  0
    5.9165   -1.6842   -1.5492 H   0  0  0  0  0  0  0  0  0  0  0  0
    7.2379    1.0164   -1.1736 H   0  0  0  0  0  0  0  0  0  0  0  0
  2  1  1  0  0  0  0
  2  3  2  0  0  0  0
  3 27  1  0  0  0  0
  4  3  1  0  0  0  0
  4 28  1  0  0  0  0
  5  4  2  0  0  0  0
  6  5  1  0  0  0  0
  7  6  2  0  0  0  0
  7  2  1  0  0  0  0
  8  5  1  0  0  0  0
  8  9  1  0  0  0  0
  9 31  1  0  0  0  0
  9 10  1  0  0  0  0
 10 34  1  0  0  0  0
 10 33  1  0  0  0  0
 11 10  1  0  0  0  0
 11 12  1  0  0  0  0
 12 13  1  0  0  0  0
 12 35  1  0  0  0  0
 13 38  1  0  0  0  0
 14 40  1  0  0  0  0
 14 13  1  0  0  0  0
 14 39  1  0  0  0  0
 15 14  1  0  0  0  0
 16 15  2  0  0  0  0
 17 15  1  0  0  0  0
 17 18  2  0  0  0  0
 18 41  1  0  0  0  0
 19 18  1  0  0  0  0
 19 42  1  0  0  0  0
 20 19  2  0  0  0  0
 21 22  2  0  0  0  0
 21 20  1  0  0  0  0
 22 17  1  0  0  0  0
 23 20  1  0  0  0  0
 24 46  1  0  0  0  0
 24 11  1  0  0  0  0
 25  8  1  0  0  0  0
 25 24  1  0  0  0  0
 26  8  1  0  0  0  0
 29  6  1  0  0  0  0
 30  7  1  0  0  0  0
 32  9  1  0  0  0  0
 36 12  1  0  0  0  0
 37 13  1  0  0  0  0
 43 21  1  0  0  0  0
 44 22  1  0  0  0  0
 45 24  1  0  0  0  0
 47 25  1  0  0  0  0
 48 25  1  0  0  0  0
 49 26  1  0  0  0  0
M  END
$$$$
