49
rmsd86.gzmat
Cl         0.00000        0.00000        0.00000
C          1.71110        0.00000        0.00000
C          2.37670        0.00000        1.21630
C          3.77090       -0.03980        1.20810
C          4.46760       -0.09460        0.00230
C          3.76600       -0.04980       -1.20940
C          2.37530       -0.00750       -1.21980
C          5.97470       -0.21240       -0.07700
C          6.75070        0.01900        1.23060
C          6.66750       -1.17650        2.19700
N          7.02510       -2.43720        1.50750
C          7.04610       -3.58660        2.43170
C          5.73110       -3.91750        3.17870
C          5.08190       -5.21720        2.69500
C          4.29410       -4.99250        1.42550
O          4.70690       -5.42550        0.37410
C          3.00820       -4.25320        1.47720
C          2.38250       -3.95360        0.26060
C          1.14360       -3.32120        0.23860
C          0.55340       -2.99960        1.46060
C          1.16670       -3.25430        2.68840
C          2.40440       -3.88950        2.68280
F         -0.64470       -2.43980        1.46300
C          6.15380       -2.68240        0.33670
C          6.38690       -1.56620       -0.68800
O          6.32270        0.82210       -0.99090
H          1.83390        0.03280        2.15980
H          4.30070       -0.02110        2.15910
H          4.31930       -0.03660       -2.15170
H          1.83040        0.01870       -2.16200
H          6.39370        0.93940        1.72790
H          7.81600        0.20430        0.98290
H          7.39900       -1.02620        3.02310
H          5.66020       -1.21810        2.66660
H          7.85330       -3.38970        3.17310
H          7.39000       -4.47090        1.84680
H          5.01720       -3.07610        3.08790
H          5.94450       -4.00100        4.26170
H          4.42990       -5.64670        3.48030
H          5.85830       -5.99230        2.51350
H          2.87310       -4.23160       -0.67910
H          0.65000       -3.09170       -0.70510
H          0.68820       -2.97580        3.62500
H          2.89160       -4.10860        3.63400
H          6.42580       -3.66770       -0.10740
H          5.07480       -2.73440        0.60080
H          7.45570       -1.53920       -0.97580
H          5.82310       -1.77020       -1.61540
H          7.28460        0.84640       -1.14850
