49
rmsd136.gzmat
Cl         0.00000        0.00000        0.00000
C          1.71080        0.00000        0.00000
C          2.37350        0.00000        1.21810
C          3.76800        0.00580        1.21300
C          4.46990        0.03090        0.00950
C          3.77050        0.01230       -1.20360
C          2.37900       -0.00150       -1.21740
C          5.98100        0.07940       -0.06500
C          6.46270        1.41830       -0.65560
C          6.27280        2.53190        0.37950
N          7.10680        2.23790        1.56660
C          7.11560        3.36900        2.51520
C          5.77540        3.70660        3.21360
C          5.24860        5.09130        2.82750
C          4.69860        5.07360        1.42060
O          5.32280        5.58920        0.52190
C          3.39370        4.42140        1.14720
C          2.53850        4.00220        2.16820
C          1.29560        3.45460        1.86640
C          0.93720        3.34060        0.52260
C          1.78320        3.71460       -0.52150
C          3.01860        4.26170       -0.19280
F         -0.26410        2.87410        0.22780
C          6.70570        0.97440        2.22680
C          6.74360       -0.20590        1.23970
O          6.28090       -0.95920       -0.99150
H          1.82730       -0.01140        2.15970
H          4.29440       -0.01870        2.16590
H          4.32550       -0.00690       -2.14430
H          1.83560       -0.01740       -2.16100
H          5.91780        1.65890       -1.58560
H          7.53170        1.34340       -0.93430
H          6.60870        3.50510       -0.04880
H          5.19320        2.63950        0.62360
H          7.49480        4.25870        1.95940
H          7.89040        3.14520        3.28180
H          5.91450        3.66280        4.31050
H          5.01550        2.93390        2.98570
H          6.06300        5.84500        2.89690
H          4.47870        5.43450        3.54460
H          2.83150        4.10960        3.21360
H          0.62000        3.13400        2.65700
H          1.48490        3.59240       -1.56160
H          3.70390        4.58480       -0.98450
H          7.43490        0.78280        3.04720
H          5.70290        1.04060        2.70360
H          7.80180       -0.42870        0.99080
H          6.34910       -1.12040        1.72020
H          7.24100       -1.03000       -1.14580
