49

Cl        -0.09850       -0.02560       -0.93040
C          1.62560       -0.03510       -0.63100
C          2.10080       -0.12830        0.67480
C          3.47860       -0.08340        0.90630
C          4.39180        0.05550       -0.14500
C          3.88090        0.11940       -1.45180
C          2.51200        0.08210       -1.70410
C          5.91230        0.08340        0.03480
C          6.51610        1.37990       -0.54840
C          6.22590        2.59250        0.33080
N          6.78290        2.37710        1.65430
C          7.14360        3.50770        2.48310
C          6.04670        4.20160        3.32700
C          5.29090        5.37080        2.66550
C          4.44220        5.03770        1.45090
O          4.77550        5.42130        0.34360
C          3.19770        4.22400        1.62760
C          2.71270        3.82400        2.88360
C          1.55660        3.05090        2.98840
C          0.88580        2.68880        1.82350
C          1.32900        3.08290        0.56110
C          2.48640        3.84680        0.47320
F         -0.20630        1.92190        1.92040
C          6.20600        1.23560        2.33250
C          6.38100       -0.03980        1.49740
O          6.37510       -1.04370       -0.71260
H          1.39680       -0.22000        1.50180
H          3.82450       -0.15920        1.93590
H          4.57280        0.18060       -2.29290
H          2.12740        0.13920       -2.72340
H          6.14310        1.54300       -1.56990
H          7.61040        1.24570       -0.60850
H          6.66750        3.50010       -0.10350
H          5.12970        2.75430        0.34760
H          7.64220        4.25650        1.84450
H          7.91080        3.15060        3.19390
H          6.53430        4.61450        4.22610
H          5.34270        3.44010        3.69700
H          6.01300        6.12970        2.32970
H          4.64550        5.84600        3.42390
H          3.23010        4.11690        3.79710
H          1.16740        2.72520        3.95440
H          0.77180        2.76510       -0.32030
H          2.87430        4.16790       -0.49440
H          6.71890        1.10210        3.29980
H          5.13080        1.39050        2.56840
H          7.45890       -0.26930        1.45950
H          5.89090       -0.89950        1.97860
H          7.34040       -0.99300       -0.74340
