
     RDKit          3D

 49 51  0  0  0  0  0  0  0  0999 V2000
   -0.1260    0.1535   -0.7966 Cl  0  0  0  0  0  0  0  0  0  0  0  0
    1.6040    0.1075   -0.5376 C   0  0  0  0  0  0  0  0  0  0  0  0
    2.1113    0.1513    0.7587 C   0  0  0  0  0  0  0  0  0  0  0  0
    3.4923    0.0624    0.9564 C   0  0  0  0  0  0  0  0  0  0  0  0
    4.3770   -0.0719   -0.1195 C   0  0  0  0  0  0  0  0  0  0  0  0
    3.8348   -0.0855   -1.4152 C   0  0  0  0  0  0  0  0  0  0  0  0
    2.4621   -0.0039   -1.6341 C   0  0  0  0  0  0  0  0  0  0  0  0
    5.8998   -0.1475    0.0230 C   0  0  0  0  0  0  0  0  0  0  0  0
    6.4066   -0.0709    1.4762 C   0  0  0  0  0  0  0  0  0  0  0  0
    6.2161   -1.3597    2.2872 C   0  0  0  0  0  0  0  0  0  0  0  0
    6.7423   -2.5017    1.5697 N   0  0  0  0  0  0  0  0  0  0  0  0
    7.0855   -3.6619    2.3645 C   0  0  0  0  0  0  0  0  0  0  0  0
    5.9858   -4.3417    3.2166 C   0  0  0  0  0  0  0  0  0  0  0  0
    5.1849   -5.4760    2.5476 C   0  0  0  0  0  0  0  0  0  0  0  0
    4.3216   -5.0934    1.3583 C   0  0  0  0  0  0  0  0  0  0  0  0
    4.6223   -5.4604    0.2361 O   0  0  0  0  0  0  0  0  0  0  0  0
    3.1035   -4.2507    1.5784 C   0  0  0  0  0  0  0  0  0  0  0  0
    2.3804   -3.8276    0.4475 C   0  0  0  0  0  0  0  0  0  0  0  0
    1.2462   -3.0351    0.5761 C   0  0  0  0  0  0  0  0  0  0  0  0
    0.8383   -2.6593    1.8559 C   0  0  0  0  0  0  0  0  0  0  0  0
    1.5217   -3.0664    2.9985 C   0  0  0  0  0  0  0  0  0  0  0  0
    2.6542   -3.8673    2.8527 C   0  0  0  0  0  0  0  0  0  0  0  0
   -0.2306   -1.8664    1.9924 F   0  0  0  0  0  0  0  0  0  0  0  0
    6.1469   -2.6704    0.2562 C   0  0  0  0  0  0  0  0  0  0  0  0
    6.4514   -1.4471   -0.6030 C   0  0  0  0  0  0  0  0  0  0  0  0
    6.3778    0.9825   -0.7103 O   0  0  0  0  0  0  0  0  0  0  0  0
    1.4292    0.2394    1.6042 H   0  0  0  0  0  0  0  0  0  0  0  0
    3.8635    0.1002    1.9793 H   0  0  0  0  0  0  0  0  0  0  0  0
    4.5056   -0.1420   -2.2736 H   0  0  0  0  0  0  0  0  0  0  0  0
    2.0529   -0.0221   -2.6452 H   0  0  0  0  0  0  0  0  0  0  0  0
    5.9525    0.7907    1.9884 H   0  0  0  0  0  0  0  0  0  0  0  0
    7.4893    0.1296    1.4169 H   0  0  0  0  0  0  0  0  0  0  0  0
    6.7569   -1.2626    3.2436 H   0  0  0  0  0  0  0  0  0  0  0  0
    5.1432   -1.4894    2.5476 H   0  0  0  0  0  0  0  0  0  0  0  0
    7.8785   -3.3448    3.0659 H   0  0  0  0  0  0  0  0  0  0  0  0
    7.5467   -4.4104    1.6982 H   0  0  0  0  0  0  0  0  0  0  0  0
    5.3104   -3.5687    3.6149 H   0  0  0  0  0  0  0  0  0  0  0  0
    6.4786   -4.7856    4.0979 H   0  0  0  0  0  0  0  0  0  0  0  0
    4.5423   -5.9493    3.3094 H   0  0  0  0  0  0  0  0  0  0  0  0
    5.8788   -6.2470    2.1811 H   0  0  0  0  0  0  0  0  0  0  0  0
    2.7406   -4.1364   -0.5348 H   0  0  0  0  0  0  0  0  0  0  0  0
    0.6811   -2.6817   -0.2865 H   0  0  0  0  0  0  0  0  0  0  0  0
    1.1603   -2.7533    3.9793 H   0  0  0  0  0  0  0  0  0  0  0  0
    3.1813   -4.1950    3.7487 H   0  0  0  0  0  0  0  0  0  0  0  0
    6.5506   -3.5803   -0.2091 H   0  0  0  0  0  0  0  0  0  0  0  0
    5.0470   -2.8006    0.2970 H   0  0  0  0  0  0  0  0  0  0  0  0
    7.5474   -1.3433   -0.6869 H   0  0  0  0  0  0  0  0  0  0  0  0
    6.0494   -1.5761   -1.6185 H   0  0  0  0  0  0  0  0  0  0  0  0
    7.3401    0.9041   -0.7665 H   0  0  0  0  0  0  0  0  0  0  0  0
  1  2  1  0
  2  3  2  0
  2  7  1  0
  3  4  1  0
  3 27  1  0
  4  5  2  0
  4 28  1  0
  5  6  1  0
  5  8  1  0
  6  7  2  0
  6 29  1  0
  7 30  1  0
  8  9  1  0
  8 25  1  0
  8 26  1  0
  9 10  1  0
  9 31  1  0
  9 32  1  0
 10 11  1  0
 10 33  1  0
 10 34  1  0
 11 12  1  0
 11 24  1  0
 12 13  1  0
 12 35  1  0
 12 36  1  0
 13 14  1  0
 13 37  1  0
 13 38  1  0
 14 15  1  0
 14 39  1  0
 14 40  1  0
 15 16  2  0
 15 17  1  0
 17 18  2  0
 17 22  1  0
 18 19  1  0
 18 41  1  0
 19 20  2  0
 19 42  1  0
 20 21  1  0
 20 23  1  0
 21 22  2  0
 21 43  1  0
 22 44  1  0
 24 25  1  0
 24 45  1  0
 24 46  1  0
 25 47  1  0
 25 48  1  0
 26 49  1  0
M  END

