49
rmsd222.gzmat
Cl         0.00000        0.00000        0.00000
C          1.71400        0.00000        0.00000
C          2.37930        0.00000        1.21710
C          3.77300        0.00190        1.20670
C          4.47570        0.00340        0.00030
C          3.77340        0.00290       -1.20930
C          2.38030        0.00150       -1.21750
C          5.98930       -0.00590       -0.01320
C          6.61280        1.18920        0.73210
C          6.78590        0.95400        2.23970
N          7.49340       -0.32630        2.46410
C          7.90960       -0.49190        3.86830
C          6.76950       -0.55980        4.90700
C          7.33410       -0.72380        6.31850
C          8.02490        0.53280        6.78890
O          7.84270        1.60250        6.26080
C          8.96760        0.40490        7.92990
C         10.07350        1.25970        7.96100
C         10.99050        1.18420        9.00520
C         10.75690        0.24660       10.01080
C          9.65270       -0.60650       10.01460
C          8.75510       -0.51880        8.95460
F         11.62130        0.16220       11.00940
C          6.69040       -1.46740        1.97150
C          6.56400       -1.36020        0.44510
O          6.32770        0.14400       -1.39110
H          1.83460       -0.00020        2.16010
H          4.30890        0.00330        2.15530
H          4.31660        0.00650       -2.15960
H          1.83590        0.00200       -2.16110
H          6.00380        2.09700        0.55960
H          7.60730        1.40310        0.28880
H          7.40650        1.77380        2.67020
H          5.80270        1.00590        2.75560
H          8.58590        0.36090        4.11400
H          8.53610       -1.40930        3.92670
H          6.08750       -1.39660        4.67290
H          6.15830        0.36450        4.85420
H          8.03070       -1.58570        6.35760
H          6.51270       -0.96810        7.02530
H         10.20980        1.99480        7.16150
H         11.85730        1.84260        9.03580
H          9.49470       -1.31960       10.82170
H          7.88270       -1.17310        8.93780
H          7.22090       -2.41030        2.23070
H          5.68460       -1.53190        2.43860
H          7.56660       -1.49760       -0.00940
H          5.93800       -2.18350        0.05440
H          7.29410        0.16580       -1.51690
