49

Cl        -0.05880        0.22320        0.65980
C          1.67520        0.20440        0.43380
C          2.48190        1.05440        1.18770
C          3.86800        1.02930        1.00300
C          4.46570        0.16010        0.08380
C          3.62430       -0.67000       -0.67600
C          2.24190       -0.65860       -0.50890
C          5.97250        0.07710       -0.17070
C          6.81120        1.14070        0.56470
C          7.02680        0.87240        2.05800
N          7.52150       -0.47560        2.28100
C          8.00270       -0.72750        3.62650
C          6.94350       -0.74210        4.74410
C          7.56380       -0.89100        6.13040
C          8.25590        0.37350        6.62490
O          8.21670        1.40480        5.97870
C          8.97630        0.32810        7.93790
C          9.61210        1.50160        8.38110
C         10.29720        1.53140        9.59110
C         10.34210        0.37050       10.36410
C          9.72210       -0.80900        9.95640
C          9.04020       -0.82380        8.74010
F         10.99810        0.39010       11.52860
C          6.63680       -1.48980        1.73350
C          6.51700       -1.31440        0.22310
O          6.10390        0.25800       -1.58230
H          2.02940        1.73480        1.91030
H          4.47360        1.71370        1.59440
H          4.06470       -1.32250       -1.43130
H          1.59920       -1.30660       -1.10650
H          6.37590        2.13860        0.40370
H          7.80120        1.14320        0.07850
H          7.76740        1.58580        2.45340
H          6.08860        1.06460        2.61940
H          8.75310        0.04290        3.86330
H          8.53110       -1.69870        3.62540
H          6.23520       -1.56900        4.57590
H          6.36490        0.19350        4.71640
H          8.29000       -1.72340        6.14920
H          6.79650       -1.15790        6.87860
H          9.55150        2.38740        7.74680
H         10.79710        2.43280        9.95000
H          9.78200       -1.69310       10.59320
H          8.55530       -1.74790        8.42340
H          7.05890       -2.48270        1.95920
H          5.61960       -1.46490        2.18580
H          7.52600       -1.41560       -0.21340
H          5.88290       -2.10050       -0.21280
H          7.03090        0.10120       -1.80880
