rmsd1.gzmat
 OpenBabel08211713393D

 49 51  0  0  0  0  0  0  0  0999 V2000
    0.0000    0.0000    0.0000 Cl  0  0  0  0  0  0  0  0  0  0  0  0
    1.7137    0.0000    0.0000 C   0  0  0  0  0  0  0  0  0  0  0  0
    2.3797    0.0000    1.2165 C   0  0  0  0  0  0  0  0  0  0  0  0
    3.7737   -0.0051    1.2058 C   0  0  0  0  0  0  0  0  0  0  0  0
    4.4747   -0.0160   -0.0006 C   0  0  0  0  0  0  0  0  0  0  0  0
    3.7719   -0.0108   -1.2102 C   0  0  0  0  0  0  0  0  0  0  0  0
    2.3792   -0.0019   -1.2181 C   0  0  0  0  0  0  0  0  0  0  0  0
    5.9865   -0.0727   -0.0285 C   0  0  0  0  0  0  0  0  0  0  0  0
    6.6859    0.9301    0.9084 C   0  0  0  0  0  0  0  0  0  0  0  0
    6.8553    0.4323    2.3527 C   0  0  0  0  0  0  0  0  0  0  0  0
    7.4393   -0.9277    2.3574 N   0  0  0  0  0  0  0  0  0  0  0  0
    7.7938   -1.3752    3.7182 C   0  0  0  0  0  0  0  0  0  0  0  0
    6.6135   -1.5715    4.6883 C   0  0  0  0  0  0  0  0  0  0  0  0
    7.1233   -1.9370    6.0829 C   0  0  0  0  0  0  0  0  0  0  0  0
    5.9657   -2.1980    7.0150 C   0  0  0  0  0  0  0  0  0  0  0  0
    4.8328   -2.2665    6.6010 O   0  0  0  0  0  0  0  0  0  0  0  0
    6.2467   -2.3589    8.4639 C   0  0  0  0  0  0  0  0  0  0  0  0
    5.1595   -2.2917    9.3426 C   0  0  0  0  0  0  0  0  0  0  0  0
    5.3480   -2.4396   10.7131 C   0  0  0  0  0  0  0  0  0  0  0  0
    6.6459   -2.6645   11.1708 C   0  0  0  0  0  0  0  0  0  0  0  0
    7.7491   -2.7424   10.3201 C   0  0  0  0  0  0  0  0  0  0  0  0
    7.5351   -2.5833    8.9542 C   0  0  0  0  0  0  0  0  0  0  0  0
    6.8418   -2.8127   12.4709 F   0  0  0  0  0  0  0  0  0  0  0  0
    6.5494   -1.8883    1.6658 C   0  0  0  0  0  0  0  0  0  0  0  0
    6.4914   -1.5137    0.1789 C   0  0  0  0  0  0  0  0  0  0  0  0
    6.3216    0.3132   -1.3603 O   0  0  0  0  0  0  0  0  0  0  0  0
    1.8372    0.0026    2.1612 H   0  0  0  0  0  0  0  0  0  0  0  0
    4.3077   -0.0025    2.1555 H   0  0  0  0  0  0  0  0  0  0  0  0
    4.3162   -0.0111   -2.1592 H   0  0  0  0  0  0  0  0  0  0  0  0
    1.8345    0.0018   -2.1611 H   0  0  0  0  0  0  0  0  0  0  0  0
    6.1355    1.8900    0.9024 H   0  0  0  0  0  0  0  0  0  0  0  0
    7.6895    1.1563    0.4920 H   0  0  0  0  0  0  0  0  0  0  0  0
    7.5585    1.1097    2.8884 H   0  0  0  0  0  0  0  0  0  0  0  0
    5.8871    0.4907    2.8975 H   0  0  0  0  0  0  0  0  0  0  0  0
    8.5145   -0.6373    4.1367 H   0  0  0  0  0  0  0  0  0  0  0  0
    8.3605   -2.3282    3.6127 H   0  0  0  0  0  0  0  0  0  0  0  0
    5.9315   -2.3626    4.3164 H   0  0  0  0  0  0  0  0  0  0  0  0
    5.9919   -0.6573    4.7412 H   0  0  0  0  0  0  0  0  0  0  0  0
    7.7617   -1.1246    6.4844 H   0  0  0  0  0  0  0  0  0  0  0  0
    7.7665   -2.8399    6.0312 H   0  0  0  0  0  0  0  0  0  0  0  0
    4.1536   -2.1250    8.9405 H   0  0  0  0  0  0  0  0  0  0  0  0
    4.5061   -2.3836   11.4014 H   0  0  0  0  0  0  0  0  0  0  0  0
    8.7490   -2.9240   10.7100 H   0  0  0  0  0  0  0  0  0  0  0  0
    8.3859   -2.6414    8.2741 H   0  0  0  0  0  0  0  0  0  0  0  0
    6.9772   -2.9092    1.7741 H   0  0  0  0  0  0  0  0  0  0  0  0
    5.5244   -1.9229    2.0947 H   0  0  0  0  0  0  0  0  0  0  0  0
    7.5041   -1.6109   -0.2611 H   0  0  0  0  0  0  0  0  0  0  0  0
    5.8478   -2.2248   -0.3716 H   0  0  0  0  0  0  0  0  0  0  0  0
    7.2820    0.2527   -1.5157 H   0  0  0  0  0  0  0  0  0  0  0  0
  1  2  1  0  0  0  0
  2  3  2  0  0  0  0
  3 27  1  0  0  0  0
  4  3  1  0  0  0  0
  4 28  1  0  0  0  0
  5  4  2  0  0  0  0
  6  5  1  0  0  0  0
  7  6  2  0  0  0  0
  7  2  1  0  0  0  0
  8  5  1  0  0  0  0
  8 25  1  0  0  0  0
  8  9  1  0  0  0  0
  9 10  1  0  0  0  0
 10 11  1  0  0  0  0
 10 33  1  0  0  0  0
 10 34  1  0  0  0  0
 11 12  1  0  0  0  0
 12 35  1  0  0  0  0
 12 13  1  0  0  0  0
 13 38  1  0  0  0  0
 13 14  1  0  0  0  0
 14 39  1  0  0  0  0
 14 15  1  0  0  0  0
 15 17  1  0  0  0  0
 16 15  2  0  0  0  0
 17 22  2  0  0  0  0
 17 18  1  0  0  0  0
 18 19  2  0  0  0  0
 19 20  1  0  0  0  0
 19 42  1  0  0  0  0
 20 23  1  0  0  0  0
 21 43  1  0  0  0  0
 21 20  2  0  0  0  0
 22 21  1  0  0  0  0
 24 45  1  0  0  0  0
 24 46  1  0  0  0  0
 24 11  1  0  0  0  0
 25 24  1  0  0  0  0
 26  8  1  0  0  0  0
 29  6  1  0  0  0  0
 30  7  1  0  0  0  0
 31  9  1  0  0  0  0
 32  9  1  0  0  0  0
 36 12  1  0  0  0  0
 37 13  1  0  0  0  0
 40 14  1  0  0  0  0
 41 18  1  0  0  0  0
 44 22  1  0  0  0  0
 47 25  1  0  0  0  0
 48 25  1  0  0  0  0
 49 26  1  0  0  0  0
M  END
$$$$
