rmsd146.gzmat
 OpenBabel08211713373D

 52 54  0  0  0  0  0  0  0  0999 V2000
    0.0000    0.0000    0.0000 C   0  0  0  0  0  0  0  0  0  0  0  0
    1.1311    0.0000    0.0000 H   0  0  0  0  0  0  0  0  0  0  0  0
   -0.4827    0.0000   -1.4664 C   0  0  0  0  0  0  0  0  0  0  0  0
   -1.9745    0.3459   -1.5839 C   0  0  0  0  0  0  0  0  0  0  0  0
   -2.1720    1.7027   -1.0223 N   0  0  0  0  0  0  0  0  0  0  0  0
   -1.9288    1.6688    0.4425 C   0  0  0  0  0  0  0  0  0  0  0  0
   -0.4694    1.2714    0.7275 C   0  0  0  0  0  0  0  0  0  0  0  0
   -3.5300    2.2319   -1.3042 C   0  0  0  0  0  0  0  0  0  0  0  0
   -3.7189    2.5325   -2.8047 C   0  0  0  0  0  0  0  0  0  0  0  0
   -2.6026    3.4165   -3.3688 C   0  0  0  0  0  0  0  0  0  0  0  0
   -2.7127    4.8133   -2.8126 C   0  0  0  0  0  0  0  0  0  0  0  0
   -3.7439    5.4379   -2.9001 O   0  0  0  0  0  0  0  0  0  0  0  0
   -1.5148    5.4301   -2.1874 C   0  0  0  0  0  0  0  0  0  0  0  0
   -1.3177    6.8030   -2.3628 C   0  0  0  0  0  0  0  0  0  0  0  0
   -0.2173    7.4326   -1.7885 C   0  0  0  0  0  0  0  0  0  0  0  0
    0.6554    6.6532   -1.0294 C   0  0  0  0  0  0  0  0  0  0  0  0
    0.4745    5.2857   -0.8229 C   0  0  0  0  0  0  0  0  0  0  0  0
   -0.6277    4.6775   -1.4170 C   0  0  0  0  0  0  0  0  0  0  0  0
    1.7064    7.2404   -0.4777 F   0  0  0  0  0  0  0  0  0  0  0  0
   -0.3803   -1.2404    0.6921 N   0  0  0  0  0  0  0  0  0  0  0  0
    0.0641   -2.5081    0.2578 C   0  0  0  0  0  0  0  0  0  0  0  0
   -0.6682   -3.4989    0.9924 C   0  0  0  0  0  0  0  0  0  0  0  0
   -0.4407   -4.8521    0.8032 C   0  0  0  0  0  0  0  0  0  0  0  0
    0.5344   -5.2126   -0.1298 C   0  0  0  0  0  0  0  0  0  0  0  0
    1.2559   -4.2515   -0.8402 C   0  0  0  0  0  0  0  0  0  0  0  0
    1.0359   -2.8837   -0.6565 C   0  0  0  0  0  0  0  0  0  0  0  0
   -1.5550   -2.8157    1.8364 N   0  0  0  0  0  0  0  0  0  0  0  0
   -2.1730   -3.2323    2.4995 H   0  0  0  0  0  0  0  0  0  0  0  0
   -1.3931   -1.4180    1.6611 C   0  0  0  0  0  0  0  0  0  0  0  0
   -1.9977   -0.5861    2.2927 O   0  0  0  0  0  0  0  0  0  0  0  0
   -0.2897   -0.9759   -1.9463 H   0  0  0  0  0  0  0  0  0  0  0  0
    0.1084    0.7501   -2.0305 H   0  0  0  0  0  0  0  0  0  0  0  0
   -2.2716    0.3467   -2.6544 H   0  0  0  0  0  0  0  0  0  0  0  0
   -2.5924   -0.4267   -1.0786 H   0  0  0  0  0  0  0  0  0  0  0  0
   -2.1112    2.6864    0.8541 H   0  0  0  0  0  0  0  0  0  0  0  0
   -2.6300    0.9862    0.9721 H   0  0  0  0  0  0  0  0  0  0  0  0
    0.1958    2.1039    0.4190 H   0  0  0  0  0  0  0  0  0  0  0  0
   -0.3387    1.1575    1.8241 H   0  0  0  0  0  0  0  0  0  0  0  0
   -3.6504    3.1811   -0.7319 H   0  0  0  0  0  0  0  0  0  0  0  0
   -4.3351    1.5483   -0.9587 H   0  0  0  0  0  0  0  0  0  0  0  0
   -4.7000    3.0344   -2.9469 H   0  0  0  0  0  0  0  0  0  0  0  0
   -3.7751    1.5915   -3.3815 H   0  0  0  0  0  0  0  0  0  0  0  0
   -2.6796    3.4688   -4.4744 H   0  0  0  0  0  0  0  0  0  0  0  0
   -1.6153    2.9587   -3.1537 H   0  0  0  0  0  0  0  0  0  0  0  0
   -2.0378    7.3809   -2.9490 H   0  0  0  0  0  0  0  0  0  0  0  0
   -0.0505    8.4987   -1.9247 H   0  0  0  0  0  0  0  0  0  0  0  0
    1.1699    4.7106   -0.2161 H   0  0  0  0  0  0  0  0  0  0  0  0
   -0.8042    3.6022   -1.2681 H   0  0  0  0  0  0  0  0  0  0  0  0
   -0.9940   -5.6046    1.3561 H   0  0  0  0  0  0  0  0  0  0  0  0
    0.7370   -6.2689   -0.3028 H   0  0  0  0  0  0  0  0  0  0  0  0
    2.0118   -4.5732   -1.5554 H   0  0  0  0  0  0  0  0  0  0  0  0
    1.6140   -2.1489   -1.2081 H   0  0  0  0  0  0  0  0  0  0  0  0
  1  2  1  0  0  0  0
  1 20  1  0  0  0  0
  1  7  1  0  0  0  0
  3  1  1  0  0  0  0
  4  3  1  0  0  0  0
  4 34  1  0  0  0  0
  4  5  1  0  0  0  0
  5  6  1  0  0  0  0
  6  7  1  0  0  0  0
  6 35  1  0  0  0  0
  6 36  1  0  0  0  0
  7 38  1  0  0  0  0
  8  5  1  0  0  0  0
  8 40  1  0  0  0  0
  8 39  1  0  0  0  0
  9  8  1  0  0  0  0
 10 44  1  0  0  0  0
 10 11  1  0  0  0  0
 10  9  1  0  0  0  0
 11 13  1  0  0  0  0
 12 11  2  0  0  0  0
 13 18  1  0  0  0  0
 14 13  2  0  0  0  0
 14 15  1  0  0  0  0
 15 16  2  0  0  0  0
 16 17  1  0  0  0  0
 16 19  1  0  0  0  0
 17 47  1  0  0  0  0
 18 48  1  0  0  0  0
 18 17  2  0  0  0  0
 20 29  1  0  0  0  0
 21 20  1  0  0  0  0
 21 22  2  0  0  0  0
 22 27  1  0  0  0  0
 23 22  1  0  0  0  0
 23 49  1  0  0  0  0
 24 23  2  0  0  0  0
 25 26  2  0  0  0  0
 25 24  1  0  0  0  0
 26 21  1  0  0  0  0
 27 28  1  0  0  0  0
 29 27  1  0  0  0  0
 29 30  2  0  0  0  0
 31  3  1  0  0  0  0
 32  3  1  0  0  0  0
 33  4  1  0  0  0  0
 37  7  1  0  0  0  0
 41  9  1  0  0  0  0
 42  9  1  0  0  0  0
 45 14  1  0  0  0  0
 46 15  1  0  0  0  0
 50 24  1  0  0  0  0
 51 25  1  0  0  0  0
 52 26  1  0  0  0  0
M  RAD  2  10   2  43   2
M  END
$$$$
