52

C         -0.07740       -0.10510       -0.01390
H          1.02340       -0.16990       -0.01540
C         -0.55680       -0.03470       -1.47560
C         -2.01210        0.40860       -1.57760
N         -2.17690        1.71690       -0.96710
C         -1.87330        1.69510        0.46020
C         -0.44980        1.19370        0.72030
C         -3.41340        2.39520       -1.30310
C         -4.71540        1.72770       -0.82570
C         -5.95040        2.57390       -1.17150
C         -7.23820        1.87230       -0.77740
O         -7.89180        1.26860       -1.60820
C         -7.66570        1.88870        0.66040
C         -8.81580        1.15930        1.01110
C         -9.27110        1.12640        2.32480
C         -8.56220        1.83320        3.29710
C         -7.41920        2.56640        2.98600
C         -6.97640        2.59050        1.66370
F         -8.99240        1.80620        4.56330
N         -0.51530       -1.35380        0.63120
C          0.04860       -2.58420        0.28250
C         -0.56800       -3.58000        1.07370
C         -0.21160       -4.91920        0.96540
C          0.79090       -5.25460        0.04280
C          1.41130       -4.27170       -0.73580
C          1.04910       -2.92000       -0.62670
N         -1.48050       -2.91840        1.87690
H         -2.07460       -3.32100        2.58880
C         -1.45970       -1.54380        1.65060
O         -2.12770       -0.71940        2.24230
H         -0.41810       -1.00690       -1.97110
H          0.06980        0.70290       -2.00280
H         -2.30570        0.47270       -2.63810
H         -2.66320       -0.36740       -1.11390
H         -1.95800        2.72490        0.84640
H         -2.57860        1.06830        1.03350
H          0.25640        1.95320        0.34730
H         -0.28590        1.08730        1.80140
H         -3.45770        2.51430       -2.40080
H         -3.36390        3.41640       -0.88380
H         -4.66840        1.55280        0.26090
H         -4.82380        0.73590       -1.29420
H         -6.00030        2.73470       -2.25870
H         -5.87510        3.56220       -0.68880
H         -9.33880        0.62070        0.21910
H        -10.16160        0.56570        2.61420
H         -6.89460        3.10320        3.77790
H         -6.08140        3.16500        1.42280
H         -0.69230       -5.68230        1.58060
H          1.09060       -6.29910       -0.06470
H          2.19210       -4.55720       -1.44390
H          1.54070       -2.16350       -1.23870
