
     RDKit          3D

 52 55  0  0  0  0  0  0  0  0999 V2000
   -0.0196   -0.1140   -0.2301 C   0  0  0  0  0  0  0  0  0  0  0  0
    1.0740   -0.2307   -0.3111 H   0  0  0  0  0  0  0  0  0  0  0  0
   -0.6131   -0.1422   -1.6499 C   0  0  0  0  0  0  0  0  0  0  0  0
   -2.0458    0.3761   -1.6888 C   0  0  0  0  0  0  0  0  0  0  0  0
   -2.1074    1.7443   -1.1958 N   0  0  0  0  0  0  0  0  0  0  0  0
   -1.6930    1.8100    0.2058 C   0  0  0  0  0  0  0  0  0  0  0  0
   -0.2818    1.2575    0.4133 C   0  0  0  0  0  0  0  0  0  0  0  0
   -3.4039    2.3793   -1.3984 C   0  0  0  0  0  0  0  0  0  0  0  0
   -3.7422    2.6580   -2.8644 C   0  0  0  0  0  0  0  0  0  0  0  0
   -2.7010    3.5189   -3.5987 C   0  0  0  0  0  0  0  0  0  0  0  0
   -2.6894    4.9534   -3.0821 C   0  0  0  0  0  0  0  0  0  0  0  0
   -3.6082    5.6986   -3.3736 O   0  0  0  0  0  0  0  0  0  0  0  0
   -1.5676    5.4369   -2.2166 C   0  0  0  0  0  0  0  0  0  0  0  0
   -1.5162    6.8100   -1.9129 C   0  0  0  0  0  0  0  0  0  0  0  0
   -0.5086    7.3259   -1.1051 C   0  0  0  0  0  0  0  0  0  0  0  0
    0.4479    6.4507   -0.5872 C   0  0  0  0  0  0  0  0  0  0  0  0
    0.4169    5.0845   -0.8564 C   0  0  0  0  0  0  0  0  0  0  0  0
   -0.5917    4.5812   -1.6785 C   0  0  0  0  0  0  0  0  0  0  0  0
    1.4186    6.9385    0.1942 F   0  0  0  0  0  0  0  0  0  0  0  0
   -0.4560   -1.2800    0.5528 N   0  0  0  0  0  0  0  0  0  0  0  0
    0.0233   -2.5623    0.2715 C   0  0  0  0  0  0  0  0  0  0  0  0
   -0.5667   -3.4540    1.1961 C   0  0  0  0  0  0  0  0  0  0  0  0
   -0.2784   -4.8137    1.1800 C   0  0  0  0  0  0  0  0  0  0  0  0
    0.6274   -5.2770    0.2137 C   0  0  0  0  0  0  0  0  0  0  0  0
    1.2217   -4.3972   -0.6973 C   0  0  0  0  0  0  0  0  0  0  0  0
    0.9283   -3.0245   -0.6812 C   0  0  0  0  0  0  0  0  0  0  0  0
   -1.3791   -2.6809    2.0073 N   0  0  0  0  0  0  0  0  0  0  0  0
   -1.9251   -2.9904    2.7999 H   0  0  0  0  0  0  0  0  0  0  0  0
   -1.3184   -1.3336    1.6582 C   0  0  0  0  0  0  0  0  0  0  0  0
   -1.8968   -0.4276    2.2234 O   0  0  0  0  0  0  0  0  0  0  0  0
   -0.5685   -1.1605   -2.0629 H   0  0  0  0  0  0  0  0  0  0  0  0
    0.0099    0.5012   -2.2928 H   0  0  0  0  0  0  0  0  0  0  0  0
   -2.4097    0.3445   -2.7258 H   0  0  0  0  0  0  0  0  0  0  0  0
   -2.7087   -0.2982   -1.0982 H   0  0  0  0  0  0  0  0  0  0  0  0
   -1.7033    2.8670    0.5168 H   0  0  0  0  0  0  0  0  0  0  0  0
   -2.3982    1.2655    0.8599 H   0  0  0  0  0  0  0  0  0  0  0  0
    0.4351    1.9475   -0.0614 H   0  0  0  0  0  0  0  0  0  0  0  0
   -0.0521    1.2329    1.4868 H   0  0  0  0  0  0  0  0  0  0  0  0
   -3.3874    3.3346   -0.8483 H   0  0  0  0  0  0  0  0  0  0  0  0
   -4.2234    1.7787   -0.9431 H   0  0  0  0  0  0  0  0  0  0  0  0
   -4.7152    3.1736   -2.9031 H   0  0  0  0  0  0  0  0  0  0  0  0
   -3.8763    1.7132   -3.4153 H   0  0  0  0  0  0  0  0  0  0  0  0
   -2.9872    3.5891   -4.6592 H   0  0  0  0  0  0  0  0  0  0  0  0
   -1.7125    3.0462   -3.5426 H   0  0  0  0  0  0  0  0  0  0  0  0
   -2.2904    7.4566   -2.3294 H   0  0  0  0  0  0  0  0  0  0  0  0
   -0.4476    8.3885   -0.8637 H   0  0  0  0  0  0  0  0  0  0  0  0
    1.1768    4.4358   -0.4170 H   0  0  0  0  0  0  0  0  0  0  0  0
   -0.6528    3.5065   -1.8573 H   0  0  0  0  0  0  0  0  0  0  0  0
   -0.7373   -5.4961    1.8981 H   0  0  0  0  0  0  0  0  0  0  0  0
    0.8723   -6.3405    0.1771 H   0  0  0  0  0  0  0  0  0  0  0  0
    1.9273   -4.7813   -1.4369 H   0  0  0  0  0  0  0  0  0  0  0  0
    1.3993   -2.3489   -1.3955 H   0  0  0  0  0  0  0  0  0  0  0  0
  1  2  1  0
  1  3  1  0
  1  7  1  0
  1 20  1  0
  3  4  1  0
  3 31  1  0
  3 32  1  0
  4  5  1  0
  4 33  1  0
  4 34  1  0
  5  6  1  0
  5  8  1  0
  6  7  1  0
  6 35  1  0
  6 36  1  0
  7 37  1  0
  7 38  1  0
  8  9  1  0
  8 39  1  0
  8 40  1  0
  9 10  1  0
  9 41  1  0
  9 42  1  0
 10 11  1  0
 10 43  1  0
 10 44  1  0
 11 12  2  0
 11 13  1  0
 13 14  2  0
 13 18  1  0
 14 15  1  0
 14 45  1  0
 15 16  2  0
 15 46  1  0
 16 17  1  0
 16 19  1  0
 17 18  2  0
 17 47  1  0
 18 48  1  0
 20 21  1  0
 20 29  1  0
 21 22  1  0
 21 26  2  0
 22 23  2  0
 22 27  1  0
 23 24  1  0
 23 49  1  0
 24 25  2  0
 24 50  1  0
 25 26  1  0
 25 51  1  0
 26 52  1  0
 27 28  1  0
 27 29  1  0
 29 30  2  0
M  END

