52

C         -0.96810       -0.22140       -0.99690
H          0.05500       -0.59140       -1.17940
C         -1.69260       -0.19320       -2.35260
C         -2.97880        0.63980       -2.38340
N         -2.80470        1.95410       -1.77380
C         -2.25660        1.87130       -0.43140
C         -0.88530        1.21350       -0.44990
C         -3.96660        2.81550       -1.91220
C         -5.30000        2.35140       -1.25580
C         -5.70430        3.06180        0.05440
C         -4.81320        2.78990        1.25350
O         -4.06510        3.65080        1.68060
C         -4.83050        1.42560        1.87890
C         -5.73370        0.41950        1.50280
C         -5.65360       -0.85520        2.06320
C         -4.65900       -1.10840        3.00080
C         -3.75520       -0.13080        3.41310
C         -3.85320        1.13610        2.84870
F         -4.54560       -2.35390        3.50180
N         -1.52360       -1.14230        0.01280
C         -0.81720       -1.45010        1.18020
C         -1.60210       -2.35280        1.93200
C         -1.19020       -2.82520        3.17250
C          0.05730       -2.39550        3.64930
C          0.85590       -1.52850        2.89490
C          0.43080       -1.04350        1.64810
N         -2.73760       -2.58940        1.18160
H         -3.53450       -3.14610        1.45770
C         -2.73470       -1.85250        0.00120
O         -3.61850       -1.85720       -0.83340
H         -1.91080       -1.21210       -2.70040
H         -0.96960        0.25190       -3.05540
H         -3.27720        0.78460       -3.43600
H         -3.77670        0.05220       -1.89690
H         -2.18620        2.88430       -0.01050
H         -2.90470        1.28830        0.25430
H         -0.21660        1.79210       -1.10750
H         -0.45320        1.22430        0.56050
H         -4.14620        2.93520       -2.99380
H         -3.69960        3.81540       -1.52910
H         -5.26990        1.26150       -1.10520
H         -6.11900        2.52620       -1.97200
H         -6.73860        2.77450        0.30830
H         -5.69440        4.15170       -0.09460
H         -6.50410        0.61440        0.75710
H         -6.33440       -1.65440        1.76690
H         -2.98220       -0.38320        4.14010
H         -3.15820        1.93020        3.12590
H         -1.82070       -3.50240        3.75070
H          0.41000       -2.74870        4.62060
H          1.82860       -1.21720        3.28150
H          1.06310       -0.36680        1.07370
