52
rmsd192.gzmat
C          0.00000        0.00000        0.00000
H          1.13100        0.00000        0.00000
C         -0.46770        0.00000       -1.46470
C         -1.92590        0.44880       -1.67520
N         -2.18680        1.71440       -0.95190
C         -1.97990        1.52820        0.50220
C         -0.48390        1.26920        0.73260
C         -3.52210        2.26010       -1.25830
C         -4.72230        1.39310       -0.82180
C         -6.03890        2.05490       -1.22890
C         -6.32760        3.27470       -0.39140
O         -5.80640        3.45150        0.68310
C         -7.33220        4.24680       -0.90050
C         -8.11400        4.92010        0.04380
C         -9.07770        5.83700       -0.36460
C         -9.22040        6.06590       -1.73290
C         -8.44060        5.42640       -2.69630
C         -7.48680        4.50970       -2.26230
F        -10.13570        6.93270       -2.13640
N         -0.37450       -1.22260        0.72910
C          0.08890       -1.47300        2.03960
C         -0.66530       -2.57420        2.56480
C         -0.41990       -3.07780        3.83140
C          0.59730       -2.47250        4.57370
C          1.33850       -1.40510        4.06370
C          1.09810       -0.88780        2.78840
N         -1.59100       -2.94640        1.57980
H         -2.22980       -3.71040        1.63350
C         -1.42830       -2.11750        0.43960
O         -2.06240       -2.25130       -0.57880
H         -0.33800       -1.00830       -1.90840
H          0.19740        0.68270       -2.03260
H         -2.09330        0.62950       -2.75990
H         -2.62470       -0.36510       -1.37860
H         -2.28810        2.45770        1.03020
H         -2.58440        0.69810        0.92670
H          0.09330        2.13660        0.35000
H         -0.27810        1.20640        1.81580
H         -3.56310        2.44460       -2.35430
H         -3.58910        3.26090       -0.77040
H         -4.69790        1.24160        0.27650
H         -4.64900        0.38410       -1.26890
H         -6.87970        1.33810       -1.10090
H         -6.02530        2.29640       -2.30910
H         -7.95770        4.72550        1.10970
H         -9.69520        6.35970        0.36370
H         -8.56970        5.63640       -3.75630
H         -6.85670        4.00840       -2.99900
H         -0.99080       -3.90830        4.23370
H          0.81770       -2.84560        5.57270
H          2.12590       -0.96360        4.67310
H          1.68780       -0.06190        2.40320
