
     RDKit          3D

 52 55  0  0  0  0  0  0  0  0999 V2000
   -0.1925   -0.1968   -0.0178 C   0  0  0  0  0  0  0  0  0  0  0  0
    0.9084   -0.1572   -0.0690 H   0  0  0  0  0  0  0  0  0  0  0  0
   -0.7445   -0.1258   -1.4540 C   0  0  0  0  0  0  0  0  0  0  0  0
   -2.2351    0.1938   -1.4765 C   0  0  0  0  0  0  0  0  0  0  0  0
   -2.4759    1.4656   -0.8162 N   0  0  0  0  0  0  0  0  0  0  0  0
   -2.1209    1.4157    0.5969 C   0  0  0  0  0  0  0  0  0  0  0  0
   -0.6489    1.0346    0.7833 C   0  0  0  0  0  0  0  0  0  0  0  0
   -3.7705    2.0571   -1.0955 C   0  0  0  0  0  0  0  0  0  0  0  0
   -5.0022    1.3044   -0.5583 C   0  0  0  0  0  0  0  0  0  0  0  0
   -6.3136    1.9424   -1.0070 C   0  0  0  0  0  0  0  0  0  0  0  0
   -6.6430    1.6942   -2.4734 C   0  0  0  0  0  0  0  0  0  0  0  0
   -5.9455    0.9737   -3.1638 O   0  0  0  0  0  0  0  0  0  0  0  0
   -7.8636    2.3450   -3.0524 C   0  0  0  0  0  0  0  0  0  0  0  0
   -8.7228    3.1691   -2.3062 C   0  0  0  0  0  0  0  0  0  0  0  0
   -9.8479    3.7457   -2.8950 C   0  0  0  0  0  0  0  0  0  0  0  0
  -10.1064    3.4912   -4.2403 C   0  0  0  0  0  0  0  0  0  0  0  0
   -9.2733    2.6776   -5.0092 C   0  0  0  0  0  0  0  0  0  0  0  0
   -8.1558    2.1086   -4.4074 C   0  0  0  0  0  0  0  0  0  0  0  0
  -11.1832    4.0423   -4.8104 F   0  0  0  0  0  0  0  0  0  0  0  0
   -0.4791   -1.5031    0.5994 N   0  0  0  0  0  0  0  0  0  0  0  0
    0.1841   -2.6600    0.1823 C   0  0  0  0  0  0  0  0  0  0  0  0
   -0.2967   -3.7373    0.9612 C   0  0  0  0  0  0  0  0  0  0  0  0
    0.1825   -5.0307    0.7886 C   0  0  0  0  0  0  0  0  0  0  0  0
    1.1699   -5.2357   -0.1870 C   0  0  0  0  0  0  0  0  0  0  0  0
    1.6559   -4.1717   -0.9542 C   0  0  0  0  0  0  0  0  0  0  0  0
    1.1699   -2.8663   -0.7802 C   0  0  0  0  0  0  0  0  0  0  0  0
   -1.2316   -3.1951    1.8253 N   0  0  0  0  0  0  0  0  0  0  0  0
   -1.7501   -3.6766    2.5471 H   0  0  0  0  0  0  0  0  0  0  0  0
   -1.3538   -1.8176    1.6491 C   0  0  0  0  0  0  0  0  0  0  0  0
   -2.0708   -1.0835    2.2990 O   0  0  0  0  0  0  0  0  0  0  0  0
   -0.5459   -1.0678   -1.9863 H   0  0  0  0  0  0  0  0  0  0  0  0
   -0.2083    0.6783   -1.9836 H   0  0  0  0  0  0  0  0  0  0  0  0
   -2.5911    0.2601   -2.5165 H   0  0  0  0  0  0  0  0  0  0  0  0
   -2.7949   -0.6468   -1.0056 H   0  0  0  0  0  0  0  0  0  0  0  0
   -2.2813    2.4173    1.0308 H   0  0  0  0  0  0  0  0  0  0  0  0
   -2.7468    0.7058    1.1664 H   0  0  0  0  0  0  0  0  0  0  0  0
   -0.0301    1.8686    0.4141 H   0  0  0  0  0  0  0  0  0  0  0  0
   -0.4295    0.9029    1.8518 H   0  0  0  0  0  0  0  0  0  0  0  0
   -3.8674    2.1542   -2.1887 H   0  0  0  0  0  0  0  0  0  0  0  0
   -3.7735    3.0829   -0.6826 H   0  0  0  0  0  0  0  0  0  0  0  0
   -4.9724    1.2759    0.5420 H   0  0  0  0  0  0  0  0  0  0  0  0
   -4.9784    0.2621   -0.9105 H   0  0  0  0  0  0  0  0  0  0  0  0
   -6.3030    3.0324   -0.8262 H   0  0  0  0  0  0  0  0  0  0  0  0
   -7.1624    1.5584   -0.4133 H   0  0  0  0  0  0  0  0  0  0  0  0
   -8.5227    3.3692   -1.2530 H   0  0  0  0  0  0  0  0  0  0  0  0
  -10.5269    4.3877   -2.3315 H   0  0  0  0  0  0  0  0  0  0  0  0
   -9.5146    2.5057   -6.0596 H   0  0  0  0  0  0  0  0  0  0  0  0
   -7.4789    1.4650   -4.9716 H   0  0  0  0  0  0  0  0  0  0  0  0
   -0.1938   -5.8570    1.3949 H   0  0  0  0  0  0  0  0  0  0  0  0
    1.5642   -6.2417   -0.3455 H   0  0  0  0  0  0  0  0  0  0  0  0
    2.4274   -4.3557   -1.7050 H   0  0  0  0  0  0  0  0  0  0  0  0
    1.5565   -2.0456   -1.3845 H   0  0  0  0  0  0  0  0  0  0  0  0
  1  2  1  0
  1  3  1  0
  1  7  1  0
  1 20  1  0
  3  4  1  0
  3 31  1  0
  3 32  1  0
  4  5  1  0
  4 33  1  0
  4 34  1  0
  5  6  1  0
  5  8  1  0
  6  7  1  0
  6 35  1  0
  6 36  1  0
  7 37  1  0
  7 38  1  0
  8  9  1  0
  8 39  1  0
  8 40  1  0
  9 10  1  0
  9 41  1  0
  9 42  1  0
 10 11  1  0
 10 43  1  0
 10 44  1  0
 11 12  2  0
 11 13  1  0
 13 14  2  0
 13 18  1  0
 14 15  1  0
 14 45  1  0
 15 16  2  0
 15 46  1  0
 16 17  1  0
 16 19  1  0
 17 18  2  0
 17 47  1  0
 18 48  1  0
 20 21  1  0
 20 29  1  0
 21 22  1  0
 21 26  2  0
 22 23  2  0
 22 27  1  0
 23 24  1  0
 23 49  1  0
 24 25  2  0
 24 50  1  0
 25 26  1  0
 25 51  1  0
 26 52  1  0
 27 28  1  0
 27 29  1  0
 29 30  2  0
M  END

