52
rmsd56.gzmat
C          0.00000        0.00000        0.00000
H          1.13150        0.00000        0.00000
C         -0.48120        0.00000       -1.46610
C         -1.97130        0.35400       -1.57830
N         -2.14970        1.71380       -1.02110
C         -1.91010        1.69970        0.44040
C         -0.46350        1.26620        0.73990
C         -3.46270        2.29260       -1.36070
C         -4.69420        1.49110       -0.89020
C         -5.96350        2.32420       -1.08120
C         -7.15640        1.52710       -0.60870
O         -7.70680        0.74500       -1.34610
C         -7.65560        1.74490        0.77250
C         -9.01100        1.50280        1.01820
C         -9.54130        1.69380        2.29050
C         -8.67610        2.11450        3.29980
C         -7.31680        2.34670        3.08930
C         -6.81290        2.15860        1.80550
F         -9.16720        2.30130        4.51490
N         -0.37540       -1.24410        0.68870
C          0.15170       -2.49310        0.29330
C         -0.59530       -3.51380        0.96940
C         -0.28860       -4.85510        0.80960
C          0.77970       -5.17110       -0.03350
C          1.51100       -4.17990       -0.69030
C          1.20910       -2.82400       -0.53900
N         -1.58090       -2.86770        1.72940
H         -2.23620       -3.30930        2.33840
C         -1.46560       -1.46400        1.55920
O         -2.16110       -0.65920        2.12980
H         -0.29100       -0.97760       -1.94470
H          0.11050        0.75070       -2.02990
H         -2.27890        0.35620       -2.64570
H         -2.58820       -0.41290       -1.06140
H         -2.06530        2.73000        0.82840
H         -2.62750        1.04360        0.98400
H          0.21920        2.09270        0.45320
H         -0.35280        1.12970        1.83520
H         -3.49370        2.41490       -2.46710
H         -3.49070        3.32240       -0.93850
H         -4.57530        1.19130        0.16870
H         -4.77210        0.54330       -1.45890
H         -6.09380        2.57560       -2.15590
H         -5.88980        3.29370       -0.55470
H         -9.65280        1.15620        0.20220
H        -10.59640        1.51440        2.48810
H         -6.66600        2.66230        3.90290
H         -5.75050        2.32820        1.61830
H         -0.85060       -5.63130        1.31900
H          1.04810       -6.21680       -0.17900
H          2.33940       -4.46690       -1.33640
H          1.78850       -2.06410       -1.05350
