rmsd247.gzmat
 OpenBabel08211713373D

 52 55  0  0  0  0  0  0  0  0999 V2000
    0.0000    0.0000    0.0000 C   0  0  0  0  0  0  0  0  0  0  0  0
    1.1310    0.0000    0.0000 H   0  0  0  0  0  0  0  0  0  0  0  0
   -0.4481    0.0000   -1.4748 C   0  0  0  0  0  0  0  0  0  0  0  0
   -1.8794    0.5149   -1.7049 C   0  0  0  0  0  0  0  0  0  0  0  0
   -2.0316    1.8272   -1.0363 N   0  0  0  0  0  0  0  0  0  0  0  0
   -1.9053    1.6688    0.4309 C   0  0  0  0  0  0  0  0  0  0  0  0
   -0.4589    1.2631    0.7530 C   0  0  0  0  0  0  0  0  0  0  0  0
   -3.2813    2.5097   -1.4179 C   0  0  0  0  0  0  0  0  0  0  0  0
   -4.5951    1.8267   -0.9845 C   0  0  0  0  0  0  0  0  0  0  0  0
   -5.7780    2.7386   -1.3161 C   0  0  0  0  0  0  0  0  0  0  0  0
   -7.0637    2.0907   -0.8626 C   0  0  0  0  0  0  0  0  0  0  0  0
   -7.3586    2.0201    0.3042 O   0  0  0  0  0  0  0  0  0  0  0  0
   -7.9799    1.5845   -1.9173 C   0  0  0  0  0  0  0  0  0  0  0  0
   -7.4894    0.8879   -3.0225 C   0  0  0  0  0  0  0  0  0  0  0  0
   -8.3643    0.4342   -4.0053 C   0  0  0  0  0  0  0  0  0  0  0  0
   -9.7236    0.7044   -3.8474 C   0  0  0  0  0  0  0  0  0  0  0  0
  -10.2418    1.3866   -2.7472 C   0  0  0  0  0  0  0  0  0  0  0  0
   -9.3487    1.8191   -1.7707 C   0  0  0  0  0  0  0  0  0  0  0  0
  -10.5604    0.2939   -4.7877 F   0  0  0  0  0  0  0  0  0  0  0  0
   -0.3951   -1.2303    0.6989 N   0  0  0  0  0  0  0  0  0  0  0  0
    0.5203   -2.0510    1.3901 C   0  0  0  0  0  0  0  0  0  0  0  0
   -0.2280   -3.1136    1.9990 C   0  0  0  0  0  0  0  0  0  0  0  0
    0.3958   -4.1056    2.7377 C   0  0  0  0  0  0  0  0  0  0  0  0
    1.7833   -4.0248    2.8743 C   0  0  0  0  0  0  0  0  0  0  0  0
    2.5147   -2.9887    2.2904 C   0  0  0  0  0  0  0  0  0  0  0  0
    1.8971   -1.9857    1.5392 C   0  0  0  0  0  0  0  0  0  0  0  0
   -1.5770   -2.9022    1.6832 N   0  0  0  0  0  0  0  0  0  0  0  0
   -2.3451   -3.4668    1.9772 H   0  0  0  0  0  0  0  0  0  0  0  0
   -1.7002   -1.7316    0.8925 C   0  0  0  0  0  0  0  0  0  0  0  0
   -2.7541   -1.3077    0.4844 O   0  0  0  0  0  0  0  0  0  0  0  0
   -0.3502   -1.0158   -1.9012 H   0  0  0  0  0  0  0  0  0  0  0  0
    0.2525    0.6498   -2.0399 H   0  0  0  0  0  0  0  0  0  0  0  0
   -2.0474    0.6510   -2.7951 H   0  0  0  0  0  0  0  0  0  0  0  0
   -2.6225   -0.2363   -1.3551 H   0  0  0  0  0  0  0  0  0  0  0  0
   -2.1350    2.6416    0.9160 H   0  0  0  0  0  0  0  0  0  0  0  0
   -2.6164    0.9200    0.8482 H   0  0  0  0  0  0  0  0  0  0  0  0
    0.2149    2.0981    0.4698 H   0  0  0  0  0  0  0  0  0  0  0  0
   -0.3466    1.1221    1.8438 H   0  0  0  0  0  0  0  0  0  0  0  0
   -3.2697    2.6363   -2.5236 H   0  0  0  0  0  0  0  0  0  0  0  0
   -3.2319    3.5372   -0.9901 H   0  0  0  0  0  0  0  0  0  0  0  0
   -4.5777    1.6071    0.1029 H   0  0  0  0  0  0  0  0  0  0  0  0
   -4.6974    0.8422   -1.4765 H   0  0  0  0  0  0  0  0  0  0  0  0
   -5.7992    2.9804   -2.3950 H   0  0  0  0  0  0  0  0  0  0  0  0
   -5.6645    3.7113   -0.7899 H   0  0  0  0  0  0  0  0  0  0  0  0
   -6.4199    0.6902   -3.1180 H   0  0  0  0  0  0  0  0  0  0  0  0
   -7.9959   -0.1145   -4.8696 H   0  0  0  0  0  0  0  0  0  0  0  0
  -11.3095    1.5731   -2.6491 H   0  0  0  0  0  0  0  0  0  0  0  0
   -9.7155    2.3423   -0.8836 H   0  0  0  0  0  0  0  0  0  0  0  0
   -0.1675   -4.9147    3.1916 H   0  0  0  0  0  0  0  0  0  0  0  0
    2.3049   -4.7882    3.4499 H   0  0  0  0  0  0  0  0  0  0  0  0
    3.5956   -2.9601    2.4217 H   0  0  0  0  0  0  0  0  0  0  0  0
    2.4840   -1.1892    1.0925 H   0  0  0  0  0  0  0  0  0  0  0  0
  1  2  1  0  0  0  0
  1 20  1  0  0  0  0
  1  7  1  0  0  0  0
  3  1  1  0  0  0  0
  4  3  1  0  0  0  0
  4 34  1  0  0  0  0
  4  5  1  0  0  0  0
  5  6  1  0  0  0  0
  6  7  1  0  0  0  0
  6 36  1  0  0  0  0
  6 35  1  0  0  0  0
  7 38  1  0  0  0  0
  8  5  1  0  0  0  0
  8 40  1  0  0  0  0
  8  9  1  0  0  0  0
  9 41  1  0  0  0  0
 10  9  1  0  0  0  0
 10 11  1  0  0  0  0
 10 44  1  0  0  0  0
 11 12  2  0  0  0  0
 13 18  1  0  0  0  0
 13 11  1  0  0  0  0
 14 13  2  0  0  0  0
 15 16  2  0  0  0  0
 15 14  1  0  0  0  0
 16 17  1  0  0  0  0
 17 47  1  0  0  0  0
 17 18  2  0  0  0  0
 18 48  1  0  0  0  0
 19 16  1  0  0  0  0
 20 29  1  0  0  0  0
 20 21  1  0  0  0  0
 21 26  2  0  0  0  0
 21 22  1  0  0  0  0
 22 23  2  0  0  0  0
 23 24  1  0  0  0  0
 23 49  1  0  0  0  0
 24 50  1  0  0  0  0
 25 51  1  0  0  0  0
 25 24  2  0  0  0  0
 26 25  1  0  0  0  0
 27 28  1  0  0  0  0
 27 22  1  0  0  0  0
 29 27  1  0  0  0  0
 30 29  2  0  0  0  0
 31  3  1  0  0  0  0
 32  3  1  0  0  0  0
 33  4  1  0  0  0  0
 37  7  1  0  0  0  0
 39  8  1  0  0  0  0
 42  9  1  0  0  0  0
 43 10  1  0  0  0  0
 45 14  1  0  0  0  0
 46 15  1  0  0  0  0
 52 26  1  0  0  0  0
M  END
$$$$
