52
rmsd124.gzmat
C          0.00000        0.00000        0.00000
H          1.13120        0.00000        0.00000
C         -0.48690        0.00000       -1.46040
C         -1.98980        0.29860       -1.53750
N         -2.21840        1.66020       -1.00320
C         -1.88920        1.74020        0.43930
C         -0.45480        1.26890        0.73850
C         -3.60230        2.11190       -1.25670
C         -4.71000        1.21800       -0.65730
C         -6.06590        1.92610       -0.65470
C         -6.06190        3.08100        0.31790
O         -5.67300        4.17510       -0.01270
C         -6.59680        2.85300        1.68450
C         -6.33260        1.67950        2.39160
C         -6.84830        1.50460        3.67320
C         -7.63080        2.52700        4.20980
C         -7.90180        3.71440        3.53030
C         -7.36360        3.87180        2.25670
F         -8.13780        2.36430        5.42210
N         -0.37560       -1.24360        0.69530
C          0.27980       -2.46010        0.38370
C         -0.53430       -3.53510        0.86890
C         -0.13470       -4.85580        0.74670
C          1.09570       -5.09670        0.13090
C          1.89060       -4.05300       -0.34580
C          1.49590       -2.71760       -0.22840
N         -1.69310       -2.96160        1.41070
H         -2.43810       -3.45420        1.85410
C         -1.62800       -1.54920        1.28000
O         -2.49310       -0.81030        1.68230
H         -0.26070       -0.96190       -1.95290
H          0.06690        0.77990       -2.02320
H         -2.32240        0.27670       -2.59760
H         -2.56460       -0.48380       -0.99670
H         -1.98240        2.81110        0.73590
H         -2.60860        1.17700        1.07530
H          0.24710        2.08420        0.46360
H         -0.35320        1.12200        1.83330
H         -3.73320        2.19240       -2.35750
H         -3.69210        3.15410       -0.86960
H         -4.42830        0.90430        0.36900
H         -4.78570        0.27690       -1.23440
H         -6.87330        1.20820       -0.41210
H         -6.29570        2.30660       -1.67310
H         -5.71210        0.89440        1.95190
H         -6.64060        0.59640        4.23660
H         -8.50800        4.49790        3.98020
H         -7.53430        4.79690        1.69960
H         -0.74850       -5.67240        1.11290
H          1.44150       -6.12380        0.02150
H          2.84280       -4.28310       -0.82180
H          2.12660       -1.91740       -0.60330
