52
rmsd211.gzmat
C          0.00000        0.00000        0.00000
H          1.13020        0.00000        0.00000
C         -0.49140        0.00000       -1.46170
C         -2.00200        0.25780       -1.53880
N         -2.26440        1.60920       -0.99380
C         -1.93900        1.66850        0.45030
C         -0.47290        1.27560        0.71700
C         -3.65200        2.04100       -1.25810
C         -4.75540        1.17020       -0.62040
C         -6.14740        1.69680       -0.96840
C         -6.50880        1.42970       -2.40760
O         -5.82710        0.74300       -3.12870
C         -7.74900        2.06280       -2.93130
C         -8.82200        2.38260       -2.09780
C         -9.97220        2.96230       -2.62510
C        -10.00970        3.21120       -3.99720
C         -8.95580        2.89960       -4.85550
C         -7.82040        2.31270       -4.30480
F        -11.09730        3.76730       -4.50700
N         -0.37290       -1.24080        0.70170
C          0.02600       -2.50650        0.21180
C         -0.79340       -3.49920        0.84350
C         -0.61910       -4.84910        0.58770
C          0.39560       -5.20520       -0.30400
C          1.20390       -4.24320       -0.91150
C          1.03350       -2.87870       -0.66390
N         -1.69570       -2.82140        1.67510
H         -2.36700       -3.24400        2.27920
C         -1.45420       -1.42540        1.59490
O         -2.04740       -0.60830        2.25560
H         -0.24560       -0.94920       -1.96890
H          0.04200        0.80120       -2.01430
H         -2.33940        0.23080       -2.59850
H         -2.55510       -0.54450       -1.00500
H         -2.09340        2.71820        0.78690
H         -2.61830        1.03810        1.06610
H          0.18190        2.10870        0.38790
H         -0.32930        1.17300        1.81260
H         -3.78680        2.06040       -2.36490
H         -3.74670        3.09330       -0.91360
H         -4.62800        1.13830        0.47840
H         -4.65220        0.12270       -0.96860
H         -6.21360        2.78340       -0.75440
H         -6.89920        1.21160       -0.30950
H         -8.77330        2.17550       -1.02810
H        -10.81550        3.21100       -1.98370
H         -9.01730        3.10230       -5.92320
H         -6.97740        2.03730       -4.94730
H         -1.24130       -5.60170        1.06010
H          0.56040       -6.25870       -0.52540
H          1.98920       -4.56170       -1.59540
H          1.67570       -2.14320       -1.13830
