52

C         -0.01960       -0.11400       -0.23010
H          1.07400       -0.23070       -0.31110
C         -0.61310       -0.14220       -1.64990
C         -2.04580        0.37610       -1.68880
N         -2.10740        1.74430       -1.19580
C         -1.69300        1.81000        0.20580
C         -0.28180        1.25750        0.41330
C         -3.40390        2.37930       -1.39840
C         -3.74220        2.65800       -2.86440
C         -2.70100        3.51890       -3.59870
C         -2.68940        4.95340       -3.08210
O         -3.60820        5.69860       -3.37360
C         -1.56760        5.43690       -2.21660
C         -1.51620        6.81000       -1.91290
C         -0.50860        7.32590       -1.10510
C          0.44790        6.45070       -0.58720
C          0.41690        5.08450       -0.85640
C         -0.59170        4.58120       -1.67850
F          1.41860        6.93850        0.19420
N         -0.45600       -1.28000        0.55280
C          0.02330       -2.56230        0.27150
C         -0.56670       -3.45400        1.19610
C         -0.27840       -4.81370        1.18000
C          0.62740       -5.27700        0.21370
C          1.22170       -4.39720       -0.69730
C          0.92830       -3.02450       -0.68120
N         -1.37910       -2.68090        2.00730
H         -1.92510       -2.99040        2.79990
C         -1.31840       -1.33360        1.65820
O         -1.89680       -0.42760        2.22340
H         -0.56850       -1.16050       -2.06290
H          0.00990        0.50120       -2.29280
H         -2.40970        0.34450       -2.72580
H         -2.70870       -0.29820       -1.09820
H         -1.70330        2.86700        0.51680
H         -2.39820        1.26550        0.85990
H          0.43510        1.94750       -0.06140
H         -0.05210        1.23290        1.48680
H         -3.38740        3.33460       -0.84830
H         -4.22340        1.77870       -0.94310
H         -4.71520        3.17360       -2.90310
H         -3.87630        1.71320       -3.41530
H         -2.98720        3.58910       -4.65920
H         -1.71250        3.04620       -3.54260
H         -2.29040        7.45660       -2.32940
H         -0.44760        8.38850       -0.86370
H          1.17680        4.43580       -0.41700
H         -0.65280        3.50650       -1.85730
H         -0.73730       -5.49610        1.89810
H          0.87230       -6.34050        0.17710
H          1.92730       -4.78130       -1.43690
H          1.39930       -2.34890       -1.39550
