
     RDKit          3D

 52 55  0  0  0  0  0  0  0  0999 V2000
   -0.1836   -0.0160   -0.0563 C   0  0  0  0  0  0  0  0  0  0  0  0
    0.9015   -0.1757   -0.0349 H   0  0  0  0  0  0  0  0  0  0  0  0
   -0.5665    0.1465   -1.5388 C   0  0  0  0  0  0  0  0  0  0  0  0
   -1.9082    0.8386   -1.7872 C   0  0  0  0  0  0  0  0  0  0  0  0
   -2.0057    2.0721   -1.0119 N   0  0  0  0  0  0  0  0  0  0  0  0
   -1.8434    1.8741    0.4246 C   0  0  0  0  0  0  0  0  0  0  0  0
   -0.4684    1.2791    0.7229 C   0  0  0  0  0  0  0  0  0  0  0  0
   -3.1333    2.9084   -1.3727 C   0  0  0  0  0  0  0  0  0  0  0  0
   -4.5291    2.3661   -1.0166 C   0  0  0  0  0  0  0  0  0  0  0  0
   -5.6465    3.2894   -1.5267 C   0  0  0  0  0  0  0  0  0  0  0  0
   -7.0183    2.7961   -1.1037 C   0  0  0  0  0  0  0  0  0  0  0  0
   -7.5842    3.2865   -0.1440 O   0  0  0  0  0  0  0  0  0  0  0  0
   -7.6464    1.6587   -1.8549 C   0  0  0  0  0  0  0  0  0  0  0  0
   -7.0691    1.0726   -2.9938 C   0  0  0  0  0  0  0  0  0  0  0  0
   -7.6988    0.0156   -3.6508 C   0  0  0  0  0  0  0  0  0  0  0  0
   -8.9151   -0.4512   -3.1577 C   0  0  0  0  0  0  0  0  0  0  0  0
   -9.5163    0.1090   -2.0300 C   0  0  0  0  0  0  0  0  0  0  0  0
   -8.8753    1.1619   -1.3857 C   0  0  0  0  0  0  0  0  0  0  0  0
   -9.5241   -1.4652   -3.7833 F   0  0  0  0  0  0  0  0  0  0  0  0
   -0.7099   -1.2257    0.5953 N   0  0  0  0  0  0  0  0  0  0  0  0
    0.1081   -2.1510    1.2517 C   0  0  0  0  0  0  0  0  0  0  0  0
   -0.7295   -3.1592    1.7829 C   0  0  0  0  0  0  0  0  0  0  0  0
   -0.2143   -4.2373    2.4935 C   0  0  0  0  0  0  0  0  0  0  0  0
    1.1753   -4.2953    2.6736 C   0  0  0  0  0  0  0  0  0  0  0  0
    2.0093   -3.2987    2.1548 C   0  0  0  0  0  0  0  0  0  0  0  0
    1.4872   -2.2116    1.4376 C   0  0  0  0  0  0  0  0  0  0  0  0
   -2.0226   -2.8045    1.4372 N   0  0  0  0  0  0  0  0  0  0  0  0
   -2.8748   -3.2974    1.6673 H   0  0  0  0  0  0  0  0  0  0  0  0
   -2.0495   -1.6143    0.7183 C   0  0  0  0  0  0  0  0  0  0  0  0
   -3.0467   -1.0551    0.3020 O   0  0  0  0  0  0  0  0  0  0  0  0
   -0.5423   -0.8343   -2.0391 H   0  0  0  0  0  0  0  0  0  0  0  0
    0.2249    0.7657   -1.9926 H   0  0  0  0  0  0  0  0  0  0  0  0
   -1.9691    1.1068   -2.8559 H   0  0  0  0  0  0  0  0  0  0  0  0
   -2.7294    0.1351   -1.5692 H   0  0  0  0  0  0  0  0  0  0  0  0
   -1.9205    2.8593    0.9144 H   0  0  0  0  0  0  0  0  0  0  0  0
   -2.6306    1.2281    0.8561 H   0  0  0  0  0  0  0  0  0  0  0  0
    0.2957    2.0151    0.4227 H   0  0  0  0  0  0  0  0  0  0  0  0
   -0.3483    1.0958    1.8023 H   0  0  0  0  0  0  0  0  0  0  0  0
   -3.0890    3.0874   -2.4625 H   0  0  0  0  0  0  0  0  0  0  0  0
   -3.0036    3.8954   -0.8927 H   0  0  0  0  0  0  0  0  0  0  0  0
   -4.6250    2.2618    0.0759 H   0  0  0  0  0  0  0  0  0  0  0  0
   -4.6524    1.3529   -1.4301 H   0  0  0  0  0  0  0  0  0  0  0  0
   -5.5833    3.3855   -2.6233 H   0  0  0  0  0  0  0  0  0  0  0  0
   -5.5273    4.2944   -1.0952 H   0  0  0  0  0  0  0  0  0  0  0  0
   -6.1168    1.4361   -3.3809 H   0  0  0  0  0  0  0  0  0  0  0  0
   -7.2642   -0.4522   -4.5356 H   0  0  0  0  0  0  0  0  0  0  0  0
  -10.4701   -0.2888   -1.6789 H   0  0  0  0  0  0  0  0  0  0  0  0
   -9.3089    1.6294   -0.5002 H   0  0  0  0  0  0  0  0  0  0  0  0
   -0.8704   -5.0105    2.8981 H   0  0  0  0  0  0  0  0  0  0  0  0
    1.6090   -5.1298    3.2285 H   0  0  0  0  0  0  0  0  0  0  0  0
    3.0883   -3.3627    2.3102 H   0  0  0  0  0  0  0  0  0  0  0  0
    2.1513   -1.4407    1.0447 H   0  0  0  0  0  0  0  0  0  0  0  0
  1  2  1  0
  1  3  1  0
  1  7  1  0
  1 20  1  0
  3  4  1  0
  3 31  1  0
  3 32  1  0
  4  5  1  0
  4 33  1  0
  4 34  1  0
  5  6  1  0
  5  8  1  0
  6  7  1  0
  6 35  1  0
  6 36  1  0
  7 37  1  0
  7 38  1  0
  8  9  1  0
  8 39  1  0
  8 40  1  0
  9 10  1  0
  9 41  1  0
  9 42  1  0
 10 11  1  0
 10 43  1  0
 10 44  1  0
 11 12  2  0
 11 13  1  0
 13 14  2  0
 13 18  1  0
 14 15  1  0
 14 45  1  0
 15 16  2  0
 15 46  1  0
 16 17  1  0
 16 19  1  0
 17 18  2  0
 17 47  1  0
 18 48  1  0
 20 21  1  0
 20 29  1  0
 21 22  1  0
 21 26  2  0
 22 23  2  0
 22 27  1  0
 23 24  1  0
 23 49  1  0
 24 25  2  0
 24 50  1  0
 25 26  1  0
 25 51  1  0
 26 52  1  0
 27 28  1  0
 27 29  1  0
 29 30  2  0
M  END

