52
rmsd159.gzmat
C          0.00000        0.00000        0.00000
H          1.13060        0.00000        0.00000
C         -0.47560        0.00000       -1.46210
C         -1.94270        0.42310       -1.66530
N         -2.24790        1.66680       -0.92010
C         -1.99550        1.48530        0.52680
C         -0.48770        1.27440        0.71970
C         -3.62150        2.13810       -1.18470
C         -4.75370        1.24760       -0.63150
C         -6.10120        1.69840       -1.19860
C         -7.19380        0.80510       -0.66000
O         -7.76140        1.08390        0.36940
C         -7.57480       -0.40700       -1.42720
C         -6.70320       -1.01940       -2.32990
C         -7.09580       -2.16330       -3.01870
C         -8.37620       -2.66380       -2.78160
C         -9.26920       -2.07640       -1.88580
C         -8.84920       -0.93960       -1.20220
F         -8.76120       -3.74730       -3.43730
N         -0.37580       -1.22010        0.73310
C         -0.00030       -1.41170        2.08280
C         -0.80670       -2.47160        2.61420
C         -0.65270       -2.91030        3.91900
C          0.32510       -2.28180        4.69380
C          1.12000       -1.25720        4.17680
C          0.97360       -0.80750        2.86220
N         -1.67520       -2.88130        1.59260
H         -2.33170       -3.63060        1.64610
C         -1.42840       -2.11420        0.42600
O         -1.99560       -2.29190       -0.62470
H         -0.33190       -1.00540       -1.91070
H          0.17680        0.69490       -2.02960
H         -2.10750        0.62640       -2.74700
H         -2.62310       -0.41440       -1.39230
H         -2.31880        2.40390        1.06260
H         -2.55950        0.63390        0.96570
H          0.05690        2.14610        0.30110
H         -0.24920        1.24320        1.79740
H         -3.72940        2.25780       -2.28580
H         -3.70600        3.16240       -0.75640
H         -4.77260        1.29960        0.47520
H         -4.55770        0.18550       -0.87380
H         -6.09190        1.70130       -2.30410
H         -6.30670        2.74780       -0.89470
H         -5.70340       -0.61330       -2.49780
H         -6.41940       -2.65320       -3.71710
H        -10.26090       -2.49320       -1.72010
H         -9.51380       -0.45660       -0.47810
H         -1.26360       -3.70950        4.32670
H          0.47080       -2.60230        5.72470
H          1.87450       -0.79480        4.81180
H          1.60770       -0.01860        2.46990
