
     RDKit          3D

 52 55  0  0  0  0  0  0  0  0999 V2000
   -0.1582    0.0453    0.1208 C   0  0  0  0  0  0  0  0  0  0  0  0
    0.9423    0.0536    0.1867 H   0  0  0  0  0  0  0  0  0  0  0  0
   -0.5162    0.0396   -1.3752 C   0  0  0  0  0  0  0  0  0  0  0  0
   -1.9480    0.4769   -1.6991 C   0  0  0  0  0  0  0  0  0  0  0  0
   -2.2918    1.7156   -1.0101 N   0  0  0  0  0  0  0  0  0  0  0  0
   -2.1485    1.5924    0.4299 C   0  0  0  0  0  0  0  0  0  0  0  0
   -0.6891    1.3288    0.7851 C   0  0  0  0  0  0  0  0  0  0  0  0
   -3.5343    2.3239   -1.4487 C   0  0  0  0  0  0  0  0  0  0  0  0
   -4.8136    1.4974   -1.2230 C   0  0  0  0  0  0  0  0  0  0  0  0
   -6.0936    2.2772   -1.5782 C   0  0  0  0  0  0  0  0  0  0  0  0
   -6.3072    3.4759   -0.6691 C   0  0  0  0  0  0  0  0  0  0  0  0
   -6.0426    4.6018   -1.0503 O   0  0  0  0  0  0  0  0  0  0  0  0
   -6.7941    3.2472    0.7320 C   0  0  0  0  0  0  0  0  0  0  0  0
   -7.2019    1.9919    1.2142 C   0  0  0  0  0  0  0  0  0  0  0  0
   -7.6435    1.8406    2.5285 C   0  0  0  0  0  0  0  0  0  0  0  0
   -7.6730    2.9585    3.3595 C   0  0  0  0  0  0  0  0  0  0  0  0
   -7.2767    4.2194    2.9118 C   0  0  0  0  0  0  0  0  0  0  0  0
   -6.8406    4.3543    1.5980 C   0  0  0  0  0  0  0  0  0  0  0  0
   -8.0933    2.8191    4.6214 F   0  0  0  0  0  0  0  0  0  0  0  0
   -0.5559   -1.1513    0.8813 N   0  0  0  0  0  0  0  0  0  0  0  0
    0.0271   -1.4476    2.1163 C   0  0  0  0  0  0  0  0  0  0  0  0
   -0.5516   -2.6474    2.5891 C   0  0  0  0  0  0  0  0  0  0  0  0
   -0.1679   -3.2121    3.8000 C   0  0  0  0  0  0  0  0  0  0  0  0
    0.8221   -2.5514    4.5430 C   0  0  0  0  0  0  0  0  0  0  0  0
    1.4035   -1.3677    4.0760 C   0  0  0  0  0  0  0  0  0  0  0  0
    1.0141   -0.7978    2.8537 C   0  0  0  0  0  0  0  0  0  0  0  0
   -1.4639   -3.0367    1.6239 N   0  0  0  0  0  0  0  0  0  0  0  0
   -2.0333   -3.8718    1.6211 H   0  0  0  0  0  0  0  0  0  0  0  0
   -1.4799   -2.1513    0.5475 C   0  0  0  0  0  0  0  0  0  0  0  0
   -2.1604   -2.2666   -0.4522 O   0  0  0  0  0  0  0  0  0  0  0  0
   -0.3198   -0.9481   -1.8148 H   0  0  0  0  0  0  0  0  0  0  0  0
    0.1761    0.7578   -1.8436 H   0  0  0  0  0  0  0  0  0  0  0  0
   -2.0241    0.6529   -2.7854 H   0  0  0  0  0  0  0  0  0  0  0  0
   -2.6357   -0.3500   -1.4492 H   0  0  0  0  0  0  0  0  0  0  0  0
   -2.4802    2.5319    0.9005 H   0  0  0  0  0  0  0  0  0  0  0  0
   -2.7804    0.7811    0.8604 H   0  0  0  0  0  0  0  0  0  0  0  0
   -0.0854    2.1754    0.4200 H   0  0  0  0  0  0  0  0  0  0  0  0
   -0.5634    1.2734    1.8767 H   0  0  0  0  0  0  0  0  0  0  0  0
   -3.4474    2.5546   -2.5255 H   0  0  0  0  0  0  0  0  0  0  0  0
   -3.6325    3.2970   -0.9393 H   0  0  0  0  0  0  0  0  0  0  0  0
   -4.8580    1.1667   -0.1726 H   0  0  0  0  0  0  0  0  0  0  0  0
   -4.7804    0.5807   -1.8326 H   0  0  0  0  0  0  0  0  0  0  0  0
   -6.9647    1.6047   -1.5351 H   0  0  0  0  0  0  0  0  0  0  0  0
   -6.0233    2.6695   -2.6037 H   0  0  0  0  0  0  0  0  0  0  0  0
   -7.1823    1.1159    0.5653 H   0  0  0  0  0  0  0  0  0  0  0  0
   -7.9653    0.8740    2.9193 H   0  0  0  0  0  0  0  0  0  0  0  0
   -7.3175    5.0677    3.5974 H   0  0  0  0  0  0  0  0  0  0  0  0
   -6.5239    5.3220    1.2055 H   0  0  0  0  0  0  0  0  0  0  0  0
   -0.6188   -4.1399    4.1577 H   0  0  0  0  0  0  0  0  0  0  0  0
    1.1428   -2.9714    5.4987 H   0  0  0  0  0  0  0  0  0  0  0  0
    2.1745   -0.8737    4.6709 H   0  0  0  0  0  0  0  0  0  0  0  0
    1.4743    0.1254    2.5008 H   0  0  0  0  0  0  0  0  0  0  0  0
  1  2  1  0
  1  3  1  0
  1  7  1  0
  1 20  1  0
  3  4  1  0
  3 31  1  0
  3 32  1  0
  4  5  1  0
  4 33  1  0
  4 34  1  0
  5  6  1  0
  5  8  1  0
  6  7  1  0
  6 35  1  0
  6 36  1  0
  7 37  1  0
  7 38  1  0
  8  9  1  0
  8 39  1  0
  8 40  1  0
  9 10  1  0
  9 41  1  0
  9 42  1  0
 10 11  1  0
 10 43  1  0
 10 44  1  0
 11 12  2  0
 11 13  1  0
 13 14  2  0
 13 18  1  0
 14 15  1  0
 14 45  1  0
 15 16  2  0
 15 46  1  0
 16 17  1  0
 16 19  1  0
 17 18  2  0
 17 47  1  0
 18 48  1  0
 20 21  1  0
 20 29  1  0
 21 22  1  0
 21 26  2  0
 22 23  2  0
 22 27  1  0
 23 24  1  0
 23 49  1  0
 24 25  2  0
 24 50  1  0
 25 26  1  0
 25 51  1  0
 26 52  1  0
 27 28  1  0
 27 29  1  0
 29 30  2  0
M  END

