52

C         -0.15820        0.04530        0.12080
H          0.94230        0.05360        0.18670
C         -0.51620        0.03960       -1.37520
C         -1.94800        0.47690       -1.69910
N         -2.29180        1.71560       -1.01010
C         -2.14850        1.59240        0.42990
C         -0.68910        1.32880        0.78510
C         -3.53430        2.32390       -1.44870
C         -4.81360        1.49740       -1.22300
C         -6.09360        2.27720       -1.57820
C         -6.30720        3.47590       -0.66910
O         -6.04260        4.60180       -1.05030
C         -6.79410        3.24720        0.73200
C         -7.20190        1.99190        1.21420
C         -7.64350        1.84060        2.52850
C         -7.67300        2.95850        3.35950
C         -7.27670        4.21940        2.91180
C         -6.84060        4.35430        1.59800
F         -8.09330        2.81910        4.62140
N         -0.55590       -1.15130        0.88130
C          0.02710       -1.44760        2.11630
C         -0.55160       -2.64740        2.58910
C         -0.16790       -3.21210        3.80000
C          0.82210       -2.55140        4.54300
C          1.40350       -1.36770        4.07600
C          1.01410       -0.79780        2.85370
N         -1.46390       -3.03670        1.62390
H         -2.03330       -3.87180        1.62110
C         -1.47990       -2.15130        0.54750
O         -2.16040       -2.26660       -0.45220
H         -0.31980       -0.94810       -1.81480
H          0.17610        0.75780       -1.84360
H         -2.02410        0.65290       -2.78540
H         -2.63570       -0.35000       -1.44920
H         -2.48020        2.53190        0.90050
H         -2.78040        0.78110        0.86040
H         -0.08540        2.17540        0.42000
H         -0.56340        1.27340        1.87670
H         -3.44740        2.55460       -2.52550
H         -3.63250        3.29700       -0.93930
H         -4.85800        1.16670       -0.17260
H         -4.78040        0.58070       -1.83260
H         -6.96470        1.60470       -1.53510
H         -6.02330        2.66950       -2.60370
H         -7.18230        1.11590        0.56530
H         -7.96530        0.87400        2.91930
H         -7.31750        5.06770        3.59740
H         -6.52390        5.32200        1.20550
H         -0.61880       -4.13990        4.15770
H          1.14280       -2.97140        5.49870
H          2.17450       -0.87370        4.67090
H          1.47430        0.12540        2.50080
