rmsd211.gzmat
 OpenBabel08211713373D

 52 55  0  0  0  0  0  0  0  0999 V2000
    0.0000    0.0000    0.0000 C   0  0  0  0  0  0  0  0  0  0  0  0
    1.1302    0.0000    0.0000 H   0  0  0  0  0  0  0  0  0  0  0  0
   -0.4914    0.0000   -1.4617 C   0  0  0  0  0  0  0  0  0  0  0  0
   -2.0020    0.2578   -1.5388 C   0  0  0  0  0  0  0  0  0  0  0  0
   -2.2644    1.6092   -0.9938 N   0  0  0  0  0  0  0  0  0  0  0  0
   -1.9390    1.6685    0.4503 C   0  0  0  0  0  0  0  0  0  0  0  0
   -0.4729    1.2756    0.7170 C   0  0  0  0  0  0  0  0  0  0  0  0
   -3.6520    2.0410   -1.2581 C   0  0  0  0  0  0  0  0  0  0  0  0
   -4.7554    1.1702   -0.6204 C   0  0  0  0  0  0  0  0  0  0  0  0
   -6.1474    1.6968   -0.9684 C   0  0  0  0  0  0  0  0  0  0  0  0
   -6.5088    1.4297   -2.4076 C   0  0  0  0  0  0  0  0  0  0  0  0
   -5.8271    0.7430   -3.1287 O   0  0  0  0  0  0  0  0  0  0  0  0
   -7.7490    2.0628   -2.9313 C   0  0  0  0  0  0  0  0  0  0  0  0
   -8.8220    2.3826   -2.0978 C   0  0  0  0  0  0  0  0  0  0  0  0
   -9.9722    2.9623   -2.6251 C   0  0  0  0  0  0  0  0  0  0  0  0
  -10.0097    3.2112   -3.9972 C   0  0  0  0  0  0  0  0  0  0  0  0
   -8.9558    2.8996   -4.8555 C   0  0  0  0  0  0  0  0  0  0  0  0
   -7.8204    2.3127   -4.3048 C   0  0  0  0  0  0  0  0  0  0  0  0
  -11.0973    3.7673   -4.5070 F   0  0  0  0  0  0  0  0  0  0  0  0
   -0.3729   -1.2408    0.7017 N   0  0  0  0  0  0  0  0  0  0  0  0
    0.0260   -2.5065    0.2118 C   0  0  0  0  0  0  0  0  0  0  0  0
   -0.7934   -3.4992    0.8435 C   0  0  0  0  0  0  0  0  0  0  0  0
   -0.6191   -4.8491    0.5877 C   0  0  0  0  0  0  0  0  0  0  0  0
    0.3956   -5.2052   -0.3040 C   0  0  0  0  0  0  0  0  0  0  0  0
    1.2039   -4.2432   -0.9115 C   0  0  0  0  0  0  0  0  0  0  0  0
    1.0335   -2.8787   -0.6639 C   0  0  0  0  0  0  0  0  0  0  0  0
   -1.6957   -2.8214    1.6751 N   0  0  0  0  0  0  0  0  0  0  0  0
   -2.3670   -3.2440    2.2792 H   0  0  0  0  0  0  0  0  0  0  0  0
   -1.4542   -1.4254    1.5949 C   0  0  0  0  0  0  0  0  0  0  0  0
   -2.0474   -0.6083    2.2556 O   0  0  0  0  0  0  0  0  0  0  0  0
   -0.2456   -0.9492   -1.9689 H   0  0  0  0  0  0  0  0  0  0  0  0
    0.0420    0.8012   -2.0143 H   0  0  0  0  0  0  0  0  0  0  0  0
   -2.3394    0.2308   -2.5985 H   0  0  0  0  0  0  0  0  0  0  0  0
   -2.5551   -0.5445   -1.0050 H   0  0  0  0  0  0  0  0  0  0  0  0
   -2.0934    2.7182    0.7869 H   0  0  0  0  0  0  0  0  0  0  0  0
   -2.6183    1.0381    1.0661 H   0  0  0  0  0  0  0  0  0  0  0  0
    0.1819    2.1087    0.3879 H   0  0  0  0  0  0  0  0  0  0  0  0
   -0.3293    1.1730    1.8126 H   0  0  0  0  0  0  0  0  0  0  0  0
   -3.7868    2.0604   -2.3649 H   0  0  0  0  0  0  0  0  0  0  0  0
   -3.7467    3.0933   -0.9136 H   0  0  0  0  0  0  0  0  0  0  0  0
   -4.6280    1.1383    0.4784 H   0  0  0  0  0  0  0  0  0  0  0  0
   -4.6522    0.1227   -0.9686 H   0  0  0  0  0  0  0  0  0  0  0  0
   -6.2136    2.7834   -0.7544 H   0  0  0  0  0  0  0  0  0  0  0  0
   -6.8992    1.2116   -0.3095 H   0  0  0  0  0  0  0  0  0  0  0  0
   -8.7733    2.1755   -1.0281 H   0  0  0  0  0  0  0  0  0  0  0  0
  -10.8155    3.2110   -1.9837 H   0  0  0  0  0  0  0  0  0  0  0  0
   -9.0173    3.1023   -5.9232 H   0  0  0  0  0  0  0  0  0  0  0  0
   -6.9774    2.0373   -4.9473 H   0  0  0  0  0  0  0  0  0  0  0  0
   -1.2413   -5.6017    1.0601 H   0  0  0  0  0  0  0  0  0  0  0  0
    0.5604   -6.2587   -0.5254 H   0  0  0  0  0  0  0  0  0  0  0  0
    1.9892   -4.5617   -1.5954 H   0  0  0  0  0  0  0  0  0  0  0  0
    1.6757   -2.1432   -1.1383 H   0  0  0  0  0  0  0  0  0  0  0  0
  1  2  1  0  0  0  0
  1 20  1  0  0  0  0
  1  7  1  0  0  0  0
  3  1  1  0  0  0  0
  4  3  1  0  0  0  0
  4 34  1  0  0  0  0
  4  5  1  0  0  0  0
  5  6  1  0  0  0  0
  6  7  1  0  0  0  0
  6 35  1  0  0  0  0
  6 36  1  0  0  0  0
  7 38  1  0  0  0  0
  8  5  1  0  0  0  0
  8 40  1  0  0  0  0
  8  9  1  0  0  0  0
  9 41  1  0  0  0  0
 10 43  1  0  0  0  0
 10  9  1  0  0  0  0
 10 44  1  0  0  0  0
 11 10  1  0  0  0  0
 12 11  2  0  0  0  0
 13 11  1  0  0  0  0
 13 14  2  0  0  0  0
 14 45  1  0  0  0  0
 15 14  1  0  0  0  0
 15 46  1  0  0  0  0
 16 15  2  0  0  0  0
 17 18  2  0  0  0  0
 17 16  1  0  0  0  0
 18 13  1  0  0  0  0
 19 16  1  0  0  0  0
 20 29  1  0  0  0  0
 21 20  1  0  0  0  0
 21 22  2  0  0  0  0
 22 27  1  0  0  0  0
 23 22  1  0  0  0  0
 23 49  1  0  0  0  0
 24 23  2  0  0  0  0
 25 26  2  0  0  0  0
 25 24  1  0  0  0  0
 26 21  1  0  0  0  0
 27 28  1  0  0  0  0
 29 27  1  0  0  0  0
 29 30  2  0  0  0  0
 31  3  1  0  0  0  0
 32  3  1  0  0  0  0
 33  4  1  0  0  0  0
 37  7  1  0  0  0  0
 39  8  1  0  0  0  0
 42  9  1  0  0  0  0
 47 17  1  0  0  0  0
 48 18  1  0  0  0  0
 50 24  1  0  0  0  0
 51 25  1  0  0  0  0
 52 26  1  0  0  0  0
M  END
$$$$
