rmsd159.gzmat
 OpenBabel08211713373D

 52 55  0  0  0  0  0  0  0  0999 V2000
    0.0000    0.0000    0.0000 C   0  0  0  0  0  0  0  0  0  0  0  0
    1.1306    0.0000    0.0000 H   0  0  0  0  0  0  0  0  0  0  0  0
   -0.4756    0.0000   -1.4621 C   0  0  0  0  0  0  0  0  0  0  0  0
   -1.9427    0.4231   -1.6653 C   0  0  0  0  0  0  0  0  0  0  0  0
   -2.2479    1.6668   -0.9201 N   0  0  0  0  0  0  0  0  0  0  0  0
   -1.9955    1.4853    0.5268 C   0  0  0  0  0  0  0  0  0  0  0  0
   -0.4877    1.2744    0.7197 C   0  0  0  0  0  0  0  0  0  0  0  0
   -3.6215    2.1381   -1.1847 C   0  0  0  0  0  0  0  0  0  0  0  0
   -4.7537    1.2476   -0.6315 C   0  0  0  0  0  0  0  0  0  0  0  0
   -6.1012    1.6984   -1.1986 C   0  0  0  0  0  0  0  0  0  0  0  0
   -7.1938    0.8051   -0.6600 C   0  0  0  0  0  0  0  0  0  0  0  0
   -7.7614    1.0839    0.3694 O   0  0  0  0  0  0  0  0  0  0  0  0
   -7.5748   -0.4070   -1.4272 C   0  0  0  0  0  0  0  0  0  0  0  0
   -6.7032   -1.0194   -2.3299 C   0  0  0  0  0  0  0  0  0  0  0  0
   -7.0958   -2.1633   -3.0187 C   0  0  0  0  0  0  0  0  0  0  0  0
   -8.3762   -2.6638   -2.7816 C   0  0  0  0  0  0  0  0  0  0  0  0
   -9.2692   -2.0764   -1.8858 C   0  0  0  0  0  0  0  0  0  0  0  0
   -8.8492   -0.9396   -1.2022 C   0  0  0  0  0  0  0  0  0  0  0  0
   -8.7612   -3.7473   -3.4373 F   0  0  0  0  0  0  0  0  0  0  0  0
   -0.3758   -1.2201    0.7331 N   0  0  0  0  0  0  0  0  0  0  0  0
   -0.0003   -1.4117    2.0828 C   0  0  0  0  0  0  0  0  0  0  0  0
   -0.8067   -2.4716    2.6142 C   0  0  0  0  0  0  0  0  0  0  0  0
   -0.6527   -2.9103    3.9190 C   0  0  0  0  0  0  0  0  0  0  0  0
    0.3251   -2.2818    4.6938 C   0  0  0  0  0  0  0  0  0  0  0  0
    1.1200   -1.2572    4.1768 C   0  0  0  0  0  0  0  0  0  0  0  0
    0.9736   -0.8075    2.8622 C   0  0  0  0  0  0  0  0  0  0  0  0
   -1.6752   -2.8813    1.5926 N   0  0  0  0  0  0  0  0  0  0  0  0
   -2.3317   -3.6306    1.6461 H   0  0  0  0  0  0  0  0  0  0  0  0
   -1.4284   -2.1142    0.4260 C   0  0  0  0  0  0  0  0  0  0  0  0
   -1.9956   -2.2919   -0.6247 O   0  0  0  0  0  0  0  0  0  0  0  0
   -0.3319   -1.0054   -1.9107 H   0  0  0  0  0  0  0  0  0  0  0  0
    0.1768    0.6949   -2.0296 H   0  0  0  0  0  0  0  0  0  0  0  0
   -2.1075    0.6264   -2.7470 H   0  0  0  0  0  0  0  0  0  0  0  0
   -2.6231   -0.4144   -1.3923 H   0  0  0  0  0  0  0  0  0  0  0  0
   -2.3188    2.4039    1.0626 H   0  0  0  0  0  0  0  0  0  0  0  0
   -2.5595    0.6339    0.9657 H   0  0  0  0  0  0  0  0  0  0  0  0
    0.0569    2.1461    0.3011 H   0  0  0  0  0  0  0  0  0  0  0  0
   -0.2492    1.2432    1.7974 H   0  0  0  0  0  0  0  0  0  0  0  0
   -3.7294    2.2578   -2.2858 H   0  0  0  0  0  0  0  0  0  0  0  0
   -3.7060    3.1624   -0.7564 H   0  0  0  0  0  0  0  0  0  0  0  0
   -4.7726    1.2996    0.4752 H   0  0  0  0  0  0  0  0  0  0  0  0
   -4.5577    0.1855   -0.8738 H   0  0  0  0  0  0  0  0  0  0  0  0
   -6.0919    1.7013   -2.3041 H   0  0  0  0  0  0  0  0  0  0  0  0
   -6.3067    2.7478   -0.8947 H   0  0  0  0  0  0  0  0  0  0  0  0
   -5.7034   -0.6133   -2.4978 H   0  0  0  0  0  0  0  0  0  0  0  0
   -6.4194   -2.6532   -3.7171 H   0  0  0  0  0  0  0  0  0  0  0  0
  -10.2609   -2.4932   -1.7201 H   0  0  0  0  0  0  0  0  0  0  0  0
   -9.5138   -0.4566   -0.4781 H   0  0  0  0  0  0  0  0  0  0  0  0
   -1.2636   -3.7095    4.3267 H   0  0  0  0  0  0  0  0  0  0  0  0
    0.4708   -2.6023    5.7247 H   0  0  0  0  0  0  0  0  0  0  0  0
    1.8745   -0.7948    4.8118 H   0  0  0  0  0  0  0  0  0  0  0  0
    1.6077   -0.0186    2.4699 H   0  0  0  0  0  0  0  0  0  0  0  0
  1  2  1  0  0  0  0
  1  7  1  0  0  0  0
  1 20  1  0  0  0  0
  3  1  1  0  0  0  0
  4  3  1  0  0  0  0
  4 34  1  0  0  0  0
  4  5  1  0  0  0  0
  5  6  1  0  0  0  0
  6  7  1  0  0  0  0
  6 36  1  0  0  0  0
  6 35  1  0  0  0  0
  7 38  1  0  0  0  0
  8  5  1  0  0  0  0
  8 40  1  0  0  0  0
  8  9  1  0  0  0  0
  9 41  1  0  0  0  0
 10 44  1  0  0  0  0
 10 11  1  0  0  0  0
 10  9  1  0  0  0  0
 11 12  2  0  0  0  0
 13 18  1  0  0  0  0
 13 11  1  0  0  0  0
 14 13  2  0  0  0  0
 15 16  2  0  0  0  0
 15 14  1  0  0  0  0
 16 17  1  0  0  0  0
 17 47  1  0  0  0  0
 17 18  2  0  0  0  0
 18 48  1  0  0  0  0
 19 16  1  0  0  0  0
 20 21  1  0  0  0  0
 21 22  2  0  0  0  0
 21 26  1  0  0  0  0
 22 23  1  0  0  0  0
 23 49  1  0  0  0  0
 23 24  2  0  0  0  0
 24 50  1  0  0  0  0
 25 24  1  0  0  0  0
 25 51  1  0  0  0  0
 26 25  2  0  0  0  0
 27 28  1  0  0  0  0
 27 22  1  0  0  0  0
 29 20  1  0  0  0  0
 29 27  1  0  0  0  0
 30 29  2  0  0  0  0
 31  3  1  0  0  0  0
 32  3  1  0  0  0  0
 33  4  1  0  0  0  0
 37  7  1  0  0  0  0
 39  8  1  0  0  0  0
 42  9  1  0  0  0  0
 43 10  1  0  0  0  0
 45 14  1  0  0  0  0
 46 15  1  0  0  0  0
 52 26  1  0  0  0  0
M  END
$$$$
