rmsd248.gzmat
 OpenBabel08211713373D

 52 55  0  0  0  0  0  0  0  0999 V2000
    0.0000    0.0000    0.0000 C   0  0  0  0  0  0  0  0  0  0  0  0
    1.1317    0.0000    0.0000 H   0  0  0  0  0  0  0  0  0  0  0  0
   -0.4587    0.0000   -1.4673 C   0  0  0  0  0  0  0  0  0  0  0  0
   -1.8959    0.4988   -1.7029 C   0  0  0  0  0  0  0  0  0  0  0  0
   -2.1336    1.7640   -0.9718 N   0  0  0  0  0  0  0  0  0  0  0  0
   -1.9653    1.5558    0.4841 C   0  0  0  0  0  0  0  0  0  0  0  0
   -0.4806    1.2612    0.7454 C   0  0  0  0  0  0  0  0  0  0  0  0
   -3.4416    2.3552   -1.3064 C   0  0  0  0  0  0  0  0  0  0  0  0
   -4.6773    1.4999   -0.9493 C   0  0  0  0  0  0  0  0  0  0  0  0
   -5.9696    2.2145   -1.3515 C   0  0  0  0  0  0  0  0  0  0  0  0
   -6.1896    3.4238   -0.4749 C   0  0  0  0  0  0  0  0  0  0  0  0
   -5.7922    4.5114   -0.8225 O   0  0  0  0  0  0  0  0  0  0  0  0
   -6.9126    3.2716    0.8133 C   0  0  0  0  0  0  0  0  0  0  0  0
   -7.1160    2.0280    1.4145 C   0  0  0  0  0  0  0  0  0  0  0  0
   -7.7942    1.9351    2.6266 C   0  0  0  0  0  0  0  0  0  0  0  0
   -8.2609    3.1139    3.2083 C   0  0  0  0  0  0  0  0  0  0  0  0
   -8.0728    4.3711    2.6346 C   0  0  0  0  0  0  0  0  0  0  0  0
   -7.3846    4.4379    1.4273 C   0  0  0  0  0  0  0  0  0  0  0  0
   -8.9108    3.0356    4.3588 F   0  0  0  0  0  0  0  0  0  0  0  0
   -0.3705   -1.2286    0.7211 N   0  0  0  0  0  0  0  0  0  0  0  0
    0.2025   -1.5372    1.9762 C   0  0  0  0  0  0  0  0  0  0  0  0
   -0.5765   -2.5864    2.5657 C   0  0  0  0  0  0  0  0  0  0  0  0
   -0.2384   -3.1340    3.7922 C   0  0  0  0  0  0  0  0  0  0  0  0
    0.8958   -2.6243    4.4288 C   0  0  0  0  0  0  0  0  0  0  0  0
    1.6583   -1.6045    3.8569 C   0  0  0  0  0  0  0  0  0  0  0  0
    1.3242   -1.0427    2.6221 C   0  0  0  0  0  0  0  0  0  0  0  0
   -1.6301   -2.8621    1.6828 N   0  0  0  0  0  0  0  0  0  0  0  0
   -2.3209   -3.5713    1.7990 H   0  0  0  0  0  0  0  0  0  0  0  0
   -1.5265   -2.0213    0.5438 C   0  0  0  0  0  0  0  0  0  0  0  0
   -2.2841   -2.0768   -0.3942 O   0  0  0  0  0  0  0  0  0  0  0  0
   -0.3610   -1.0186   -1.8946 H   0  0  0  0  0  0  0  0  0  0  0  0
    0.2365    0.6516   -2.0366 H   0  0  0  0  0  0  0  0  0  0  0  0
   -2.0341    0.6955   -2.7893 H   0  0  0  0  0  0  0  0  0  0  0  0
   -2.6270   -0.2952   -1.4313 H   0  0  0  0  0  0  0  0  0  0  0  0
   -2.2627    2.4858    1.0161 H   0  0  0  0  0  0  0  0  0  0  0  0
   -2.5956    0.7330    0.8839 H   0  0  0  0  0  0  0  0  0  0  0  0
    0.1218    2.1262    0.3974 H   0  0  0  0  0  0  0  0  0  0  0  0
   -0.3005    1.1671    1.8313 H   0  0  0  0  0  0  0  0  0  0  0  0
   -3.4379    2.5802   -2.3969 H   0  0  0  0  0  0  0  0  0  0  0  0
   -3.5043    3.3469   -0.8002 H   0  0  0  0  0  0  0  0  0  0  0  0
   -4.6751    1.2648    0.1310 H   0  0  0  0  0  0  0  0  0  0  0  0
   -4.6194    0.5214   -1.4662 H   0  0  0  0  0  0  0  0  0  0  0  0
   -6.8315    1.5223   -1.3061 H   0  0  0  0  0  0  0  0  0  0  0  0
   -5.9076    2.5393   -2.4134 H   0  0  0  0  0  0  0  0  0  0  0  0
   -6.7418    1.1167    0.9432 H   0  0  0  0  0  0  0  0  0  0  0  0
   -7.9538    0.9701    3.1038 H   0  0  0  0  0  0  0  0  0  0  0  0
   -8.4483    5.2733    3.1138 H   0  0  0  0  0  0  0  0  0  0  0  0
   -7.2044    5.4078    0.9497 H   0  0  0  0  0  0  0  0  0  0  0  0
   -0.8260   -3.9277    4.2418 H   0  0  0  0  0  0  0  0  0  0  0  0
    1.1916   -3.0351    5.3932 H   0  0  0  0  0  0  0  0  0  0  0  0
    2.5373   -1.2371    4.3843 H   0  0  0  0  0  0  0  0  0  0  0  0
    1.9291   -0.2519    2.1894 H   0  0  0  0  0  0  0  0  0  0  0  0
  1 20  1  0  0  0  0
  1  7  1  0  0  0  0
  2  1  1  0  0  0  0
  3  1  1  0  0  0  0
  4  3  1  0  0  0  0
  4 34  1  0  0  0  0
  4  5  1  0  0  0  0
  5  6  1  0  0  0  0
  6  7  1  0  0  0  0
  6 36  1  0  0  0  0
  6 35  1  0  0  0  0
  7 38  1  0  0  0  0
  8  5  1  0  0  0  0
  8  9  1  0  0  0  0
  8 40  1  0  0  0  0
  9 41  1  0  0  0  0
 10 43  1  0  0  0  0
 10  9  1  0  0  0  0
 10 11  1  0  0  0  0
 11 13  1  0  0  0  0
 12 11  2  0  0  0  0
 13 14  2  0  0  0  0
 13 18  1  0  0  0  0
 14 15  1  0  0  0  0
 15 46  1  0  0  0  0
 15 16  2  0  0  0  0
 16 19  1  0  0  0  0
 17 47  1  0  0  0  0
 17 16  1  0  0  0  0
 18 17  2  0  0  0  0
 20 21  1  0  0  0  0
 21 22  2  0  0  0  0
 21 26  1  0  0  0  0
 22 23  1  0  0  0  0
 23 49  1  0  0  0  0
 23 24  2  0  0  0  0
 24 50  1  0  0  0  0
 25 51  1  0  0  0  0
 25 24  1  0  0  0  0
 26 25  2  0  0  0  0
 27 28  1  0  0  0  0
 27 22  1  0  0  0  0
 29 20  1  0  0  0  0
 29 27  1  0  0  0  0
 30 29  2  0  0  0  0
 31  3  1  0  0  0  0
 32  3  1  0  0  0  0
 33  4  1  0  0  0  0
 37  7  1  0  0  0  0
 39  8  1  0  0  0  0
 42  9  1  0  0  0  0
 44 10  1  0  0  0  0
 45 14  1  0  0  0  0
 48 18  1  0  0  0  0
 52 26  1  0  0  0  0
M  END
$$$$
