rmsd206.gzmat
 OpenBabel08211713373D

 52 54  0  0  0  0  0  0  0  0999 V2000
    0.0000    0.0000    0.0000 C   0  0  0  0  0  0  0  0  0  0  0  0
    1.1314    0.0000    0.0000 H   0  0  0  0  0  0  0  0  0  0  0  0
   -0.4648    0.0000   -1.4653 C   0  0  0  0  0  0  0  0  0  0  0  0
   -1.9187    0.4546   -1.6874 C   0  0  0  0  0  0  0  0  0  0  0  0
   -2.2002    1.7076   -0.9495 N   0  0  0  0  0  0  0  0  0  0  0  0
   -1.9838    1.5156    0.5028 C   0  0  0  0  0  0  0  0  0  0  0  0
   -0.4844    1.2717    0.7268 C   0  0  0  0  0  0  0  0  0  0  0  0
   -3.5501    2.2239   -1.2476 C   0  0  0  0  0  0  0  0  0  0  0  0
   -4.7284    1.3315   -0.8046 C   0  0  0  0  0  0  0  0  0  0  0  0
   -6.0551    1.9671   -1.2225 C   0  0  0  0  0  0  0  0  0  0  0  0
   -7.2106    1.3253   -0.4924 C   0  0  0  0  0  0  0  0  0  0  0  0
   -8.0779    0.7472   -1.1023 O   0  0  0  0  0  0  0  0  0  0  0  0
   -7.2665    1.4155    0.9896 C   0  0  0  0  0  0  0  0  0  0  0  0
   -6.5934    2.4154    1.6946 C   0  0  0  0  0  0  0  0  0  0  0  0
   -6.6745    2.4733    3.0824 C   0  0  0  0  0  0  0  0  0  0  0  0
   -7.4472    1.5112    3.7334 C   0  0  0  0  0  0  0  0  0  0  0  0
   -8.1364    0.5048    3.0581 C   0  0  0  0  0  0  0  0  0  0  0  0
   -8.0396    0.4690    1.6704 C   0  0  0  0  0  0  0  0  0  0  0  0
   -7.5313    1.5600    5.0536 F   0  0  0  0  0  0  0  0  0  0  0  0
   -0.3729   -1.2202    0.7331 N   0  0  0  0  0  0  0  0  0  0  0  0
    0.1196   -1.4650    2.0356 C   0  0  0  0  0  0  0  0  0  0  0  0
   -0.6727   -2.5110    2.6136 C   0  0  0  0  0  0  0  0  0  0  0  0
   -0.4097   -2.9953    3.8843 C   0  0  0  0  0  0  0  0  0  0  0  0
    0.6614   -2.4254    4.5771 C   0  0  0  0  0  0  0  0  0  0  0  0
    1.4404   -1.4132    4.0143 C   0  0  0  0  0  0  0  0  0  0  0  0
    1.1839   -0.9173    2.7331 C   0  0  0  0  0  0  0  0  0  0  0  0
   -1.6519   -2.8549    1.6711 N   0  0  0  0  0  0  0  0  0  0  0  0
   -2.3301   -3.5802    1.7677 H   0  0  0  0  0  0  0  0  0  0  0  0
   -1.4893   -2.0587    0.5073 C   0  0  0  0  0  0  0  0  0  0  0  0
   -2.1669   -2.1772   -0.4838 O   0  0  0  0  0  0  0  0  0  0  0  0
   -0.3379   -1.0105   -1.9052 H   0  0  0  0  0  0  0  0  0  0  0  0
    0.2076    0.6790   -2.0302 H   0  0  0  0  0  0  0  0  0  0  0  0
   -2.0693    0.6552   -2.7717 H   0  0  0  0  0  0  0  0  0  0  0  0
   -2.6227   -0.3646   -1.4177 H   0  0  0  0  0  0  0  0  0  0  0  0
   -2.2984    2.4377    1.0368 H   0  0  0  0  0  0  0  0  0  0  0  0
   -2.5747    0.6741    0.9246 H   0  0  0  0  0  0  0  0  0  0  0  0
    0.0852    2.1398    0.3353 H   0  0  0  0  0  0  0  0  0  0  0  0
   -0.2686    1.2162    1.8085 H   0  0  0  0  0  0  0  0  0  0  0  0
   -3.6031    2.4030   -2.3451 H   0  0  0  0  0  0  0  0  0  0  0  0
   -3.6325    3.2251   -0.7683 H   0  0  0  0  0  0  0  0  0  0  0  0
   -4.6899    1.1713    0.2895 H   0  0  0  0  0  0  0  0  0  0  0  0
   -4.6349    0.3206   -1.2500 H   0  0  0  0  0  0  0  0  0  0  0  0
   -6.2023    1.8532   -2.3189 H   0  0  0  0  0  0  0  0  0  0  0  0
   -6.0551    3.0595   -1.0405 H   0  0  0  0  0  0  0  0  0  0  0  0
   -5.9998    3.1610    1.1630 H   0  0  0  0  0  0  0  0  0  0  0  0
   -6.1516    3.2477    3.6396 H   0  0  0  0  0  0  0  0  0  0  0  0
   -8.7350   -0.2294    3.5946 H   0  0  0  0  0  0  0  0  0  0  0  0
   -8.5733   -0.2995    1.1010 H   0  0  0  0  0  0  0  0  0  0  0  0
   -1.0074   -3.7859    4.3264 H   0  0  0  0  0  0  0  0  0  0  0  0
    0.8946   -2.7819    5.5796 H   0  0  0  0  0  0  0  0  0  0  0  0
    2.2702   -0.9984    4.5846 H   0  0  0  0  0  0  0  0  0  0  0  0
    1.8035   -0.1364    2.3045 H   0  0  0  0  0  0  0  0  0  0  0  0
  1  7  1  0  0  0  0
  1 20  1  0  0  0  0
  2  1  1  0  0  0  0
  3  1  1  0  0  0  0
  4  3  1  0  0  0  0
  4 34  1  0  0  0  0
  4  5  1  0  0  0  0
  5  6  1  0  0  0  0
  6  7  1  0  0  0  0
  6 36  1  0  0  0  0
  6 35  1  0  0  0  0
  7 38  1  0  0  0  0
  8  5  1  0  0  0  0
  8  9  1  0  0  0  0
  8 40  1  0  0  0  0
  9 41  1  0  0  0  0
 10 44  1  0  0  0  0
 10  9  1  0  0  0  0
 10 11  1  0  0  0  0
 11 13  1  0  0  0  0
 12 11  2  0  0  0  0
 13 18  2  0  0  0  0
 13 14  1  0  0  0  0
 14 15  2  0  0  0  0
 15 46  1  0  0  0  0
 15 16  1  0  0  0  0
 16 19  1  0  0  0  0
 17 47  1  0  0  0  0
 17 16  2  0  0  0  0
 18 17  1  0  0  0  0
 20 21  1  0  0  0  0
 21 22  2  0  0  0  0
 21 26  1  0  0  0  0
 22 23  1  0  0  0  0
 23 49  1  0  0  0  0
 23 24  2  0  0  0  0
 24 50  1  0  0  0  0
 25 24  1  0  0  0  0
 25 51  1  0  0  0  0
 26 25  2  0  0  0  0
 27 28  1  0  0  0  0
 27 22  1  0  0  0  0
 29 20  1  0  0  0  0
 29 27  1  0  0  0  0
 30 29  2  0  0  0  0
 31  3  1  0  0  0  0
 32  3  1  0  0  0  0
 33  4  1  0  0  0  0
 37  7  1  0  0  0  0
 42  9  1  0  0  0  0
 43 10  1  0  0  0  0
 45 14  1  0  0  0  0
 48 18  1  0  0  0  0
 52 26  1  0  0  0  0
M  RAD  2   8   2  39   2
M  END
$$$$
