31
rmsd46.gzmat
S          0.00000        0.00000        0.00000
C          1.74860        0.00000        0.00000
C          2.54690        0.00000        1.18530
N          3.87950       -0.17190        1.22500
C          4.26310       -0.07250        2.56400
C          5.52530       -0.16330        3.15950
C          5.59780       -0.00220        4.53210
C          4.44840        0.23960        5.31400
C          3.18520        0.32600        4.75280
C          3.09960        0.16970        3.36820
N          2.02000        0.20820        2.48100
H          1.07260        0.36550        2.73600
C          2.23570       -0.00320       -1.29740
N          1.26590        0.00980       -2.29890
C          0.03270        0.01700       -1.80870
N         -1.12470        0.03500       -2.53760
C         -1.23160        0.06000       -3.96590
O         -2.36840        0.07050       -4.37320
C         -0.01070        0.07190       -4.80460
C          3.65320       -0.01820       -1.69800
H          6.40370       -0.35280        2.54730
H          6.56380       -0.06030        5.03160
H          4.56730        0.36220        6.38990
H          2.30340        0.50940        5.35610
H         -2.02120        0.02750       -2.03680
H          0.62670        0.95260       -4.60070
H         -0.26490        0.07510       -5.87660
H          0.63910       -0.80220       -4.61030
H          3.79610       -0.02090       -2.78740
H          4.17320       -0.90310       -1.27680
H          4.19690        0.84930       -1.27610
