rmsd47.gzmat
 OpenBabel08211713413D

 31 33  0  0  1  0  0  0  0  0999 V2000
    0.0000    0.0000    0.0000 S   0  0  0  0  0  0  0  0  0  0  0  0
    1.7499    0.0000    0.0000 C   0  0  1  0  0  0  0  0  0  0  0  0
    2.5432    0.0000    1.1882 C   0  0  0  0  0  0  0  0  0  0  0  0
    3.8858    0.0502    1.2306 N   0  0  0  0  0  0  0  0  0  0  0  0
    4.2525   -0.0026    2.5774 C   0  0  0  0  0  0  0  0  0  0  0  0
    5.5142    0.0061    3.1811 C   0  0  0  0  0  0  0  0  0  0  0  0
    5.5642   -0.0690    4.5623 C   0  0  0  0  0  0  0  0  0  0  0  0
    4.3934   -0.1468    5.3457 C   0  0  0  0  0  0  0  0  0  0  0  0
    3.1311   -0.1555    4.7759 C   0  0  0  0  0  0  0  0  0  0  0  0
    3.0679   -0.0852    3.3831 C   0  0  2  0  0  0  0  0  0  0  0  0
    1.9935   -0.0806    2.4891 N   0  0  0  0  0  0  0  0  0  0  0  0
    1.0345   -0.1330    2.7433 H   0  0  0  0  0  0  0  0  0  0  0  0
    2.2369   -0.0204   -1.2969 C   0  0  0  0  0  0  0  0  0  0  0  0
    1.2656   -0.0554   -2.2961 N   0  0  0  0  0  0  0  0  0  0  0  0
    0.0323   -0.0583   -1.8061 C   0  0  0  0  0  0  0  0  0  0  0  0
   -1.1210   -0.1135   -2.5400 N   0  0  0  0  0  0  0  0  0  0  0  0
   -1.2102   -0.2833   -3.9594 C   0  0  0  0  0  0  0  0  0  0  0  0
   -2.3392   -0.2798   -4.3870 O   0  0  0  0  0  0  0  0  0  0  0  0
    0.0215   -0.4592   -4.7630 C   0  0  0  0  0  0  0  0  0  0  0  0
    3.6521   -0.0124   -1.7062 C   0  0  0  0  0  0  0  0  0  0  0  0
    6.4108    0.0689    2.5691 H   0  0  0  0  0  0  0  0  0  0  0  0
    6.5284   -0.0696    5.0686 H   0  0  0  0  0  0  0  0  0  0  0  0
    4.4942   -0.2011    6.4292 H   0  0  0  0  0  0  0  0  0  0  0  0
    2.2331   -0.2151    5.3800 H   0  0  0  0  0  0  0  0  0  0  0  0
   -2.0208   -0.0208   -2.0559 H   0  0  0  0  0  0  0  0  0  0  0  0
    0.6897    0.4204   -4.6946 H   0  0  0  0  0  0  0  0  0  0  0  0
   -0.2171   -0.6243   -5.8251 H   0  0  0  0  0  0  0  0  0  0  0  0
    0.6345   -1.3101   -4.4122 H   0  0  0  0  0  0  0  0  0  0  0  0
    3.7860   -0.0432   -2.7965 H   0  0  0  0  0  0  0  0  0  0  0  0
    4.2008   -0.8670   -1.2634 H   0  0  0  0  0  0  0  0  0  0  0  0
    4.1733    0.8843   -1.3158 H   0  0  0  0  0  0  0  0  0  0  0  0
  1  2  1  0  0  0  0
  2  3  1  1  0  0  0
  3  4  2  0  0  0  0
  3 11  1  0  0  0  0
  4  5  2  0  0  0  0
  5  6  1  0  0  0  0
  6  7  2  0  0  0  0
  7 22  1  0  0  0  0
  7  8  1  0  0  0  0
  8 23  1  0  0  0  0
  9  8  2  0  0  0  0
  9 24  1  0  0  0  0
 10  5  1  6  0  0  0
 10  9  1  0  0  0  0
 11 12  1  0  0  0  0
 11 10  1  0  0  0  0
 13  2  1  0  0  0  0
 14 15  2  0  0  0  0
 14 13  2  0  0  0  0
 15  1  1  0  0  0  0
 16 25  1  0  0  0  0
 16 15  1  0  0  0  0
 17 16  1  0  0  0  0
 18 17  2  0  0  0  0
 19 26  1  0  0  0  0
 19 28  1  0  0  0  0
 19 17  1  0  0  0  0
 20 31  1  0  0  0  0
 20 13  1  0  0  0  0
 20 30  1  0  0  0  0
 21  6  1  0  0  0  0
 27 19  1  0  0  0  0
 29 20  1  0  0  0  0
M  RAD  2   2   2  10   2
M  END
$$$$
