31
rmsd4.gzmat
S          0.00000        0.00000        0.00000
C          1.74920        0.00000        0.00000
C          2.54500        0.00000        1.18690
N          3.86240       -0.26000        1.24120
C          4.24390       -0.14970        2.58000
C          5.49210       -0.31620        3.18870
C          5.56400       -0.13990        4.55940
C          4.42750        0.19100        5.32730
C          3.17920        0.36170        4.75190
C          3.09470        0.19230        3.36870
N          2.02640        0.28340        2.47150
H          1.09670        0.54280        2.70750
C          2.23710       -0.02440       -1.29650
N          1.26720       -0.02700       -2.29800
C          0.03360       -0.00880       -1.80880
N         -1.12190       -0.00370       -2.54130
C         -1.22330       -0.08090       -3.96820
O         -2.35550       -0.03050       -4.38530
C         -0.00060       -0.22200       -4.79280
C          3.65410       -0.04360       -1.70040
H          6.36140       -0.57520        2.58850
H          6.51920       -0.25940        5.06830
H          4.54400        0.31230        6.40410
H          2.30700        0.61290        5.34520
H         -2.01780        0.07510       -2.04650
H          0.67880        0.64420       -4.67820
H         -0.24990       -0.31920       -5.86100
H          0.60370       -1.10070       -4.49920
H          3.79220       -0.04560       -2.79100
H          4.17170       -0.93190       -1.28310
H          4.20230        0.82130       -1.28160
