31
rmsd35.gzmat
S          0.00000        0.00000        0.00000
C          1.74650        0.00000        0.00000
C          2.53670        0.00000        1.19160
N          3.66490       -0.69690        1.39110
C          4.12990       -0.35810        2.66360
C          5.26580       -0.78320        3.36070
C          5.47660       -0.25540        4.62190
C          4.58440        0.67540        5.19680
C          3.44980        1.11000        4.53290
C          3.22750        0.58850        3.25640
N          2.22010        0.80160        2.31250
H          1.46160        1.43740        2.40130
C          2.24060       -0.04870       -1.29020
N          1.27610       -0.05250       -2.29610
C          0.04080       -0.02760       -1.80830
N         -1.11180       -0.01620       -2.54580
C         -1.20630        0.04390       -3.97310
O         -2.33850        0.02760       -4.39310
C          0.02140        0.12900       -4.79760
C          3.66440       -0.08810       -1.67440
H          5.94520       -1.50190        2.90750
H          6.35190       -0.55950        5.19420
H          4.80350        1.05920        6.19270
H          2.76520        1.82350        4.97740
H         -2.01150       -0.06220       -2.05390
H          0.66210        0.98350       -4.51140
H         -0.22470        0.22760       -5.86650
H          0.66560       -0.76210       -4.67550
H          3.81230       -0.29480       -2.74430
H          4.20580       -0.86950       -1.10030
H          4.17010        0.86370       -1.44010
