31

S          0.18790       -0.31420       -0.06510
C          1.92620       -0.01600       -0.07370
C          2.69010       -0.05630        1.15900
N          3.98980        0.13520        1.27530
C          4.27660        0.00560        2.61840
C          5.49940        0.11140        3.29910
C          5.49880       -0.06900        4.68030
C          4.30940       -0.35040        5.38580
C          3.08200       -0.46040        4.73100
C          3.08820       -0.27860        3.34580
N          2.09470       -0.31150        2.38620
H          1.11230       -0.48690        2.55210
C          2.34480        0.23520       -1.36920
N          1.34950        0.19800       -2.31830
C          0.18620       -0.07040       -1.81120
N         -1.00360       -0.17760       -2.49440
C         -1.29520       -0.03740       -3.86290
O         -2.44650       -0.18410       -4.21200
C         -0.16410        0.28440       -4.80170
C          3.74220        0.53440       -1.80650
H          6.41560        0.32920        2.74760
H          6.43750        0.00830        5.23360
H          4.35010       -0.48520        6.46900
H          2.16370       -0.67830        5.28050
H         -1.83530       -0.39380       -1.95230
H          0.32720        1.22480       -4.51420
H         -0.58050        0.35400       -5.81360
H          0.61750       -0.48690       -4.75130
H          4.06690       -0.21430       -2.54760
H          4.42800        0.53240       -0.95270
H          3.77170        1.51560       -2.30810
