rmsd38.gzmat
 OpenBabel08211713413D

 31 33  0  0  1  0  0  0  0  0999 V2000
    0.0000    0.0000    0.0000 S   0  0  0  0  0  0  0  0  0  0  0  0
    1.7490    0.0000    0.0000 C   0  0  1  0  0  0  0  0  0  0  0  0
    2.5322    0.0000    1.1959 C   0  0  0  0  0  0  0  0  0  0  0  0
    3.7458   -0.5557    1.3386 N   0  0  0  0  0  0  0  0  0  0  0  0
    4.1379   -0.3381    2.6615 C   0  0  0  0  0  0  0  0  0  0  0  0
    5.3006   -0.7161    3.3414 C   0  0  0  0  0  0  0  0  0  0  0  0
    5.4011   -0.3709    4.6776 C   0  0  0  0  0  0  0  0  0  0  0  0
    4.3808    0.3441    5.3405 C   0  0  0  0  0  0  0  0  0  0  0  0
    3.2223    0.7367    4.6916 C   0  0  0  0  0  0  0  0  0  0  0  0
    3.1050    0.3880    3.3444 C   0  0  2  0  0  0  0  0  0  0  0  0
    2.0951    0.5967    2.4016 N   0  0  0  0  0  0  0  0  0  0  0  0
    1.2597    1.1132    2.5528 H   0  0  0  0  0  0  0  0  0  0  0  0
    2.2384   -0.0734   -1.2918 C   0  0  0  0  0  0  0  0  0  0  0  0
    1.2697   -0.1181   -2.2935 N   0  0  0  0  0  0  0  0  0  0  0  0
    0.0355   -0.0887   -1.8052 C   0  0  0  0  0  0  0  0  0  0  0  0
   -1.1182   -0.1379   -2.5394 N   0  0  0  0  0  0  0  0  0  0  0  0
   -1.2144   -0.3429   -3.9534 C   0  0  0  0  0  0  0  0  0  0  0  0
   -2.3460   -0.3407   -4.3752 O   0  0  0  0  0  0  0  0  0  0  0  0
    0.0123   -0.5469   -4.7583 C   0  0  0  0  0  0  0  0  0  0  0  0
    3.6565   -0.1066   -1.6946 C   0  0  0  0  0  0  0  0  0  0  0  0
    6.0824   -1.2633    2.8193 H   0  0  0  0  0  0  0  0  0  0  0  0
    6.2873   -0.6562    5.2427 H   0  0  0  0  0  0  0  0  0  0  0  0
    4.5157    0.5884    6.3938 H   0  0  0  0  0  0  0  0  0  0  0  0
    2.4402    1.2866    5.2026 H   0  0  0  0  0  0  0  0  0  0  0  0
   -2.0164   -0.0199   -2.0570 H   0  0  0  0  0  0  0  0  0  0  0  0
    0.6917    0.3255   -4.7080 H   0  0  0  0  0  0  0  0  0  0  0  0
   -0.2311   -0.7289   -5.8163 H   0  0  0  0  0  0  0  0  0  0  0  0
    0.6154   -1.3996   -4.3949 H   0  0  0  0  0  0  0  0  0  0  0  0
    3.7894   -0.2121   -2.7817 H   0  0  0  0  0  0  0  0  0  0  0  0
    4.1843   -0.9479   -1.1988 H   0  0  0  0  0  0  0  0  0  0  0  0
    4.1888    0.8052   -1.3727 H   0  0  0  0  0  0  0  0  0  0  0  0
  1  2  1  0  0  0  0
  2  3  1  1  0  0  0
  3  4  2  0  0  0  0
  3 11  1  0  0  0  0
  4  5  2  0  0  0  0
  5  6  1  0  0  0  0
  6  7  2  0  0  0  0
  7 22  1  0  0  0  0
  7  8  1  0  0  0  0
  8 23  1  0  0  0  0
  9 24  1  0  0  0  0
  9  8  2  0  0  0  0
 10  5  1  1  0  0  0
 10  9  1  0  0  0  0
 11 12  1  0  0  0  0
 11 10  1  0  0  0  0
 13  2  1  0  0  0  0
 14 15  2  0  0  0  0
 14 13  2  0  0  0  0
 15  1  1  0  0  0  0
 16 25  1  0  0  0  0
 16 15  1  0  0  0  0
 17 16  1  0  0  0  0
 18 17  2  0  0  0  0
 19 26  1  0  0  0  0
 19 28  1  0  0  0  0
 19 17  1  0  0  0  0
 20 31  1  0  0  0  0
 20 13  1  0  0  0  0
 20 30  1  0  0  0  0
 21  6  1  0  0  0  0
 27 19  1  0  0  0  0
 29 20  1  0  0  0  0
M  RAD  2   2   2  10   2
M  END
$$$$
