31
rmsd30.gzmat
S          0.00000        0.00000        0.00000
C          1.74670        0.00000        0.00000
C          2.52720        0.00000        1.19820
N          3.63310        0.72320        1.42430
C          4.08300        0.38450        2.70310
C          5.18970        0.83640        3.42990
C          5.38680        0.30500        4.69200
C          4.51080       -0.65690        5.23960
C          3.40600       -1.12050        4.54600
C          3.19590       -0.59220        3.27000
N          2.21280       -0.82260        2.30550
H          1.46600       -1.47440        2.37760
C          2.24030        0.05020       -1.28970
N          1.27530        0.05770       -2.29610
C          0.04040        0.02740       -1.80800
N         -1.11470        0.01840       -2.54170
C         -1.21930        0.07110       -3.96820
O         -2.35360        0.02840       -4.38110
C          0.00150        0.17500       -4.80000
C          3.66370        0.08670       -1.67620
H          5.85820        1.57860        2.99920
H          6.23840        0.63020        5.28770
H          4.71850       -1.04170        6.23790
H          2.73550       -1.86010        4.96890
H         -2.01150       -0.03820       -2.04520
H          0.62520        1.04620       -4.52570
H         -0.25210        0.25880       -5.86810
H          0.66530       -0.70010       -4.67350
H          3.80900        0.15680       -2.76470
H          4.20390       -0.80650       -1.31870
H          4.17320        0.95410       -1.20800
