
     RDKit          3D

 31 33  0  0  0  0  0  0  0  0999 V2000
    0.1879   -0.3142   -0.0651 S   0  0  0  0  0  0  0  0  0  0  0  0
    1.9262   -0.0160   -0.0737 C   0  0  0  0  0  0  0  0  0  0  0  0
    2.6901   -0.0563    1.1590 C   0  0  0  0  0  0  0  0  0  0  0  0
    3.9898    0.1352    1.2753 N   0  0  0  0  0  0  0  0  0  0  0  0
    4.2766    0.0056    2.6184 C   0  0  0  0  0  0  0  0  0  0  0  0
    5.4994    0.1114    3.2991 C   0  0  0  0  0  0  0  0  0  0  0  0
    5.4988   -0.0690    4.6803 C   0  0  0  0  0  0  0  0  0  0  0  0
    4.3094   -0.3504    5.3858 C   0  0  0  0  0  0  0  0  0  0  0  0
    3.0820   -0.4604    4.7310 C   0  0  0  0  0  0  0  0  0  0  0  0
    3.0882   -0.2786    3.3458 C   0  0  0  0  0  0  0  0  0  0  0  0
    2.0947   -0.3115    2.3862 N   0  0  0  0  0  0  0  0  0  0  0  0
    1.1123   -0.4869    2.5521 H   0  0  0  0  0  0  0  0  0  0  0  0
    2.3448    0.2352   -1.3692 C   0  0  0  0  0  0  0  0  0  0  0  0
    1.3495    0.1980   -2.3183 N   0  0  0  0  0  0  0  0  0  0  0  0
    0.1862   -0.0704   -1.8112 C   0  0  0  0  0  0  0  0  0  0  0  0
   -1.0036   -0.1776   -2.4944 N   0  0  0  0  0  0  0  0  0  0  0  0
   -1.2952   -0.0374   -3.8629 C   0  0  0  0  0  0  0  0  0  0  0  0
   -2.4465   -0.1841   -4.2120 O   0  0  0  0  0  0  0  0  0  0  0  0
   -0.1641    0.2844   -4.8017 C   0  0  0  0  0  0  0  0  0  0  0  0
    3.7422    0.5344   -1.8065 C   0  0  0  0  0  0  0  0  0  0  0  0
    6.4156    0.3292    2.7476 H   0  0  0  0  0  0  0  0  0  0  0  0
    6.4375    0.0083    5.2336 H   0  0  0  0  0  0  0  0  0  0  0  0
    4.3501   -0.4852    6.4690 H   0  0  0  0  0  0  0  0  0  0  0  0
    2.1637   -0.6783    5.2805 H   0  0  0  0  0  0  0  0  0  0  0  0
   -1.8353   -0.3938   -1.9523 H   0  0  0  0  0  0  0  0  0  0  0  0
    0.3272    1.2248   -4.5142 H   0  0  0  0  0  0  0  0  0  0  0  0
   -0.5805    0.3540   -5.8136 H   0  0  0  0  0  0  0  0  0  0  0  0
    0.6175   -0.4869   -4.7513 H   0  0  0  0  0  0  0  0  0  0  0  0
    4.0669   -0.2143   -2.5476 H   0  0  0  0  0  0  0  0  0  0  0  0
    4.4280    0.5324   -0.9527 H   0  0  0  0  0  0  0  0  0  0  0  0
    3.7717    1.5156   -2.3081 H   0  0  0  0  0  0  0  0  0  0  0  0
  1  2  1  0
  1 15  1  0
  2  3  1  0
  2 13  2  0
  3  4  2  0
  3 11  1  0
  4  5  1  0
  5  6  2  0
  5 10  1  0
  6  7  1  0
  6 21  1  0
  7  8  2  0
  7 22  1  0
  8  9  1  0
  8 23  1  0
  9 10  2  0
  9 24  1  0
 10 11  1  0
 11 12  1  0
 13 14  1  0
 13 20  1  0
 14 15  2  0
 15 16  1  0
 16 17  1  0
 16 25  1  0
 17 18  2  0
 17 19  1  0
 19 26  1  0
 19 27  1  0
 19 28  1  0
 20 29  1  0
 20 30  1  0
 20 31  1  0
M  END

