rmsd35.gzmat
 OpenBabel08211713413D

 31 33  0  0  1  0  0  0  0  0999 V2000
    0.0000    0.0000    0.0000 S   0  0  0  0  0  0  0  0  0  0  0  0
    1.7465    0.0000    0.0000 C   0  0  1  0  0  0  0  0  0  0  0  0
    2.5367    0.0000    1.1916 C   0  0  0  0  0  0  0  0  0  0  0  0
    3.6649   -0.6969    1.3911 N   0  0  0  0  0  0  0  0  0  0  0  0
    4.1299   -0.3581    2.6636 C   0  0  0  0  0  0  0  0  0  0  0  0
    5.2658   -0.7832    3.3607 C   0  0  0  0  0  0  0  0  0  0  0  0
    5.4766   -0.2554    4.6219 C   0  0  0  0  0  0  0  0  0  0  0  0
    4.5844    0.6754    5.1968 C   0  0  0  0  0  0  0  0  0  0  0  0
    3.4498    1.1100    4.5329 C   0  0  0  0  0  0  0  0  0  0  0  0
    3.2275    0.5885    3.2564 C   0  0  1  0  0  0  0  0  0  0  0  0
    2.2201    0.8016    2.3125 N   0  0  0  0  0  0  0  0  0  0  0  0
    1.4616    1.4374    2.4013 H   0  0  0  0  0  0  0  0  0  0  0  0
    2.2406   -0.0487   -1.2902 C   0  0  0  0  0  0  0  0  0  0  0  0
    1.2761   -0.0525   -2.2961 N   0  0  0  0  0  0  0  0  0  0  0  0
    0.0408   -0.0276   -1.8083 C   0  0  0  0  0  0  0  0  0  0  0  0
   -1.1118   -0.0162   -2.5458 N   0  0  0  0  0  0  0  0  0  0  0  0
   -1.2063    0.0439   -3.9731 C   0  0  0  0  0  0  0  0  0  0  0  0
   -2.3385    0.0276   -4.3931 O   0  0  0  0  0  0  0  0  0  0  0  0
    0.0214    0.1290   -4.7976 C   0  0  0  0  0  0  0  0  0  0  0  0
    3.6644   -0.0881   -1.6744 C   0  0  0  0  0  0  0  0  0  0  0  0
    5.9452   -1.5019    2.9075 H   0  0  0  0  0  0  0  0  0  0  0  0
    6.3519   -0.5595    5.1942 H   0  0  0  0  0  0  0  0  0  0  0  0
    4.8035    1.0592    6.1927 H   0  0  0  0  0  0  0  0  0  0  0  0
    2.7652    1.8235    4.9774 H   0  0  0  0  0  0  0  0  0  0  0  0
   -2.0115   -0.0622   -2.0539 H   0  0  0  0  0  0  0  0  0  0  0  0
    0.6621    0.9835   -4.5114 H   0  0  0  0  0  0  0  0  0  0  0  0
   -0.2247    0.2276   -5.8665 H   0  0  0  0  0  0  0  0  0  0  0  0
    0.6656   -0.7621   -4.6755 H   0  0  0  0  0  0  0  0  0  0  0  0
    3.8123   -0.2948   -2.7443 H   0  0  0  0  0  0  0  0  0  0  0  0
    4.2058   -0.8695   -1.1003 H   0  0  0  0  0  0  0  0  0  0  0  0
    4.1701    0.8637   -1.4401 H   0  0  0  0  0  0  0  0  0  0  0  0
  1  2  1  0  0  0  0
  2  3  1  1  0  0  0
  3  4  2  0  0  0  0
  3 11  1  0  0  0  0
  4  5  2  0  0  0  0
  5  6  1  0  0  0  0
  6  7  2  0  0  0  0
  7 22  1  0  0  0  0
  7  8  1  0  0  0  0
  8 23  1  0  0  0  0
  9 24  1  0  0  0  0
  9  8  2  0  0  0  0
 10  5  1  6  0  0  0
 10  9  1  0  0  0  0
 11 12  1  0  0  0  0
 11 10  1  0  0  0  0
 13  2  1  0  0  0  0
 14 15  2  0  0  0  0
 14 13  2  0  0  0  0
 15  1  1  0  0  0  0
 16 25  1  0  0  0  0
 16 15  1  0  0  0  0
 17 16  1  0  0  0  0
 18 17  2  0  0  0  0
 19 28  1  0  0  0  0
 19 26  1  0  0  0  0
 19 17  1  0  0  0  0
 20 31  1  0  0  0  0
 20 13  1  0  0  0  0
 20 30  1  0  0  0  0
 21  6  1  0  0  0  0
 27 19  1  0  0  0  0
 29 20  1  0  0  0  0
M  RAD  2   2   2  10   2
M  END
$$$$
