31
rmsd38.gzmat
S          0.00000        0.00000        0.00000
C          1.74900        0.00000        0.00000
C          2.53220        0.00000        1.19590
N          3.74580       -0.55570        1.33860
C          4.13790       -0.33810        2.66150
C          5.30060       -0.71610        3.34140
C          5.40110       -0.37090        4.67760
C          4.38080        0.34410        5.34050
C          3.22230        0.73670        4.69160
C          3.10500        0.38800        3.34440
N          2.09510        0.59670        2.40160
H          1.25970        1.11320        2.55280
C          2.23840       -0.07340       -1.29180
N          1.26970       -0.11810       -2.29350
C          0.03550       -0.08870       -1.80520
N         -1.11820       -0.13790       -2.53940
C         -1.21440       -0.34290       -3.95340
O         -2.34600       -0.34070       -4.37520
C          0.01230       -0.54690       -4.75830
C          3.65650       -0.10660       -1.69460
H          6.08240       -1.26330        2.81930
H          6.28730       -0.65620        5.24270
H          4.51570        0.58840        6.39380
H          2.44020        1.28660        5.20260
H         -2.01640       -0.01990       -2.05700
H          0.69170        0.32550       -4.70800
H         -0.23110       -0.72890       -5.81630
H          0.61540       -1.39960       -4.39490
H          3.78940       -0.21210       -2.78170
H          4.18430       -0.94790       -1.19880
H          4.18880        0.80520       -1.37270
