31

S          0.10470       -0.17010       -0.04710
C          1.85850        0.01830       -0.07580
C          2.62380       -0.03410        1.15570
N          3.93230        0.09140        1.27120
C          4.21030       -0.02480        2.61700
C          5.43580        0.03100        3.29860
C          5.42460       -0.12010        4.68350
C          4.22140       -0.32390        5.39200
C          2.99060       -0.38300        4.73660
C          3.00740       -0.23090        3.34790
N          2.01530       -0.23160        2.38750
H          1.02470       -0.35570        2.55250
C          2.29560        0.20540       -1.37710
N          1.29410        0.20120       -2.31880
C          0.12310        0.01930       -1.78240
N         -1.02650       -0.01940       -2.55080
C         -2.30140       -0.20410       -2.05800
O         -2.50100       -0.35650       -0.86720
C         -3.40820       -0.18490       -3.08830
C          3.70760        0.40340       -1.82780
H          6.36290        0.18890        2.74470
H          6.36550       -0.08060        5.23700
H          4.25360       -0.43810        6.47800
H          2.06130       -0.54090        5.28810
H         -0.86470        0.10580       -3.54470
H         -4.02320        0.71440       -2.92840
H         -4.05680       -1.05670       -2.92220
H         -3.04450       -0.18980       -4.12550
H          3.98440       -0.38710       -2.54460
H          4.39490        0.38660       -0.97520
H          3.79760        1.36430       -2.36050
