rmsd48.gzmat
 OpenBabel08211713413D

 31 33  0  0  1  0  0  0  0  0999 V2000
    0.0000    0.0000    0.0000 S   0  0  0  0  0  0  0  0  0  0  0  0
    1.7478    0.0000    0.0000 C   0  0  2  0  0  0  0  0  0  0  0  0
    2.5314    0.0000    1.1961 C   0  0  0  0  0  0  0  0  0  0  0  0
    3.7064    0.6225    1.3733 N   0  0  0  0  0  0  0  0  0  0  0  0
    4.1327    0.3228    2.6697 C   0  0  0  0  0  0  0  0  0  0  0  0
    5.2859    0.7058    3.3635 C   0  0  0  0  0  0  0  0  0  0  0  0
    5.4405    0.2379    4.6565 C   0  0  0  0  0  0  0  0  0  0  0  0
    4.4773   -0.5941    5.2668 C   0  0  0  0  0  0  0  0  0  0  0  0
    3.3252   -0.9863    4.6068 C   0  0  0  0  0  0  0  0  0  0  0  0
    3.1579   -0.5222    3.3003 C   0  0  2  0  0  0  0  0  0  0  0  0
    2.1472   -0.7146    2.3556 N   0  0  0  0  0  0  0  0  0  0  0  0
    1.3430   -1.2867    2.4744 H   0  0  0  0  0  0  0  0  0  0  0  0
    2.2393    0.0354   -1.2921 C   0  0  0  0  0  0  0  0  0  0  0  0
    1.2726    0.0249   -2.2970 N   0  0  0  0  0  0  0  0  0  0  0  0
    0.0381   -0.0025   -1.8086 C   0  0  0  0  0  0  0  0  0  0  0  0
   -1.1163   -0.0398   -2.5427 N   0  0  0  0  0  0  0  0  0  0  0  0
   -1.2143   -0.1380   -3.9679 C   0  0  0  0  0  0  0  0  0  0  0  0
   -2.3471   -0.1451   -4.3864 O   0  0  0  0  0  0  0  0  0  0  0  0
    0.0140   -0.2329   -4.7904 C   0  0  0  0  0  0  0  0  0  0  0  0
    3.6602    0.0792   -1.6851 C   0  0  0  0  0  0  0  0  0  0  0  0
    6.0213    1.3490    2.8855 H   0  0  0  0  0  0  0  0  0  0  0  0
    6.3254    0.5122    5.2293 H   0  0  0  0  0  0  0  0  0  0  0  0
    4.6545   -0.9333    6.2872 H   0  0  0  0  0  0  0  0  0  0  0  0
    2.5859   -1.6246    5.0773 H   0  0  0  0  0  0  0  0  0  0  0  0
   -2.0145    0.0038   -2.0480 H   0  0  0  0  0  0  0  0  0  0  0  0
    0.6522    0.6654   -4.6872 H   0  0  0  0  0  0  0  0  0  0  0  0
   -0.2309   -0.3568   -5.8567 H   0  0  0  0  0  0  0  0  0  0  0  0
    0.6591   -1.0778   -4.4851 H   0  0  0  0  0  0  0  0  0  0  0  0
    3.7999    0.1705   -2.7726 H   0  0  0  0  0  0  0  0  0  0  0  0
    4.2033   -0.8196   -1.3457 H   0  0  0  0  0  0  0  0  0  0  0  0
    4.1729    0.9366   -1.2008 H   0  0  0  0  0  0  0  0  0  0  0  0
  2  1  1  0  0  0  0
  2  3  1  1  0  0  0
  3  4  2  0  0  0  0
  3 11  1  0  0  0  0
  4  5  2  0  0  0  0
  5  6  1  0  0  0  0
  6  7  2  0  0  0  0
  7 22  1  0  0  0  0
  7  8  1  0  0  0  0
  8 23  1  0  0  0  0
  9 24  1  0  0  0  0
  9  8  2  0  0  0  0
 10  5  1  6  0  0  0
 10  9  1  0  0  0  0
 11 12  1  0  0  0  0
 11 10  1  0  0  0  0
 13  2  1  0  0  0  0
 14 15  2  0  0  0  0
 14 13  2  0  0  0  0
 15  1  1  0  0  0  0
 16 25  1  0  0  0  0
 16 15  1  0  0  0  0
 17 16  1  0  0  0  0
 18 17  2  0  0  0  0
 19 26  1  0  0  0  0
 19 28  1  0  0  0  0
 19 17  1  0  0  0  0
 20 30  1  0  0  0  0
 20 13  1  0  0  0  0
 20 31  1  0  0  0  0
 21  6  1  0  0  0  0
 27 19  1  0  0  0  0
 29 20  1  0  0  0  0
M  RAD  2   2   2  10   2
M  END
$$$$
