rmsd129.gzmat
 OpenBabel08211713403D

 47 49  0  0  1  0  0  0  0  0999 V2000
    0.0000    0.0000    0.0000 S   0  0  0  0  0  0  0  0  0  0  0  0
    1.4332    0.0000    0.0000 O   0  0  0  0  0  0  0  0  0  0  0  0
   -0.7903    0.0000   -1.2013 O   0  0  0  0  0  0  0  0  0  0  0  0
   -0.4969    1.4876    0.8168 N   0  0  0  0  0  0  0  0  0  0  0  0
   -1.5649    2.3346    0.4701 C   0  0  0  0  0  0  0  0  0  0  0  0
   -1.6721    3.3350    1.3468 N   0  0  0  0  0  0  0  0  0  0  0  0
   -0.6571    3.1646    2.2939 C   0  0  0  0  0  0  0  0  0  0  0  0
   -0.4863    4.1144    3.4269 C   0  0  2  0  0  0  0  0  0  0  0  0
   -1.1376    5.0189    3.2513 H   0  0  0  0  0  0  0  0  0  0  0  0
    0.9593    4.5522    3.4732 C   0  0  0  0  0  0  0  0  0  0  0  0
    1.4047    5.5887    2.6367 C   0  0  0  0  0  0  0  0  0  0  0  0
    2.7500    5.9822    2.6847 C   0  0  0  0  0  0  0  0  0  0  0  0
    3.6394    5.3303    3.5418 C   0  0  0  0  0  0  0  0  0  0  0  0
    3.1972    4.2931    4.3552 C   0  0  0  0  0  0  0  0  0  0  0  0
    1.8605    3.9077    4.3210 C   0  0  0  0  0  0  0  0  0  0  0  0
    3.2639    7.0987    1.8357 C   0  0  0  0  0  0  0  0  0  0  0  0
    0.4506    6.2597    1.7058 C   0  0  0  0  0  0  0  0  0  0  0  0
   -0.9783    3.4577    4.7254 C   0  0  0  0  0  0  0  0  0  0  0  0
    0.0831    2.0320    1.9744 C   0  0  0  0  0  0  0  0  0  0  0  0
   -0.5930   -1.2082    1.1075 C   0  0  0  0  0  0  0  0  0  0  0  0
   -1.8678   -1.7479    0.9339 C   0  0  0  0  0  0  0  0  0  0  0  0
   -2.3587   -2.6795    1.8433 C   0  0  0  0  0  0  0  0  0  0  0  0
   -1.5764   -3.0802    2.9312 C   0  0  0  0  0  0  0  0  0  0  0  0
   -0.2927   -2.5484    3.0919 C   0  0  0  0  0  0  0  0  0  0  0  0
    0.1987   -1.6195    2.1808 C   0  0  0  0  0  0  0  0  0  0  0  0
   -2.1116   -4.0556    3.9193 C   0  0  0  0  0  0  0  0  0  0  0  0
   -2.1877    2.1720   -0.3978 H   0  0  0  0  0  0  0  0  0  0  0  0
    4.6830    5.6340    3.5746 H   0  0  0  0  0  0  0  0  0  0  0  0
    3.8931    3.7844    5.0176 H   0  0  0  0  0  0  0  0  0  0  0  0
    1.5268    3.0944    4.9611 H   0  0  0  0  0  0  0  0  0  0  0  0
    2.7339    8.0379    2.0517 H   0  0  0  0  0  0  0  0  0  0  0  0
    3.1362    6.8812    0.7643 H   0  0  0  0  0  0  0  0  0  0  0  0
    4.3329    7.2916    1.9940 H   0  0  0  0  0  0  0  0  0  0  0  0
   -0.1897    5.5289    1.1811 H   0  0  0  0  0  0  0  0  0  0  0  0
    0.9441    6.8428    0.9191 H   0  0  0  0  0  0  0  0  0  0  0  0
   -0.2179    6.9435    2.2495 H   0  0  0  0  0  0  0  0  0  0  0  0
   -0.7579    4.0902    5.5929 H   0  0  0  0  0  0  0  0  0  0  0  0
   -0.5198    2.4770    4.8890 H   0  0  0  0  0  0  0  0  0  0  0  0
   -2.0643    3.3037    4.6873 H   0  0  0  0  0  0  0  0  0  0  0  0
    0.9534    1.6198    2.4419 H   0  0  0  0  0  0  0  0  0  0  0  0
   -2.4958   -1.4522    0.0842 H   0  0  0  0  0  0  0  0  0  0  0  0
   -3.3551   -3.0950    1.7082 H   0  0  0  0  0  0  0  0  0  0  0  0
    0.3234   -2.8617    3.9320 H   0  0  0  0  0  0  0  0  0  0  0  0
    1.2131   -1.2251    2.3176 H   0  0  0  0  0  0  0  0  0  0  0  0
   -1.3256   -4.6883    4.3564 H   0  0  0  0  0  0  0  0  0  0  0  0
   -2.8598   -4.7339    3.4837 H   0  0  0  0  0  0  0  0  0  0  0  0
   -2.6035   -3.5329    4.7564 H   0  0  0  0  0  0  0  0  0  0  0  0
  1  4  1  0  0  0  0
  1 20  1  0  0  0  0
  2  1  2  0  0  0  0
  3  1  2  0  0  0  0
  4 19  1  0  0  0  0
  5  4  1  0  0  0  0
  5  6  2  0  0  0  0
  6  7  2  0  0  0  0
  7  8  1  0  0  0  0
  8  9  1  6  0  0  0
  8 10  1  0  0  0  0
  8 18  1  0  0  0  0
 10 15  2  0  0  0  0
 11 12  2  0  0  0  0
 11 10  1  0  0  0  0
 12 13  1  0  0  0  0
 13 28  1  0  0  0  0
 13 14  2  0  0  0  0
 14 29  1  0  0  0  0
 15 14  1  0  0  0  0
 15 30  1  0  0  0  0
 16 33  1  0  0  0  0
 16 31  1  0  0  0  0
 16 12  1  0  0  0  0
 17 36  1  0  0  0  0
 17 11  1  0  0  0  0
 18 38  1  0  0  0  0
 18 37  1  0  0  0  0
 19  7  1  0  0  0  0
 19 40  1  0  0  0  0
 20 25  1  0  0  0  0
 21 20  2  0  0  0  0
 21 22  1  0  0  0  0
 22 23  2  0  0  0  0
 23 24  1  0  0  0  0
 23 26  1  0  0  0  0
 24 43  1  0  0  0  0
 25 44  1  0  0  0  0
 25 24  2  0  0  0  0
 26 45  1  0  0  0  0
 26 47  1  0  0  0  0
 27  5  1  0  0  0  0
 32 16  1  0  0  0  0
 34 17  1  0  0  0  0
 35 17  1  0  0  0  0
 39 18  1  0  0  0  0
 41 21  1  0  0  0  0
 42 22  1  0  0  0  0
 46 26  1  0  0  0  0
M  RAD  1  19   2
M  END
$$$$
