47
rmsd5.gzmat
S          0.00000        0.00000        0.00000
O          1.43640        0.00000        0.00000
O         -0.78040        0.00000       -1.20490
N         -0.46930        1.49720        0.81770
C          0.04860        2.04370        2.00730
N         -0.49500        3.23680        2.25090
C         -1.37280        3.51370        1.19750
C         -2.13290        4.79180        1.14480
H         -1.99920        5.33860        2.12240
C         -3.59800        4.48010        0.94850
C         -4.42230        4.23360        2.05790
C         -5.78270        3.95700        1.85680
C         -6.30010        3.89320        0.56140
C         -5.47370        4.11270       -0.53520
C         -4.12870        4.40970       -0.33980
C         -6.70870        3.72890        3.00670
C         -3.85400        4.26950        3.43780
C         -1.54530        5.69710        0.05130
C         -1.36730        2.44850        0.30470
C         -0.56110       -1.22420        1.10650
C         -1.92590       -1.45970        1.27220
C         -2.36100       -2.43610        2.16420
C         -1.43370       -3.19440        2.88480
C         -0.06480       -2.96580        2.70350
C          0.36860       -1.98340        1.82030
C         -1.88660       -4.24350        3.83830
H          0.78360        1.54640        2.61740
H         -7.35310        3.67070        0.40750
H         -5.87710        4.05570       -1.54330
H         -3.49200        4.58470       -1.20480
H         -6.66730        4.56070        3.72500
H         -6.45290        2.80620        3.54760
H         -7.75600        3.63470        2.69140
H         -2.86040        3.79130        3.48510
H         -4.47340        3.74580        4.17520
H         -3.73300        5.30560        3.78690
H         -2.15080        6.60150       -0.07670
H         -1.47970        5.18790       -0.91620
H         -0.52700        6.00670        0.32070
H         -1.91240        2.29650       -0.60780
H         -2.67270       -0.88870        0.70780
H         -3.42700       -2.60810        2.29890
H          0.66170       -3.55890        3.25510
H          1.44710       -1.81940        1.69430
H         -1.58900       -5.24830        3.49840
H         -2.97730       -4.26260        3.97260
H         -1.44600       -4.10260        4.83750
