47

S          0.11280        0.07170       -0.26880
O          1.52510       -0.23130       -0.07350
O         -0.55720       -0.03380       -1.55740
N         -0.06790        1.71070        0.24340
C          0.77440        2.37130        1.12190
N          0.17550        3.40040        1.66030
C         -1.11970        3.40990        1.16190
C         -2.13480        4.42650        1.61530
H         -1.90330        4.61740        2.67670
C         -3.53940        3.83270        1.53490
C         -3.88490        2.71620        2.33600
C         -5.16580        2.13440        2.20660
C         -6.08530        2.67290        1.29650
C         -5.75090        3.77730        0.51750
C         -4.48400        4.34870        0.63820
C         -5.54800        0.93070        3.03190
C         -2.91140        2.09800        3.31210
C         -1.93520        5.75880        0.87980
C         -1.29250        2.37330        0.28000
C         -0.87010       -0.76410        0.96120
C         -2.19260       -1.09370        0.66200
C         -2.98350       -1.66350        1.65890
C         -2.47330       -1.89910        2.94580
C         -1.13080       -1.57330        3.20610
C         -0.32200       -1.00800        2.22250
C         -3.35450       -2.45140        4.03400
H          1.79470        2.03160        1.29180
H         -7.07400        2.21570        1.20190
H         -6.47380        4.19300       -0.18850
H         -4.22930        5.20750        0.01750
H         -5.54170        1.15590        4.11190
H         -4.84230        0.09820        2.88060
H         -6.55480        0.57440        2.77110
H         -2.53040        1.13570        2.93040
H         -3.39730        1.88770        4.27750
H         -2.03790        2.72820        3.51050
H         -2.63150        6.52890        1.24610
H         -2.07650        5.64610       -0.20580
H         -0.90720        6.11190        1.04580
H         -2.14920        2.03790       -0.29520
H         -2.58600       -0.90520       -0.33770
H         -4.01910       -1.92800        1.43310
H         -0.71370       -1.76520        4.19760
H          0.72090       -0.75790        2.42360
H         -2.78260       -3.06230        4.74780
H         -4.16900       -3.06530        3.62290
H         -3.81940       -1.62850        4.60430
