47
rmsd129.gzmat
S          0.00000        0.00000        0.00000
O          1.43320        0.00000        0.00000
O         -0.79030        0.00000       -1.20130
N         -0.49690        1.48760        0.81680
C         -1.56490        2.33460        0.47010
N         -1.67210        3.33500        1.34680
C         -0.65710        3.16460        2.29390
C         -0.48630        4.11440        3.42690
H         -1.13760        5.01890        3.25130
C          0.95930        4.55220        3.47320
C          1.40470        5.58870        2.63670
C          2.75000        5.98220        2.68470
C          3.63940        5.33030        3.54180
C          3.19720        4.29310        4.35520
C          1.86050        3.90770        4.32100
C          3.26390        7.09870        1.83570
C          0.45060        6.25970        1.70580
C         -0.97830        3.45770        4.72540
C          0.08310        2.03200        1.97440
C         -0.59300       -1.20820        1.10750
C         -1.86780       -1.74790        0.93390
C         -2.35870       -2.67950        1.84330
C         -1.57640       -3.08020        2.93120
C         -0.29270       -2.54840        3.09190
C          0.19870       -1.61950        2.18080
C         -2.11160       -4.05560        3.91930
H         -2.18770        2.17200       -0.39780
H          4.68300        5.63400        3.57460
H          3.89310        3.78440        5.01760
H          1.52680        3.09440        4.96110
H          2.73390        8.03790        2.05170
H          3.13620        6.88120        0.76430
H          4.33290        7.29160        1.99400
H         -0.18970        5.52890        1.18110
H          0.94410        6.84280        0.91910
H         -0.21790        6.94350        2.24950
H         -0.75790        4.09020        5.59290
H         -0.51980        2.47700        4.88900
H         -2.06430        3.30370        4.68730
H          0.95340        1.61980        2.44190
H         -2.49580       -1.45220        0.08420
H         -3.35510       -3.09500        1.70820
H          0.32340       -2.86170        3.93200
H          1.21310       -1.22510        2.31760
H         -1.32560       -4.68830        4.35640
H         -2.85980       -4.73390        3.48370
H         -2.60350       -3.53290        4.75640
