rmsd46.gzmat
 OpenBabel08211713403D

 47 49  0  0  1  0  0  0  0  0999 V2000
    0.0000    0.0000    0.0000 S   0  0  0  0  0  0  0  0  0  0  0  0
    1.4340    0.0000    0.0000 O   0  0  0  0  0  0  0  0  0  0  0  0
   -0.7942    0.0000   -1.1990 O   0  0  0  0  0  0  0  0  0  0  0  0
   -0.4817    1.4967    0.8086 N   0  0  0  0  0  0  0  0  0  0  0  0
   -1.5751    2.3224    0.4878 C   0  0  0  0  0  0  0  0  0  0  0  0
   -1.6020    3.3935    1.2821 N   0  0  0  0  0  0  0  0  0  0  0  0
   -0.5013    3.2990    2.1404 C   0  0  0  0  0  0  0  0  0  0  0  0
   -0.2152    4.3547    3.1505 C   0  0  2  0  0  0  0  0  0  0  0  0
   -0.8201    5.2741    2.8998 H   0  0  0  0  0  0  0  0  0  0  0  0
    1.2532    4.7042    3.0768 C   0  0  0  0  0  0  0  0  0  0  0  0
    1.7161    5.5494    2.0539 C   0  0  0  0  0  0  0  0  0  0  0  0
    3.0848    5.8404    1.9679 C   0  0  0  0  0  0  0  0  0  0  0  0
    3.9757    5.2904    2.8925 C   0  0  0  0  0  0  0  0  0  0  0  0
    3.5127    4.4578    3.9046 C   0  0  0  0  0  0  0  0  0  0  0  0
    2.1547    4.1658    3.9946 C   0  0  0  0  0  0  0  0  0  0  0  0
    3.6289    6.7291    0.8974 C   0  0  0  0  0  0  0  0  0  0  0  0
    0.7497    6.1200    1.0701 C   0  0  0  0  0  0  0  0  0  0  0  0
   -0.6801    3.8807    4.5348 C   0  0  0  0  0  0  0  0  0  0  0  0
    0.2045    2.1360    1.8546 C   0  0  0  0  0  0  0  0  0  0  0  0
   -0.5869   -1.2222    1.0951 C   0  0  0  0  0  0  0  0  0  0  0  0
    0.2319   -1.6928    2.1218 C   0  0  0  0  0  0  0  0  0  0  0  0
   -0.2419   -2.6619    3.0018 C   0  0  0  0  0  0  0  0  0  0  0  0
   -1.5381   -3.1654    2.8609 C   0  0  0  0  0  0  0  0  0  0  0  0
   -2.3521   -2.6983    1.8228 C   0  0  0  0  0  0  0  0  0  0  0  0
   -1.8766   -1.7343    0.9408 C   0  0  0  0  0  0  0  0  0  0  0  0
   -2.0623   -4.1898    3.8047 C   0  0  0  0  0  0  0  0  0  0  0  0
   -2.2721    2.0953   -0.3049 H   0  0  0  0  0  0  0  0  0  0  0  0
    5.0376    5.5126    2.8207 H   0  0  0  0  0  0  0  0  0  0  0  0
    4.2090    4.0335    4.6238 H   0  0  0  0  0  0  0  0  0  0  0  0
    1.8067    3.5098    4.7891 H   0  0  0  0  0  0  0  0  0  0  0  0
    3.1530    7.7201    0.9176 H   0  0  0  0  0  0  0  0  0  0  0  0
    3.4627    6.2969   -0.1009 H   0  0  0  0  0  0  0  0  0  0  0  0
    4.7097    6.8942    0.9959 H   0  0  0  0  0  0  0  0  0  0  0  0
    0.1290    5.3304    0.6117 H   0  0  0  0  0  0  0  0  0  0  0  0
    1.2277    6.6533    0.2406 H   0  0  0  0  0  0  0  0  0  0  0  0
    0.0588    6.8269    1.5538 H   0  0  0  0  0  0  0  0  0  0  0  0
   -0.4166    4.6098    5.3092 H   0  0  0  0  0  0  0  0  0  0  0  0
   -0.2429    2.9149    4.8077 H   0  0  0  0  0  0  0  0  0  0  0  0
   -1.7705    3.7542    4.5461 H   0  0  0  0  0  0  0  0  0  0  0  0
    1.1135    1.7569    2.2755 H   0  0  0  0  0  0  0  0  0  0  0  0
    1.2553   -1.3171    2.2462 H   0  0  0  0  0  0  0  0  0  0  0  0
    0.4003   -3.0276    3.8002 H   0  0  0  0  0  0  0  0  0  0  0  0
   -3.3601   -3.0906    1.7070 H   0  0  0  0  0  0  0  0  0  0  0  0
   -2.5255   -1.3947    0.1241 H   0  0  0  0  0  0  0  0  0  0  0  0
   -2.4408   -5.0766    3.2731 H   0  0  0  0  0  0  0  0  0  0  0  0
   -2.8999   -3.7908    4.3994 H   0  0  0  0  0  0  0  0  0  0  0  0
   -1.3073   -4.5459    4.5193 H   0  0  0  0  0  0  0  0  0  0  0  0
  1  4  1  0  0  0  0
  1 20  1  0  0  0  0
  2  1  2  0  0  0  0
  3  1  2  0  0  0  0
  4 19  1  0  0  0  0
  5  4  1  0  0  0  0
  5  6  2  0  0  0  0
  6  7  2  0  0  0  0
  7  8  1  0  0  0  0
  8  9  1  6  0  0  0
  8 18  1  0  0  0  0
 10  8  1  0  0  0  0
 10 15  2  0  0  0  0
 11 10  1  0  0  0  0
 12 11  2  0  0  0  0
 12 13  1  0  0  0  0
 13 14  2  0  0  0  0
 14 15  1  0  0  0  0
 14 29  1  0  0  0  0
 15 30  1  0  0  0  0
 16 31  1  0  0  0  0
 16 33  1  0  0  0  0
 16 12  1  0  0  0  0
 17 36  1  0  0  0  0
 17 11  1  0  0  0  0
 18 39  1  0  0  0  0
 18 38  1  0  0  0  0
 18 37  1  0  0  0  0
 19  7  1  0  0  0  0
 19 40  1  0  0  0  0
 20 21  1  0  0  0  0
 21 41  1  0  0  0  0
 21 22  2  0  0  0  0
 22 42  1  0  0  0  0
 23 22  1  0  0  0  0
 23 26  1  0  0  0  0
 24 23  2  0  0  0  0
 25 20  2  0  0  0  0
 25 24  1  0  0  0  0
 26 46  1  0  0  0  0
 26 47  1  0  0  0  0
 27  5  1  0  0  0  0
 28 13  1  0  0  0  0
 32 16  1  0  0  0  0
 34 17  1  0  0  0  0
 35 17  1  0  0  0  0
 43 24  1  0  0  0  0
 44 25  1  0  0  0  0
 45 26  1  0  0  0  0
M  RAD  1  19   2
M  END
$$$$
