rmsd85.gzmat
 OpenBabel08211713403D

 47 49  0  0  1  0  0  0  0  0999 V2000
    0.0000    0.0000    0.0000 S   0  0  0  0  0  0  0  0  0  0  0  0
    1.4379    0.0000    0.0000 O   0  0  0  0  0  0  0  0  0  0  0  0
   -0.7883    0.0000   -1.1991 O   0  0  0  0  0  0  0  0  0  0  0  0
   -0.4001    1.4992    0.8475 N   0  0  0  0  0  0  0  0  0  0  0  0
    0.4790    2.3353    1.5595 C   0  0  0  0  0  0  0  0  0  0  0  0
   -0.1855    3.3550    2.1069 N   0  0  0  0  0  0  0  0  0  0  0  0
   -1.5290    3.2121    1.7476 C   0  0  0  0  0  0  0  0  0  0  0  0
   -2.5680    4.1668    2.2207 C   0  0  2  0  0  0  0  0  0  0  0  0
   -2.0884    4.9351    2.8923 H   0  0  0  0  0  0  0  0  0  0  0  0
   -3.5888    3.3815    3.0131 C   0  0  0  0  0  0  0  0  0  0  0  0
   -3.3905    3.1400    4.3816 C   0  0  0  0  0  0  0  0  0  0  0  0
   -4.3509    2.4091    5.0969 C   0  0  0  0  0  0  0  0  0  0  0  0
   -5.4717    1.8957    4.4417 C   0  0  0  0  0  0  0  0  0  0  0  0
   -5.6489    2.1135    3.0796 C   0  0  0  0  0  0  0  0  0  0  0  0
   -4.7121    2.8584    2.3706 C   0  0  0  0  0  0  0  0  0  0  0  0
   -4.2042    2.1623    6.5633 C   0  0  0  0  0  0  0  0  0  0  0  0
   -2.1699    3.6517    5.0719 C   0  0  0  0  0  0  0  0  0  0  0  0
   -3.1640    4.9274    1.0278 C   0  0  0  0  0  0  0  0  0  0  0  0
   -1.6759    2.0735    0.9631 C   0  0  0  0  0  0  0  0  0  0  0  0
   -0.6007   -1.2123    1.0962 C   0  0  0  0  0  0  0  0  0  0  0  0
   -1.8481   -1.7986    0.8734 C   0  0  0  0  0  0  0  0  0  0  0  0
   -2.3321   -2.7589    1.7551 C   0  0  0  0  0  0  0  0  0  0  0  0
   -1.5765   -3.1345    2.8717 C   0  0  0  0  0  0  0  0  0  0  0  0
   -0.3252   -2.5493    3.0876 C   0  0  0  0  0  0  0  0  0  0  0  0
    0.1631   -1.5959    2.1993 C   0  0  0  0  0  0  0  0  0  0  0  0
   -2.1099   -4.1541    3.8154 C   0  0  0  0  0  0  0  0  0  0  0  0
    1.5412    2.1524    1.6274 H   0  0  0  0  0  0  0  0  0  0  0  0
   -6.2100    1.3230    4.9970 H   0  0  0  0  0  0  0  0  0  0  0  0
   -6.5185    1.7066    2.5696 H   0  0  0  0  0  0  0  0  0  0  0  0
   -4.8632    3.0282    1.3067 H   0  0  0  0  0  0  0  0  0  0  0  0
   -4.0108    3.0965    7.1105 H   0  0  0  0  0  0  0  0  0  0  0  0
   -3.3691    1.4764    6.7686 H   0  0  0  0  0  0  0  0  0  0  0  0
   -5.1032    1.7154    7.0074 H   0  0  0  0  0  0  0  0  0  0  0  0
   -1.2724    3.5839    4.4317 H   0  0  0  0  0  0  0  0  0  0  0  0
   -1.9233    3.0904    5.9812 H   0  0  0  0  0  0  0  0  0  0  0  0
   -2.2881    4.7076    5.3553 H   0  0  0  0  0  0  0  0  0  0  0  0
   -4.0262    5.5293    1.3357 H   0  0  0  0  0  0  0  0  0  0  0  0
   -3.4856    4.2527    0.2272 H   0  0  0  0  0  0  0  0  0  0  0  0
   -2.4158    5.6037    0.5942 H   0  0  0  0  0  0  0  0  0  0  0  0
   -2.5474    1.6578    0.5018 H   0  0  0  0  0  0  0  0  0  0  0  0
   -2.4572   -1.5175    0.0050 H   0  0  0  0  0  0  0  0  0  0  0  0
   -3.3029   -3.2173    1.5794 H   0  0  0  0  0  0  0  0  0  0  0  0
    0.2696   -2.8384    3.9512 H   0  0  0  0  0  0  0  0  0  0  0  0
    1.1531   -1.1609    2.3804 H   0  0  0  0  0  0  0  0  0  0  0  0
   -1.4717   -4.3008    4.6977 H   0  0  0  0  0  0  0  0  0  0  0  0
   -2.2114   -5.1366    3.3282 H   0  0  0  0  0  0  0  0  0  0  0  0
   -3.1090   -3.8775    4.1879 H   0  0  0  0  0  0  0  0  0  0  0  0
  1  4  1  0  0  0  0
  1 20  1  0  0  0  0
  2  1  2  0  0  0  0
  3  1  2  0  0  0  0
  4 19  1  0  0  0  0
  4  5  1  0  0  0  0
  5 27  1  0  0  0  0
  5  6  2  0  0  0  0
  7  6  2  0  0  0  0
  7  8  1  0  0  0  0
  8  9  1  1  0  0  0
  8 10  1  0  0  0  0
 10 11  1  0  0  0  0
 11 17  1  0  0  0  0
 11 12  2  0  0  0  0
 12 16  1  0  0  0  0
 13 28  1  0  0  0  0
 13 12  1  0  0  0  0
 14 13  2  0  0  0  0
 15 10  2  0  0  0  0
 15 14  1  0  0  0  0
 16 32  1  0  0  0  0
 16 33  1  0  0  0  0
 16 31  1  0  0  0  0
 17 36  1  0  0  0  0
 17 35  1  0  0  0  0
 18 37  1  0  0  0  0
 18  8  1  0  0  0  0
 19  7  1  0  0  0  0
 20 25  1  0  0  0  0
 21 20  2  0  0  0  0
 21 22  1  0  0  0  0
 22 23  2  0  0  0  0
 23 24  1  0  0  0  0
 23 26  1  0  0  0  0
 24 43  1  0  0  0  0
 25 44  1  0  0  0  0
 25 24  2  0  0  0  0
 26 47  1  0  0  0  0
 26 45  1  0  0  0  0
 29 14  1  0  0  0  0
 30 15  1  0  0  0  0
 34 17  1  0  0  0  0
 38 18  1  0  0  0  0
 39 18  1  0  0  0  0
 40 19  1  0  0  0  0
 41 21  1  0  0  0  0
 42 22  1  0  0  0  0
 46 26  1  0  0  0  0
M  RAD  1  19   2
M  END
$$$$
