rmsd1.gzmat
 OpenBabel08211713403D

 47 49  0  0  1  0  0  0  0  0999 V2000
    0.0000    0.0000    0.0000 S   0  0  0  0  0  0  0  0  0  0  0  0
    1.4374    0.0000    0.0000 O   0  0  0  0  0  0  0  0  0  0  0  0
   -0.7897    0.0000   -1.1972 O   0  0  0  0  0  0  0  0  0  0  0  0
   -0.4375    1.4898    0.8470 N   0  0  0  0  0  0  0  0  0  0  0  0
    0.3286    2.2199    1.7738 C   0  0  0  0  0  0  0  0  0  0  0  0
   -0.3953    3.2079    2.3047 N   0  0  0  0  0  0  0  0  0  0  0  0
   -1.6627    3.1506    1.7178 C   0  0  0  0  0  0  0  0  0  0  0  0
   -2.7518    4.0885    2.1052 C   0  0  2  0  0  0  0  0  0  0  0  0
   -2.5166    4.5316    3.1149 H   0  0  0  0  0  0  0  0  0  0  0  0
   -4.0345    3.2936    2.1987 C   0  0  0  0  0  0  0  0  0  0  0  0
   -4.3290    2.5683    3.3647 C   0  0  0  0  0  0  0  0  0  0  0  0
   -5.5132    1.8203    3.4294 C   0  0  0  0  0  0  0  0  0  0  0  0
   -6.3718    1.7734    2.3288 C   0  0  0  0  0  0  0  0  0  0  0  0
   -6.0664    2.4775    1.1696 C   0  0  0  0  0  0  0  0  0  0  0  0
   -4.9029    3.2383    1.1083 C   0  0  0  0  0  0  0  0  0  0  0  0
   -5.8863    1.0567    4.6584 C   0  0  0  0  0  0  0  0  0  0  0  0
   -3.3844    2.5933    4.5206 C   0  0  0  0  0  0  0  0  0  0  0  0
   -2.8110    5.2564    1.1109 C   0  0  0  0  0  0  0  0  0  0  0  0
   -1.7007    2.1000    0.8077 C   0  0  0  0  0  0  0  0  0  0  0  0
   -0.5865   -1.2072    1.1124 C   0  0  0  0  0  0  0  0  0  0  0  0
   -1.9520   -1.4875    1.1902 C   0  0  0  0  0  0  0  0  0  0  0  0
   -2.4193   -2.4202    2.1101 C   0  0  0  0  0  0  0  0  0  0  0  0
   -1.5231   -3.0896    2.9508 C   0  0  0  0  0  0  0  0  0  0  0  0
   -0.1544   -2.8203    2.8552 C   0  0  0  0  0  0  0  0  0  0  0  0
    0.3116   -1.8813    1.9400 C   0  0  0  0  0  0  0  0  0  0  0  0
   -2.0274   -4.0935    3.9270 C   0  0  0  0  0  0  0  0  0  0  0  0
    1.3616    1.9955    1.9922 H   0  0  0  0  0  0  0  0  0  0  0  0
   -7.2844    1.1849    2.3780 H   0  0  0  0  0  0  0  0  0  0  0  0
   -6.7348    2.4358    0.3126 H   0  0  0  0  0  0  0  0  0  0  0  0
   -4.6728    3.7865    0.1963 H   0  0  0  0  0  0  0  0  0  0  0  0
   -5.8093    1.6802    5.5612 H   0  0  0  0  0  0  0  0  0  0  0  0
   -5.2300    0.1852    4.7970 H   0  0  0  0  0  0  0  0  0  0  0  0
   -6.9177    0.6816    4.6227 H   0  0  0  0  0  0  0  0  0  0  0  0
   -2.3335    2.5213    4.1919 H   0  0  0  0  0  0  0  0  0  0  0  0
   -3.5348    1.7640    5.2220 H   0  0  0  0  0  0  0  0  0  0  0  0
   -3.4829    3.5297    5.0904 H   0  0  0  0  0  0  0  0  0  0  0  0
   -3.6788    5.8965    1.3045 H   0  0  0  0  0  0  0  0  0  0  0  0
   -2.8610    4.9115    0.0723 H   0  0  0  0  0  0  0  0  0  0  0  0
   -1.9076    5.8750    1.1988 H   0  0  0  0  0  0  0  0  0  0  0  0
   -2.4895    1.7705    0.1610 H   0  0  0  0  0  0  0  0  0  0  0  0
   -2.6721   -0.9855    0.5334 H   0  0  0  0  0  0  0  0  0  0  0  0
   -3.4849   -2.6304    2.1757 H   0  0  0  0  0  0  0  0  0  0  0  0
    0.5493   -3.3439    3.4981 H   0  0  0  0  0  0  0  0  0  0  0  0
    1.3905   -1.6863    1.8809 H   0  0  0  0  0  0  0  0  0  0  0  0
   -2.2729   -5.0430    3.4240 H   0  0  0  0  0  0  0  0  0  0  0  0
   -2.9439   -3.7558    4.4336 H   0  0  0  0  0  0  0  0  0  0  0  0
   -1.2971   -4.3303    4.7134 H   0  0  0  0  0  0  0  0  0  0  0  0
  1  4  1  0  0  0  0
  1 20  1  0  0  0  0
  2  1  2  0  0  0  0
  3  1  2  0  0  0  0
  4  5  1  0  0  0  0
  5 27  1  0  0  0  0
  5  6  2  0  0  0  0
  7  8  1  0  0  0  0
  7  6  2  0  0  0  0
  8 10  1  0  0  0  0
  8  9  1  1  0  0  0
 10 11  2  0  0  0  0
 11 12  1  0  0  0  0
 11 17  1  0  0  0  0
 12 16  1  0  0  0  0
 13 28  1  0  0  0  0
 13 12  2  0  0  0  0
 14 13  1  0  0  0  0
 15 14  2  0  0  0  0
 15 10  1  0  0  0  0
 16 32  1  0  0  0  0
 16 31  1  0  0  0  0
 17 36  1  0  0  0  0
 17 35  1  0  0  0  0
 18 39  1  0  0  0  0
 18 37  1  0  0  0  0
 18  8  1  0  0  0  0
 19  4  1  0  0  0  0
 19  7  1  0  0  0  0
 20 21  2  0  0  0  0
 20 25  1  0  0  0  0
 21 22  1  0  0  0  0
 22 42  1  0  0  0  0
 22 23  2  0  0  0  0
 23 26  1  0  0  0  0
 24 23  1  0  0  0  0
 24 43  1  0  0  0  0
 25 24  2  0  0  0  0
 26 46  1  0  0  0  0
 26 47  1  0  0  0  0
 29 14  1  0  0  0  0
 30 15  1  0  0  0  0
 33 16  1  0  0  0  0
 34 17  1  0  0  0  0
 38 18  1  0  0  0  0
 40 19  1  0  0  0  0
 41 21  1  0  0  0  0
 44 25  1  0  0  0  0
 45 26  1  0  0  0  0
M  RAD  1  19   2
M  END
$$$$
