47

S         -0.59470        0.42070       -0.16380
O          0.80550        0.63980       -0.50200
O         -1.64570        0.25570       -1.16100
N         -1.07440        1.79470        0.75740
C         -2.35370        2.30920        0.85980
N         -2.39700        3.27840        1.73450
C         -1.11320        3.41290        2.24330
C         -0.79730        4.43520        3.30650
H         -1.14410        5.40510        2.91450
C          0.70600        4.52400        3.53670
C          1.51600        5.26120        2.63980
C          2.91500        5.30260        2.83530
C          3.47960        4.60270        3.91160
C          2.68360        3.87340        4.79110
C          1.30240        3.83880        4.60210
C          3.82160        6.08390        1.91320
C          0.87590        5.99800        1.48610
C         -1.63370        4.15480        4.56510
C         -0.27450        2.49710        1.65450
C         -0.70080       -0.89950        1.02410
C         -1.91900       -1.56270        1.19850
C         -1.99900       -2.57550        2.14990
C         -0.88210       -2.93710        2.92480
C          0.32780       -2.25820        2.71510
C          0.43010       -1.24020        1.76630
C         -0.99360       -4.03570        3.94870
H         -3.17040        1.92830        0.24870
H          4.56250        4.63650        4.05780
H          3.13750        3.33420        5.62620
H          0.68250        3.26800        5.29420
H          3.56060        7.15470        1.88960
H          3.76700        5.71750        0.87470
H          4.86890        6.00460        2.23770
H          0.23450        5.33060        0.89070
H          1.61670        6.43600        0.80780
H          0.23300        6.82030        1.84390
H         -1.43510        4.90380        5.34680
H         -1.42630        3.15580        4.97720
H         -2.70060        4.18540        4.30330
H          0.78820        2.30470        1.75610
H         -2.78010       -1.29010        0.58670
H         -2.94600       -3.10210        2.29340
H          1.20760       -2.53360        3.30150
H          1.37330       -0.72080        1.59170
H         -0.04470       -4.19320        4.48030
H         -1.28130       -4.98840        3.47460
H         -1.76910       -3.80080        4.69580
