47
rmsd91.gzmat
S          0.00000        0.00000        0.00000
O          1.43720        0.00000        0.00000
O         -0.79090        0.00000       -1.19760
N         -0.43520        1.49850        0.83100
C          0.28230        2.15580        1.84850
N         -0.31790        3.29880        2.18150
C         -1.44120        3.43140        1.35700
C         -2.32330        4.62670        1.45320
H         -2.20230        5.09050        2.47520
C         -3.76310        4.20410        1.28250
C         -4.46830        3.66370        2.37030
C         -5.81090        3.29370        2.20680
C         -6.43130        3.44210        0.96460
C         -5.72270        3.95630       -0.11540
C         -4.39330        4.33540        0.04500
C         -6.60800        2.73940        3.34230
C         -3.79530        3.49350        3.69200
C         -1.85700        5.67850        0.43480
C         -1.52390        2.32870        0.51480
C         -0.56740       -1.23020        1.09640
C         -1.89460       -1.65710        1.05380
C         -2.33230       -2.65950        1.91550
C         -1.44270       -3.24720        2.81930
C         -0.11360       -2.81070        2.86340
C          0.32140       -1.80730        2.00550
C         -1.88720       -4.33820        3.72850
H          1.19340        1.76780        2.27520
H         -7.47300        3.15710        0.84050
H         -6.20710        4.06780       -1.08270
H         -3.84980        4.73670       -0.80850
H         -6.54510        3.38400        4.23120
H         -6.24920        1.73960        3.62770
H         -7.67420        2.64040        3.10020
H         -2.75390        3.14770        3.58390
H         -4.28970        2.75680        4.33650
H         -3.76560        4.44570        4.24290
H         -2.52870        6.54360        0.42410
H         -1.80070        5.27080       -0.58000
H         -0.85010        6.03420        0.69350
H         -2.23830        2.08450       -0.24810
H         -2.60640       -1.22200        0.34140
H         -3.36930       -2.98720        1.88080
H          0.58120       -3.26240        3.56800
H          1.37120       -1.49040        2.04830
H         -1.34750       -5.27610        3.52030
H         -2.95910       -4.56310        3.64300
H         -1.69600       -4.08920        4.78390
