
     RDKit          3D

 47 49  0  0  0  0  0  0  0  0999 V2000
    0.1128    0.0717   -0.2688 S   0  0  0  0  0  0  0  0  0  0  0  0
    1.5251   -0.2313   -0.0735 O   0  0  0  0  0  0  0  0  0  0  0  0
   -0.5572   -0.0338   -1.5574 O   0  0  0  0  0  0  0  0  0  0  0  0
   -0.0679    1.7107    0.2434 N   0  0  0  0  0  0  0  0  0  0  0  0
    0.7744    2.3713    1.1219 C   0  0  0  0  0  0  0  0  0  0  0  0
    0.1755    3.4004    1.6603 N   0  0  0  0  0  0  0  0  0  0  0  0
   -1.1197    3.4099    1.1619 C   0  0  0  0  0  0  0  0  0  0  0  0
   -2.1348    4.4265    1.6153 C   0  0  2  0  0  0  0  0  0  0  0  0
   -1.9033    4.6174    2.6767 H   0  0  0  0  0  0  0  0  0  0  0  0
   -3.5394    3.8327    1.5349 C   0  0  0  0  0  0  0  0  0  0  0  0
   -3.8849    2.7162    2.3360 C   0  0  0  0  0  0  0  0  0  0  0  0
   -5.1658    2.1344    2.2066 C   0  0  0  0  0  0  0  0  0  0  0  0
   -6.0853    2.6729    1.2965 C   0  0  0  0  0  0  0  0  0  0  0  0
   -5.7509    3.7773    0.5175 C   0  0  0  0  0  0  0  0  0  0  0  0
   -4.4840    4.3487    0.6382 C   0  0  0  0  0  0  0  0  0  0  0  0
   -5.5480    0.9307    3.0319 C   0  0  0  0  0  0  0  0  0  0  0  0
   -2.9114    2.0980    3.3121 C   0  0  0  0  0  0  0  0  0  0  0  0
   -1.9352    5.7588    0.8798 C   0  0  0  0  0  0  0  0  0  0  0  0
   -1.2925    2.3733    0.2800 C   0  0  0  0  0  0  0  0  0  0  0  0
   -0.8701   -0.7641    0.9612 C   0  0  0  0  0  0  0  0  0  0  0  0
   -2.1926   -1.0937    0.6620 C   0  0  0  0  0  0  0  0  0  0  0  0
   -2.9835   -1.6635    1.6589 C   0  0  0  0  0  0  0  0  0  0  0  0
   -2.4733   -1.8991    2.9458 C   0  0  0  0  0  0  0  0  0  0  0  0
   -1.1308   -1.5733    3.2061 C   0  0  0  0  0  0  0  0  0  0  0  0
   -0.3220   -1.0080    2.2225 C   0  0  0  0  0  0  0  0  0  0  0  0
   -3.3545   -2.4514    4.0340 C   0  0  0  0  0  0  0  0  0  0  0  0
    1.7947    2.0316    1.2918 H   0  0  0  0  0  0  0  0  0  0  0  0
   -7.0740    2.2157    1.2019 H   0  0  0  0  0  0  0  0  0  0  0  0
   -6.4738    4.1930   -0.1885 H   0  0  0  0  0  0  0  0  0  0  0  0
   -4.2293    5.2075    0.0175 H   0  0  0  0  0  0  0  0  0  0  0  0
   -5.5417    1.1559    4.1119 H   0  0  0  0  0  0  0  0  0  0  0  0
   -4.8423    0.0982    2.8806 H   0  0  0  0  0  0  0  0  0  0  0  0
   -6.5548    0.5744    2.7711 H   0  0  0  0  0  0  0  0  0  0  0  0
   -2.5304    1.1357    2.9304 H   0  0  0  0  0  0  0  0  0  0  0  0
   -3.3973    1.8877    4.2775 H   0  0  0  0  0  0  0  0  0  0  0  0
   -2.0379    2.7282    3.5105 H   0  0  0  0  0  0  0  0  0  0  0  0
   -2.6315    6.5289    1.2461 H   0  0  0  0  0  0  0  0  0  0  0  0
   -2.0765    5.6461   -0.2058 H   0  0  0  0  0  0  0  0  0  0  0  0
   -0.9072    6.1119    1.0458 H   0  0  0  0  0  0  0  0  0  0  0  0
   -2.1492    2.0379   -0.2952 H   0  0  0  0  0  0  0  0  0  0  0  0
   -2.5860   -0.9052   -0.3377 H   0  0  0  0  0  0  0  0  0  0  0  0
   -4.0191   -1.9280    1.4331 H   0  0  0  0  0  0  0  0  0  0  0  0
   -0.7137   -1.7652    4.1976 H   0  0  0  0  0  0  0  0  0  0  0  0
    0.7209   -0.7579    2.4236 H   0  0  0  0  0  0  0  0  0  0  0  0
   -2.7826   -3.0623    4.7478 H   0  0  0  0  0  0  0  0  0  0  0  0
   -4.1690   -3.0653    3.6229 H   0  0  0  0  0  0  0  0  0  0  0  0
   -3.8194   -1.6285    4.6043 H   0  0  0  0  0  0  0  0  0  0  0  0
  1  2  2  0
  1  3  2  0
  1  4  1  0
  1 20  1  0
  4  5  1  0
  4 19  1  0
  5  6  2  0
  5 27  1  0
  6  7  1  0
  7  8  1  0
  7 19  2  0
  8  9  1  1
  8 10  1  0
  8 18  1  0
 10 11  2  0
 10 15  1  0
 11 12  1  0
 11 17  1  0
 12 13  2  0
 12 16  1  0
 13 14  1  0
 13 28  1  0
 14 15  2  0
 14 29  1  0
 15 30  1  0
 16 31  1  0
 16 32  1  0
 16 33  1  0
 17 34  1  0
 17 35  1  0
 17 36  1  0
 18 37  1  0
 18 38  1  0
 18 39  1  0
 19 40  1  0
 20 21  2  0
 20 25  1  0
 21 22  1  0
 21 41  1  0
 22 23  2  0
 22 42  1  0
 23 24  1  0
 23 26  1  0
 24 25  2  0
 24 43  1  0
 25 44  1  0
 26 45  1  0
 26 46  1  0
 26 47  1  0
M  END

