55
rmsd197.gzmat
C          0.00000        0.00000        0.00000
C          1.39740        0.00000        0.00000
C          2.08190        0.00000        1.22070
C          1.39150        0.09990        2.42710
C          0.00020        0.13910        2.41920
C         -0.68880        0.05900        1.20710
C         -2.18840        0.05850        1.22470
F         -2.72050       -0.71670        2.17260
F         -2.71770        1.26320        1.44830
F         -2.78080       -0.35860        0.10670
S          3.84460       -0.16540        1.24580
C          4.10060       -1.14110       -0.21100
C          3.23890       -1.00310       -1.30370
C          3.42620       -1.80490       -2.43210
C          4.47890       -2.71530       -2.47070
C          5.34620       -2.83050       -1.38510
C          5.15630       -2.04740       -0.24750
C          2.15410       -0.01250       -1.25530
C          1.96280        0.83170       -2.28280
C          0.94950        1.92020       -2.34160
C         -0.04160        1.70510       -3.51050
N         -0.99300        0.63240       -3.13670
C         -2.37940        0.92100       -3.55320
C         -2.61010        0.74030       -5.07260
N         -2.21010       -0.59270       -5.57210
C         -0.82800       -0.90060       -5.14740
C         -0.58040       -0.69590       -3.63340
C         -3.17170       -1.65130       -5.18010
C         -3.11030       -2.76720       -6.24460
O         -3.43750       -2.25990       -7.51940
H         -0.53060       -0.03670       -0.96290
H          1.92280        0.13610        3.37990
H         -0.53920        0.22030        3.36440
H          2.74630       -1.71950       -3.27800
H          4.62390       -3.34000       -3.35080
H          6.16990       -3.54110       -1.42100
H          5.83200       -2.16150        0.60140
H          2.59950        0.76440       -3.17080
H          1.46290        2.89680       -2.47480
H          0.37970        2.02100       -1.39350
H          0.51100        1.48700       -4.44710
H         -0.58740        2.65700       -3.68810
H         -2.65650        1.94650       -3.23320
H         -3.04290        0.23350       -2.98030
H         -3.67350        0.92400       -5.33020
H         -2.02010        1.49210       -5.64230
H         -0.57830       -1.94200       -5.43730
H         -0.15270       -0.24460       -5.74020
H         -1.14600       -1.45470       -3.04660
H          0.49170       -0.85990       -3.39450
H         -4.20130       -1.22990       -5.16930
H         -2.98760       -2.06710       -4.16950
H         -3.87550       -3.54340       -6.06340
H         -2.11160       -3.23350       -6.30470
H         -2.97890       -1.39680       -7.64620
