55
rmsd78.gzmat
C          0.00000        0.00000        0.00000
C          1.39700        0.00000        0.00000
C          2.07560        0.00000        1.22430
C          1.37920        0.08840        2.42810
C         -0.01290        0.13310        2.41880
C         -0.69640        0.06400        1.20440
C         -2.19550        0.08850        1.16240
F         -2.80400       -0.21160        2.31090
F         -2.69870        1.27870        0.82800
F         -2.73860       -0.75820        0.28630
S          3.83940       -0.13480        1.26520
C          4.14630       -1.05680       -0.21460
C          3.28030       -0.94440       -1.30690
C          3.51750       -1.71480       -2.44850
C          4.62540       -2.55610       -2.50480
C          5.49990       -2.63740       -1.42190
C          5.25750       -1.89440       -0.26780
C          2.15390       -0.00040       -1.25520
C          1.93160        0.83070       -2.28810
C          0.90100        1.90290       -2.34850
C         -0.10040        1.66170       -3.50380
N         -1.04970        0.60200       -3.09080
C         -2.45090        0.91200       -3.43320
C         -2.78150        0.70740       -4.93190
N         -2.41030       -0.62890       -5.44490
C         -1.00370       -0.92950       -5.10360
C         -0.67960       -0.73240       -3.60350
C         -3.34050       -1.69030       -4.98910
C         -4.54460       -1.70980       -5.95480
O         -4.12000       -2.00230       -7.26770
H         -0.53590       -0.03810       -0.96060
H          1.90710        0.11360        3.38330
H         -0.54710        0.21170        3.36690
H          2.83400       -1.65690       -3.29390
H          4.80990       -3.15200       -3.39740
H          6.37050       -3.28900       -1.47260
H          5.93900       -1.98510        0.57950
H          2.56320        0.77280       -3.18050
H          1.40140        2.88390       -2.49870
H          0.34070        2.00920       -1.39560
H          0.44390        1.41460       -4.43810
H         -0.64220        2.61120       -3.70390
H         -2.68770        1.95010       -3.12110
H         -3.09200        0.25330       -2.80320
H         -3.86170        0.88240       -5.11490
H         -2.23650        1.45560       -5.54900
H         -0.76100       -1.96480       -5.42070
H         -0.36800       -0.26150       -5.72620
H         -1.23210       -1.48290       -2.99350
H          0.39990       -0.90980       -3.41180
H         -3.68230       -1.56440       -3.94250
H         -2.83080       -2.67770       -5.04120
H         -5.08310       -0.74630       -5.97140
H         -5.24650       -2.52830       -5.71480
H         -3.31650       -1.46810       -7.46790
