
     RDKit          3D

 55 58  0  0  0  0  0  0  0  0999 V2000
    0.3608    0.9727   -0.3749 C   0  0  0  0  0  0  0  0  0  0  0  0
    1.7156    0.6700   -0.5713 C   0  0  0  0  0  0  0  0  0  0  0  0
    2.6329    1.0556    0.4292 C   0  0  0  0  0  0  0  0  0  0  0  0
    2.2090    1.8087    1.5350 C   0  0  0  0  0  0  0  0  0  0  0  0
    0.8712    2.1629    1.6715 C   0  0  0  0  0  0  0  0  0  0  0  0
   -0.0598    1.7254    0.7207 C   0  0  0  0  0  0  0  0  0  0  0  0
   -1.5165    2.0526    0.9031 C   0  0  0  0  0  0  0  0  0  0  0  0
   -1.6867    3.3109    1.3589 F   0  0  0  0  0  0  0  0  0  0  0  0
   -2.2047    1.9513   -0.2518 F   0  0  0  0  0  0  0  0  0  0  0  0
   -2.1139    1.2364    1.7890 F   0  0  0  0  0  0  0  0  0  0  0  0
    4.3479    0.6369    0.3038 S   0  0  0  0  0  0  0  0  0  0  0  0
    4.2414   -0.8775   -0.6240 C   0  0  0  0  0  0  0  0  0  0  0  0
    3.2094   -1.0873   -1.5614 C   0  0  0  0  0  0  0  0  0  0  0  0
    3.1954   -2.2983   -2.2723 C   0  0  0  0  0  0  0  0  0  0  0  0
    4.1953   -3.2534   -2.0916 C   0  0  0  0  0  0  0  0  0  0  0  0
    5.2263   -3.0189   -1.1762 C   0  0  0  0  0  0  0  0  0  0  0  0
    5.2443   -1.8373   -0.4355 C   0  0  0  0  0  0  0  0  0  0  0  0
    2.1989   -0.0258   -1.7919 C   0  0  0  0  0  0  0  0  0  0  0  0
    1.8317    0.3192   -3.0476 C   0  0  0  0  0  0  0  0  0  0  0  0
    0.9655    1.4823   -3.4538 C   0  0  0  0  0  0  0  0  0  0  0  0
    1.6328    2.8351   -3.1247 C   0  0  0  0  0  0  0  0  0  0  0  0
    0.7350    3.9562   -3.3512 N   0  0  0  0  0  0  0  0  0  0  0  0
   -0.2605    4.1513   -2.2942 C   0  0  0  0  0  0  0  0  0  0  0  0
    0.3355    4.8167   -1.0458 C   0  0  0  0  0  0  0  0  0  0  0  0
    1.0043    6.0844   -1.3493 N   0  0  0  0  0  0  0  0  0  0  0  0
    1.9934    5.9047   -2.4184 C   0  0  0  0  0  0  0  0  0  0  0  0
    1.3953    5.2223   -3.6597 C   0  0  0  0  0  0  0  0  0  0  0  0
    0.1207    7.2374   -1.5260 C   0  0  0  0  0  0  0  0  0  0  0  0
    0.8439    8.5040   -1.0571 C   0  0  0  0  0  0  0  0  0  0  0  0
    1.4069    8.2917    0.2092 O   0  0  0  0  0  0  0  0  0  0  0  0
   -0.3727    0.6266   -1.1005 H   0  0  0  0  0  0  0  0  0  0  0  0
    2.9358    2.1078    2.2930 H   0  0  0  0  0  0  0  0  0  0  0  0
    0.5466    2.7650    2.5216 H   0  0  0  0  0  0  0  0  0  0  0  0
    2.3789   -2.4851   -2.9731 H   0  0  0  0  0  0  0  0  0  0  0  0
    4.1655   -4.1863   -2.6588 H   0  0  0  0  0  0  0  0  0  0  0  0
    6.0091   -3.7652   -1.0236 H   0  0  0  0  0  0  0  0  0  0  0  0
    6.0327   -1.6565    0.2985 H   0  0  0  0  0  0  0  0  0  0  0  0
    2.3051   -0.2400   -3.8608 H   0  0  0  0  0  0  0  0  0  0  0  0
   -0.0188    1.4473   -2.9675 H   0  0  0  0  0  0  0  0  0  0  0  0
    0.7650    1.4477   -4.5344 H   0  0  0  0  0  0  0  0  0  0  0  0
    2.5124    2.9569   -3.7760 H   0  0  0  0  0  0  0  0  0  0  0  0
    2.0297    2.7892   -2.0913 H   0  0  0  0  0  0  0  0  0  0  0  0
   -0.7197    3.1884   -2.0287 H   0  0  0  0  0  0  0  0  0  0  0  0
   -1.0717    4.7834   -2.6967 H   0  0  0  0  0  0  0  0  0  0  0  0
   -0.4410    4.9872   -0.2855 H   0  0  0  0  0  0  0  0  0  0  0  0
    1.0777    4.1410   -0.5882 H   0  0  0  0  0  0  0  0  0  0  0  0
    2.4263    6.8819   -2.6832 H   0  0  0  0  0  0  0  0  0  0  0  0
    2.8198    5.2890   -2.0219 H   0  0  0  0  0  0  0  0  0  0  0  0
    0.6488    5.8926   -4.1220 H   0  0  0  0  0  0  0  0  0  0  0  0
    2.1777    5.0499   -4.4163 H   0  0  0  0  0  0  0  0  0  0  0  0
   -0.7579    7.0803   -0.8810 H   0  0  0  0  0  0  0  0  0  0  0  0
   -0.2547    7.3678   -2.5614 H   0  0  0  0  0  0  0  0  0  0  0  0
    0.1270    9.3407   -0.9997 H   0  0  0  0  0  0  0  0  0  0  0  0
    1.6123    8.7979   -1.8057 H   0  0  0  0  0  0  0  0  0  0  0  0
    1.6744    7.3534    0.1788 H   0  0  0  0  0  0  0  0  0  0  0  0
  1  2  2  0
  1  6  1  0
  1 31  1  0
  2  3  1  0
  2 18  1  0
  3  4  2  0
  3 11  1  0
  4  5  1  0
  4 32  1  0
  5  6  2  0
  5 33  1  0
  6  7  1  0
  7  8  1  0
  7  9  1  0
  7 10  1  0
 11 12  1  0
 12 13  2  0
 12 17  1  0
 13 14  1  0
 13 18  1  0
 14 15  2  0
 14 34  1  0
 15 16  1  0
 15 35  1  0
 16 17  2  0
 16 36  1  0
 17 37  1  0
 18 19  2  0
 19 20  1  0
 19 38  1  0
 20 21  1  0
 20 39  1  0
 20 40  1  0
 21 22  1  0
 21 41  1  0
 21 42  1  0
 22 23  1  0
 22 27  1  0
 23 24  1  0
 23 43  1  0
 23 44  1  0
 24 25  1  0
 24 45  1  0
 24 46  1  0
 25 26  1  0
 25 28  1  0
 26 27  1  0
 26 47  1  0
 26 48  1  0
 27 49  1  0
 27 50  1  0
 28 29  1  0
 28 51  1  0
 28 52  1  0
 29 30  1  0
 29 53  1  0
 29 54  1  0
 30 55  1  0
M  END

