rmsd170.gzmat
 OpenBabel08211713393D

 55 58  0  0  0  0  0  0  0  0999 V2000
    0.0000    0.0000    0.0000 C   0  0  0  0  0  0  0  0  0  0  0  0
    1.3969    0.0000    0.0000 C   0  0  0  0  0  0  0  0  0  0  0  0
    2.0837    0.0000    1.2203 C   0  0  0  0  0  0  0  0  0  0  0  0
    1.3927    0.0927    2.4262 C   0  0  0  0  0  0  0  0  0  0  0  0
    0.0006    0.1349    2.4196 C   0  0  0  0  0  0  0  0  0  0  0  0
   -0.6896    0.0627    1.2089 C   0  0  0  0  0  0  0  0  0  0  0  0
   -2.1899    0.0814    1.2193 C   0  0  0  0  0  0  0  0  0  0  0  0
   -2.7487   -0.5424    2.2565 F   0  0  0  0  0  0  0  0  0  0  0  0
   -2.7006    1.3146    1.2580 F   0  0  0  0  0  0  0  0  0  0  0  0
   -2.7704   -0.4792    0.1582 F   0  0  0  0  0  0  0  0  0  0  0  0
    3.8463   -0.1474    1.2432 S   0  0  0  0  0  0  0  0  0  0  0  0
    4.1218   -1.0982   -0.2260 C   0  0  0  0  0  0  0  0  0  0  0  0
    3.2497   -0.9807   -1.3132 C   0  0  0  0  0  0  0  0  0  0  0  0
    3.4516   -1.7745   -2.4442 C   0  0  0  0  0  0  0  0  0  0  0  0
    4.5313   -2.6525   -2.4929 C   0  0  0  0  0  0  0  0  0  0  0  0
    5.4128   -2.7411   -1.4162 C   0  0  0  0  0  0  0  0  0  0  0  0
    5.2081   -1.9670   -0.2752 C   0  0  0  0  0  0  0  0  0  0  0  0
    2.1539   -0.0037   -1.2554 C   0  0  0  0  0  0  0  0  0  0  0  0
    1.9615    0.8622   -2.2640 C   0  0  0  0  0  0  0  0  0  0  0  0
    0.9789    1.9782   -2.2629 C   0  0  0  0  0  0  0  0  0  0  0  0
   -0.1493    1.6962   -3.2808 C   0  0  0  0  0  0  0  0  0  0  0  0
   -1.0063    2.9033   -3.3418 N   0  0  0  0  0  0  0  0  0  0  0  0
   -1.6645    3.0643   -4.6534 C   0  0  0  0  0  0  0  0  0  0  0  0
   -2.8536    2.0981   -4.8731 C   0  0  0  0  0  0  0  0  0  0  0  0
   -3.8649    2.1595   -3.7979 N   0  0  0  0  0  0  0  0  0  0  0  0
   -3.2127    1.9929   -2.4822 C   0  0  0  0  0  0  0  0  0  0  0  0
   -2.0093    2.9403   -2.2574 C   0  0  0  0  0  0  0  0  0  0  0  0
   -4.6938    3.3868   -3.8689 C   0  0  0  0  0  0  0  0  0  0  0  0
   -6.0783    3.0564   -3.2702 C   0  0  0  0  0  0  0  0  0  0  0  0
   -6.7096    2.0427   -4.0206 O   0  0  0  0  0  0  0  0  0  0  0  0
   -0.5272   -0.0498   -0.9557 H   0  0  0  0  0  0  0  0  0  0  0  0
    1.9237    0.1232    3.3798 H   0  0  0  0  0  0  0  0  0  0  0  0
   -0.5338    0.2137    3.3683 H   0  0  0  0  0  0  0  0  0  0  0  0
    2.7619   -1.7083   -3.2845 H   0  0  0  0  0  0  0  0  0  0  0  0
    4.6876   -3.2711   -3.3754 H   0  0  0  0  0  0  0  0  0  0  0  0
    6.2600   -3.4236   -1.4614 H   0  0  0  0  0  0  0  0  0  0  0  0
    5.8979   -2.0575    0.5654 H   0  0  0  0  0  0  0  0  0  0  0  0
    2.5788    0.8063   -3.1656 H   0  0  0  0  0  0  0  0  0  0  0  0
    1.4845    2.9325   -2.5382 H   0  0  0  0  0  0  0  0  0  0  0  0
    0.5553    2.1733   -1.2578 H   0  0  0  0  0  0  0  0  0  0  0  0
   -0.7046    0.7771   -3.0007 H   0  0  0  0  0  0  0  0  0  0  0  0
    0.2972    1.5045   -4.2802 H   0  0  0  0  0  0  0  0  0  0  0  0
   -0.9134    2.9459   -5.4605 H   0  0  0  0  0  0  0  0  0  0  0  0
   -2.0147    4.1190   -4.7130 H   0  0  0  0  0  0  0  0  0  0  0  0
   -3.3408    2.2987   -5.8493 H   0  0  0  0  0  0  0  0  0  0  0  0
   -2.4894    1.0473   -4.9187 H   0  0  0  0  0  0  0  0  0  0  0  0
   -3.9649    2.1339   -1.6780 H   0  0  0  0  0  0  0  0  0  0  0  0
   -2.8867    0.9307   -2.4140 H   0  0  0  0  0  0  0  0  0  0  0  0
   -2.3589    3.9937   -2.1750 H   0  0  0  0  0  0  0  0  0  0  0  0
   -1.5156    2.7087   -1.2909 H   0  0  0  0  0  0  0  0  0  0  0  0
   -4.8309    3.6823   -4.9325 H   0  0  0  0  0  0  0  0  0  0  0  0
   -4.2448    4.2575   -3.3522 H   0  0  0  0  0  0  0  0  0  0  0  0
   -6.7698    3.9143   -3.3481 H   0  0  0  0  0  0  0  0  0  0  0  0
   -6.0100    2.7208   -2.2203 H   0  0  0  0  0  0  0  0  0  0  0  0
   -6.0572    1.3240   -4.1924 H   0  0  0  0  0  0  0  0  0  0  0  0
  1  2  2  0  0  0  0
  1  6  1  0  0  0  0
  2  3  1  0  0  0  0
  3 11  1  0  0  0  0
  3  4  2  0  0  0  0
  4 32  1  0  0  0  0
  5  4  1  0  0  0  0
  5 33  1  0  0  0  0
  6  7  1  0  0  0  0
  6  5  2  0  0  0  0
  7  9  1  0  0  0  0
  7  8  1  0  0  0  0
 10  7  1  0  0  0  0
 12 11  1  0  0  0  0
 13 18  1  0  0  0  0
 13 12  2  0  0  0  0
 14 13  1  0  0  0  0
 15 14  2  0  0  0  0
 15 16  1  0  0  0  0
 16 17  2  0  0  0  0
 17 12  1  0  0  0  0
 17 37  1  0  0  0  0
 18  2  1  0  0  0  0
 19 20  1  0  0  0  0
 19 18  2  0  0  0  0
 20 40  1  0  0  0  0
 21 41  1  0  0  0  0
 21 20  1  0  0  0  0
 22 21  1  0  0  0  0
 22 27  1  0  0  0  0
 23 22  1  0  0  0  0
 24 23  1  0  0  0  0
 24 25  1  0  0  0  0
 25 26  1  0  0  0  0
 26 48  1  0  0  0  0
 26 27  1  0  0  0  0
 26 47  1  0  0  0  0
 27 49  1  0  0  0  0
 27 50  1  0  0  0  0
 28 25  1  0  0  0  0
 28 52  1  0  0  0  0
 28 29  1  0  0  0  0
 29 54  1  0  0  0  0
 30 29  1  0  0  0  0
 31  1  1  0  0  0  0
 34 14  1  0  0  0  0
 35 15  1  0  0  0  0
 36 16  1  0  0  0  0
 38 19  1  0  0  0  0
 39 20  1  0  0  0  0
 42 21  1  0  0  0  0
 43 23  1  0  0  0  0
 44 23  1  0  0  0  0
 45 24  1  0  0  0  0
 46 24  1  0  0  0  0
 51 28  1  0  0  0  0
 53 29  1  0  0  0  0
 55 30  1  0  0  0  0
M  END
$$$$
