
     RDKit          3D

 55 58  0  0  0  0  0  0  0  0999 V2000
   -0.0105    0.1290   -0.1561 C   0  0  0  0  0  0  0  0  0  0  0  0
    1.3799   -0.0085   -0.0574 C   0  0  0  0  0  0  0  0  0  0  0  0
    1.9387   -0.1961    1.2270 C   0  0  0  0  0  0  0  0  0  0  0  0
    1.1264   -0.1669    2.3695 C   0  0  0  0  0  0  0  0  0  0  0  0
   -0.2487    0.0284    2.2539 C   0  0  0  0  0  0  0  0  0  0  0  0
   -0.8157    0.1628    0.9835 C   0  0  0  0  0  0  0  0  0  0  0  0
   -2.2941    0.3506    0.7895 C   0  0  0  0  0  0  0  0  0  0  0  0
   -2.9728    0.3421    1.9473 F   0  0  0  0  0  0  0  0  0  0  0  0
   -2.5695    1.5205    0.1721 F   0  0  0  0  0  0  0  0  0  0  0  0
   -2.8227   -0.6177    0.0079 F   0  0  0  0  0  0  0  0  0  0  0  0
    3.6776   -0.4462    1.4467 S   0  0  0  0  0  0  0  0  0  0  0  0
    4.0883   -1.2276   -0.0951 C   0  0  0  0  0  0  0  0  0  0  0  0
    3.3664   -0.9533   -1.2752 C   0  0  0  0  0  0  0  0  0  0  0  0
    3.7541   -1.6171   -2.4522 C   0  0  0  0  0  0  0  0  0  0  0  0
    4.8472   -2.4816   -2.4740 C   0  0  0  0  0  0  0  0  0  0  0  0
    5.5723   -2.7158   -1.3012 C   0  0  0  0  0  0  0  0  0  0  0  0
    5.1860   -2.0992   -0.1123 C   0  0  0  0  0  0  0  0  0  0  0  0
    2.2451    0.0203   -1.2626 C   0  0  0  0  0  0  0  0  0  0  0  0
    2.0805    0.8805   -2.2953 C   0  0  0  0  0  0  0  0  0  0  0  0
    1.0745    1.9796   -2.4578 C   0  0  0  0  0  0  0  0  0  0  0  0
   -0.0199    1.7077   -3.5154 C   0  0  0  0  0  0  0  0  0  0  0  0
   -0.9050    0.6087   -3.1511 N   0  0  0  0  0  0  0  0  0  0  0  0
   -2.3423    0.8681   -3.2221 C   0  0  0  0  0  0  0  0  0  0  0  0
   -2.8831    0.7182   -4.6489 C   0  0  0  0  0  0  0  0  0  0  0  0
   -2.5663   -0.5890   -5.2282 N   0  0  0  0  0  0  0  0  0  0  0  0
   -1.1251   -0.8523   -5.1537 C   0  0  0  0  0  0  0  0  0  0  0  0
   -0.5706   -0.6910   -3.7307 C   0  0  0  0  0  0  0  0  0  0  0  0
   -3.4101   -1.6975   -4.7759 C   0  0  0  0  0  0  0  0  0  0  0  0
   -3.5348   -2.7298   -5.9000 C   0  0  0  0  0  0  0  0  0  0  0  0
   -3.8849   -2.0943   -7.0997 O   0  0  0  0  0  0  0  0  0  0  0  0
   -0.4609    0.2273   -1.1488 H   0  0  0  0  0  0  0  0  0  0  0  0
    1.5770   -0.3149    3.3531 H   0  0  0  0  0  0  0  0  0  0  0  0
   -0.8785    0.0501    3.1439 H   0  0  0  0  0  0  0  0  0  0  0  0
    3.1767   -1.4496   -3.3637 H   0  0  0  0  0  0  0  0  0  0  0  0
    5.1279   -2.9810   -3.4039 H   0  0  0  0  0  0  0  0  0  0  0  0
    6.4269   -3.3962   -1.3062 H   0  0  0  0  0  0  0  0  0  0  0  0
    5.7283   -2.2982    0.8149 H   0  0  0  0  0  0  0  0  0  0  0  0
    2.8067    0.8010   -3.1124 H   0  0  0  0  0  0  0  0  0  0  0  0
    1.6153    2.8869   -2.7828 H   0  0  0  0  0  0  0  0  0  0  0  0
    0.5879    2.2180   -1.5013 H   0  0  0  0  0  0  0  0  0  0  0  0
    0.4605    1.5458   -4.5011 H   0  0  0  0  0  0  0  0  0  0  0  0
   -0.6162    2.6277   -3.6211 H   0  0  0  0  0  0  0  0  0  0  0  0
   -2.5503    1.8701   -2.8167 H   0  0  0  0  0  0  0  0  0  0  0  0
   -2.8526    0.1517   -2.5551 H   0  0  0  0  0  0  0  0  0  0  0  0
   -3.9740    0.8674   -4.6756 H   0  0  0  0  0  0  0  0  0  0  0  0
   -2.4336    1.4956   -5.2935 H   0  0  0  0  0  0  0  0  0  0  0  0
   -0.9174   -1.8629   -5.5377 H   0  0  0  0  0  0  0  0  0  0  0  0
   -0.6138   -0.1451   -5.8304 H   0  0  0  0  0  0  0  0  0  0  0  0
   -0.9855   -1.4777   -3.0756 H   0  0  0  0  0  0  0  0  0  0  0  0
    0.5213   -0.8235   -3.7191 H   0  0  0  0  0  0  0  0  0  0  0  0
   -4.4106   -1.2870   -4.5691 H   0  0  0  0  0  0  0  0  0  0  0  0
   -3.0591   -2.1820   -3.8424 H   0  0  0  0  0  0  0  0  0  0  0  0
   -4.3139   -3.4664   -5.6403 H   0  0  0  0  0  0  0  0  0  0  0  0
   -2.5839   -3.2986   -5.9968 H   0  0  0  0  0  0  0  0  0  0  0  0
   -3.4155   -1.2408   -7.0486 H   0  0  0  0  0  0  0  0  0  0  0  0
  1  2  2  0
  1  6  1  0
  1 31  1  0
  2  3  1  0
  2 18  1  0
  3  4  2  0
  3 11  1  0
  4  5  1  0
  4 32  1  0
  5  6  2  0
  5 33  1  0
  6  7  1  0
  7  8  1  0
  7  9  1  0
  7 10  1  0
 11 12  1  0
 12 13  2  0
 12 17  1  0
 13 14  1  0
 13 18  1  0
 14 15  2  0
 14 34  1  0
 15 16  1  0
 15 35  1  0
 16 17  2  0
 16 36  1  0
 17 37  1  0
 18 19  2  0
 19 20  1  0
 19 38  1  0
 20 21  1  0
 20 39  1  0
 20 40  1  0
 21 22  1  0
 21 41  1  0
 21 42  1  0
 22 23  1  0
 22 27  1  0
 23 24  1  0
 23 43  1  0
 23 44  1  0
 24 25  1  0
 24 45  1  0
 24 46  1  0
 25 26  1  0
 25 28  1  0
 26 27  1  0
 26 47  1  0
 26 48  1  0
 27 49  1  0
 27 50  1  0
 28 29  1  0
 28 51  1  0
 28 52  1  0
 29 30  1  0
 29 53  1  0
 29 54  1  0
 30 55  1  0
M  END

