rmsd227.gzmat
 OpenBabel08211713393D

 55 58  0  0  0  0  0  0  0  0999 V2000
    0.0000    0.0000    0.0000 C   0  0  0  0  0  0  0  0  0  0  0  0
    1.3965    0.0000    0.0000 C   0  0  0  0  0  0  0  0  0  0  0  0
    2.0806    0.0000    1.2230 C   0  0  0  0  0  0  0  0  0  0  0  0
    1.3870    0.0903    2.4272 C   0  0  0  0  0  0  0  0  0  0  0  0
   -0.0058    0.1334    2.4198 C   0  0  0  0  0  0  0  0  0  0  0  0
   -0.6928    0.0607    1.2085 C   0  0  0  0  0  0  0  0  0  0  0  0
   -2.1932    0.0625    1.1829 C   0  0  0  0  0  0  0  0  0  0  0  0
   -2.7882   -0.2318    2.3382 F   0  0  0  0  0  0  0  0  0  0  0  0
   -2.7162    1.2409    0.8360 F   0  0  0  0  0  0  0  0  0  0  0  0
   -2.7267   -0.8001    0.3172 F   0  0  0  0  0  0  0  0  0  0  0  0
    3.8441   -0.1407    1.2576 S   0  0  0  0  0  0  0  0  0  0  0  0
    4.1363   -1.0861   -0.2107 C   0  0  0  0  0  0  0  0  0  0  0  0
    3.2652   -0.9749   -1.2986 C   0  0  0  0  0  0  0  0  0  0  0  0
    3.4736   -1.7690   -2.4288 C   0  0  0  0  0  0  0  0  0  0  0  0
    4.5641   -2.6331   -2.4800 C   0  0  0  0  0  0  0  0  0  0  0  0
    5.4482   -2.7101   -1.4044 C   0  0  0  0  0  0  0  0  0  0  0  0
    5.2324   -1.9428   -0.2613 C   0  0  0  0  0  0  0  0  0  0  0  0
    2.1598   -0.0059   -1.2510 C   0  0  0  0  0  0  0  0  0  0  0  0
    1.9696    0.8426   -2.2747 C   0  0  0  0  0  0  0  0  0  0  0  0
    0.9484    1.9218   -2.3356 C   0  0  0  0  0  0  0  0  0  0  0  0
   -0.0837    1.5776   -3.4331 C   0  0  0  0  0  0  0  0  0  0  0  0
   -1.0534    2.6946   -3.5230 N   0  0  0  0  0  0  0  0  0  0  0  0
   -1.6271    2.8237   -4.8782 C   0  0  0  0  0  0  0  0  0  0  0  0
   -2.6393    1.7043   -5.2209 C   0  0  0  0  0  0  0  0  0  0  0  0
   -3.7269    1.5713   -4.2313 N   0  0  0  0  0  0  0  0  0  0  0  0
   -3.1744    1.4742   -2.8643 C   0  0  0  0  0  0  0  0  0  0  0  0
   -2.1399    2.5762   -2.5283 C   0  0  0  0  0  0  0  0  0  0  0  0
   -4.7497    2.6370   -4.3540 C   0  0  0  0  0  0  0  0  0  0  0  0
   -6.1135    1.9979   -4.0098 C   0  0  0  0  0  0  0  0  0  0  0  0
   -6.4108    0.9607   -4.9186 O   0  0  0  0  0  0  0  0  0  0  0  0
   -0.5323   -0.0498   -0.9532 H   0  0  0  0  0  0  0  0  0  0  0  0
    1.9172    0.1157    3.3818 H   0  0  0  0  0  0  0  0  0  0  0  0
   -0.5374    0.2125    3.3699 H   0  0  0  0  0  0  0  0  0  0  0  0
    2.7797   -1.7122   -3.2666 H   0  0  0  0  0  0  0  0  0  0  0  0
    4.7271   -3.2497   -3.3629 H   0  0  0  0  0  0  0  0  0  0  0  0
    6.3063   -3.3787   -1.4529 H   0  0  0  0  0  0  0  0  0  0  0  0
    5.9218   -2.0296    0.5799 H   0  0  0  0  0  0  0  0  0  0  0  0
    2.6130    0.7857   -3.1590 H   0  0  0  0  0  0  0  0  0  0  0  0
    1.4271    2.8980   -2.5760 H   0  0  0  0  0  0  0  0  0  0  0  0
    0.4466    2.0983   -1.3646 H   0  0  0  0  0  0  0  0  0  0  0  0
   -0.5616    0.5988   -3.2176 H   0  0  0  0  0  0  0  0  0  0  0  0
    0.4432    1.4632   -4.4051 H   0  0  0  0  0  0  0  0  0  0  0  0
   -0.8061    2.8500   -5.6235 H   0  0  0  0  0  0  0  0  0  0  0  0
   -2.1233    3.8180   -4.9315 H   0  0  0  0  0  0  0  0  0  0  0  0
   -3.0743    1.8687   -6.2280 H   0  0  0  0  0  0  0  0  0  0  0  0
   -2.1204    0.7208   -5.2664 H   0  0  0  0  0  0  0  0  0  0  0  0
   -4.0059    1.4944   -2.1287 H   0  0  0  0  0  0  0  0  0  0  0  0
   -2.7093    0.4670   -2.7732 H   0  0  0  0  0  0  0  0  0  0  0  0
   -2.6393    3.5685   -2.4687 H   0  0  0  0  0  0  0  0  0  0  0  0
   -1.6987    2.3981   -1.5263 H   0  0  0  0  0  0  0  0  0  0  0  0
   -4.7872    3.0137   -5.3991 H   0  0  0  0  0  0  0  0  0  0  0  0
   -4.5575    3.5162   -3.7085 H   0  0  0  0  0  0  0  0  0  0  0  0
   -6.9446    2.7124   -4.1406 H   0  0  0  0  0  0  0  0  0  0  0  0
   -6.1292    1.5809   -2.9874 H   0  0  0  0  0  0  0  0  0  0  0  0
   -5.6150    0.3864   -5.0134 H   0  0  0  0  0  0  0  0  0  0  0  0
  1  2  2  0  0  0  0
  1  6  1  0  0  0  0
  2  3  1  0  0  0  0
  3 11  1  0  0  0  0
  3  4  2  0  0  0  0
  4 32  1  0  0  0  0
  5  4  1  0  0  0  0
  5 33  1  0  0  0  0
  6  5  2  0  0  0  0
  7  6  1  0  0  0  0
  7  8  1  0  0  0  0
  9  7  1  0  0  0  0
 10  7  1  0  0  0  0
 12 11  1  0  0  0  0
 13 18  1  0  0  0  0
 13 12  2  0  0  0  0
 14 13  1  0  0  0  0
 15 14  2  0  0  0  0
 15 16  1  0  0  0  0
 16 17  2  0  0  0  0
 17 12  1  0  0  0  0
 17 37  1  0  0  0  0
 18  2  1  0  0  0  0
 19 18  2  0  0  0  0
 20 19  1  0  0  0  0
 20 40  1  0  0  0  0
 21 41  1  0  0  0  0
 21 20  1  0  0  0  0
 22 21  1  0  0  0  0
 22 27  1  0  0  0  0
 23 22  1  0  0  0  0
 24 23  1  0  0  0  0
 24 25  1  0  0  0  0
 25 26  1  0  0  0  0
 26 48  1  0  0  0  0
 26 27  1  0  0  0  0
 26 47  1  0  0  0  0
 27 49  1  0  0  0  0
 27 50  1  0  0  0  0
 28 25  1  0  0  0  0
 28 29  1  0  0  0  0
 28 52  1  0  0  0  0
 29 54  1  0  0  0  0
 30 29  1  0  0  0  0
 31  1  1  0  0  0  0
 34 14  1  0  0  0  0
 35 15  1  0  0  0  0
 36 16  1  0  0  0  0
 38 19  1  0  0  0  0
 39 20  1  0  0  0  0
 42 21  1  0  0  0  0
 43 23  1  0  0  0  0
 44 23  1  0  0  0  0
 45 24  1  0  0  0  0
 46 24  1  0  0  0  0
 51 28  1  0  0  0  0
 53 29  1  0  0  0  0
 55 30  1  0  0  0  0
M  END
$$$$
