55
rmsd221.gzmat
C          0.00000        0.00000        0.00000
C          1.39780        0.00000        0.00000
C          2.08510        0.00000        1.21980
C          1.39470        0.08140        2.42760
C          0.00350        0.12930        2.42080
C         -0.68710        0.07280        1.20820
C         -2.18700        0.09210        1.24510
F         -2.71870       -0.94250        1.89790
F         -2.69050        1.16620        1.85720
F         -2.79670        0.07980        0.06070
S          3.84860       -0.12740        1.24580
C          4.14330       -1.05630       -0.23230
C          3.26860       -0.94880       -1.31810
C          3.49130       -1.72730       -2.45650
C          4.59520       -2.57370       -2.51610
C          5.47980       -2.64970       -1.44080
C          5.25160       -1.89710       -0.29000
C          2.14750       -0.00020       -1.25860
C          1.92090        0.84160       -2.28120
C          0.89540        1.91780       -2.31150
C          1.54360        3.22850       -2.81180
N          0.47970        4.25330       -2.93880
C          0.15960        4.90020       -1.64890
C          1.25210        5.88380       -1.16380
N          1.62550        6.90380       -2.16550
C          1.91780        6.26730       -3.46650
C          0.82030        5.28340       -3.94170
C          0.62100        7.98850       -2.27470
C          1.36090        9.27020       -2.71700
O          2.35240        9.61830       -1.77610
H         -0.52730       -0.06110       -0.95560
H          1.92610        0.09730        3.38150
H         -0.53700        0.19770        3.36720
H          2.79880       -1.67290       -3.29530
H          4.76820       -3.17820       -3.40530
H          6.34710       -3.30560       -1.49600
H          5.94030       -1.98280        0.55210
H          2.53910        0.78320       -3.18300
H          0.42490        2.09010       -1.32250
H          0.05580        1.64040       -2.98820
H          2.00840        3.05540       -3.80640
H          2.36510        3.52830       -2.12710
H         -0.02020        4.11780       -0.88200
H         -0.80780        5.43390       -1.78030
H          0.93190        6.38480       -0.22680
H          2.18200        5.32620       -0.90870
H          2.08360        7.05260       -4.23210
H          2.88740        5.73180       -3.35540
H         -0.11740        5.83480       -4.17680
H          1.12710        4.79020       -4.88680
H          0.16520        8.17050       -1.27600
H         -0.21170        7.75930       -2.96760
H          0.68870       10.14620       -2.73060
H          1.84570        9.15360       -3.70200
H          2.83930        8.80220       -1.51220
