rmsd192.gzmat
 OpenBabel08211713393D

 55 58  0  0  0  0  0  0  0  0999 V2000
    0.0000    0.0000    0.0000 C   0  0  0  0  0  0  0  0  0  0  0  0
    1.3976    0.0000    0.0000 C   0  0  0  0  0  0  0  0  0  0  0  0
    2.0787    0.0000    1.2226 C   0  0  0  0  0  0  0  0  0  0  0  0
    1.3840    0.0841    2.4278 C   0  0  0  0  0  0  0  0  0  0  0  0
   -0.0076    0.1250    2.4188 C   0  0  0  0  0  0  0  0  0  0  0  0
   -0.6939    0.0568    1.2048 C   0  0  0  0  0  0  0  0  0  0  0  0
   -2.1940    0.0768    1.2053 C   0  0  0  0  0  0  0  0  0  0  0  0
   -2.7540   -0.5690    2.2305 F   0  0  0  0  0  0  0  0  0  0  0  0
   -2.7089    1.3062    1.2708 F   0  0  0  0  0  0  0  0  0  0  0  0
   -2.7754   -0.4682    0.1370 F   0  0  0  0  0  0  0  0  0  0  0  0
    3.8435   -0.1302    1.2571 S   0  0  0  0  0  0  0  0  0  0  0  0
    4.1374   -1.0757   -0.2110 C   0  0  0  0  0  0  0  0  0  0  0  0
    3.2680   -0.9678   -1.3009 C   0  0  0  0  0  0  0  0  0  0  0  0
    3.4847   -1.7605   -2.4309 C   0  0  0  0  0  0  0  0  0  0  0  0
    4.5778   -2.6217   -2.4782 C   0  0  0  0  0  0  0  0  0  0  0  0
    5.4576   -2.6979   -1.3992 C   0  0  0  0  0  0  0  0  0  0  0  0
    5.2355   -1.9303   -0.2572 C   0  0  0  0  0  0  0  0  0  0  0  0
    2.1549   -0.0077   -1.2550 C   0  0  0  0  0  0  0  0  0  0  0  0
    1.9472    0.8265   -2.2881 C   0  0  0  0  0  0  0  0  0  0  0  0
    0.9337    1.9147   -2.3489 C   0  0  0  0  0  0  0  0  0  0  0  0
   -0.0646    1.6956   -3.5108 C   0  0  0  0  0  0  0  0  0  0  0  0
   -1.0663    0.6894   -3.0881 N   0  0  0  0  0  0  0  0  0  0  0  0
   -2.4401    1.0343   -3.5026 C   0  0  0  0  0  0  0  0  0  0  0  0
   -2.6987    0.7955   -5.0094 C   0  0  0  0  0  0  0  0  0  0  0  0
   -2.3849   -0.5830   -5.4423 N   0  0  0  0  0  0  0  0  0  0  0  0
   -1.0121   -0.9435   -5.0277 C   0  0  0  0  0  0  0  0  0  0  0  0
   -0.7259   -0.6783   -3.5296 C   0  0  0  0  0  0  0  0  0  0  0  0
   -3.3946   -1.5616   -4.9706 C   0  0  0  0  0  0  0  0  0  0  0  0
   -3.4508   -2.7128   -5.9971 C   0  0  0  0  0  0  0  0  0  0  0  0
   -3.7914   -2.2227   -7.2752 O   0  0  0  0  0  0  0  0  0  0  0  0
   -0.5317   -0.0319   -0.9615 H   0  0  0  0  0  0  0  0  0  0  0  0
    1.9127    0.1081    3.3823 H   0  0  0  0  0  0  0  0  0  0  0  0
   -0.5454    0.2008    3.3653 H   0  0  0  0  0  0  0  0  0  0  0  0
    2.7965   -1.7045   -3.2726 H   0  0  0  0  0  0  0  0  0  0  0  0
    4.7461   -3.2379   -3.3602 H   0  0  0  0  0  0  0  0  0  0  0  0
    6.3162   -3.3659   -1.4439 H   0  0  0  0  0  0  0  0  0  0  0  0
    5.9208   -2.0164    0.5874 H   0  0  0  0  0  0  0  0  0  0  0  0
    2.5792    0.7591   -3.1796 H   0  0  0  0  0  0  0  0  0  0  0  0
    1.4510    2.8880   -2.4921 H   0  0  0  0  0  0  0  0  0  0  0  0
    0.3701    2.0257   -1.3981 H   0  0  0  0  0  0  0  0  0  0  0  0
    0.4761    1.4067   -4.4351 H   0  0  0  0  0  0  0  0  0  0  0  0
   -0.5627    2.6636   -3.7348 H   0  0  0  0  0  0  0  0  0  0  0  0
   -2.6570    2.0872   -3.2286 H   0  0  0  0  0  0  0  0  0  0  0  0
   -3.1327    0.4115   -2.8911 H   0  0  0  0  0  0  0  0  0  0  0  0
   -3.7523    1.0300   -5.2671 H   0  0  0  0  0  0  0  0  0  0  0  0
   -2.0705    1.4809   -5.6205 H   0  0  0  0  0  0  0  0  0  0  0  0
   -0.8235   -2.0100   -5.2695 H   0  0  0  0  0  0  0  0  0  0  0  0
   -0.3145   -0.3551   -5.6635 H   0  0  0  0  0  0  0  0  0  0  0  0
   -1.3172   -1.3811   -2.8989 H   0  0  0  0  0  0  0  0  0  0  0  0
    0.3420   -0.8819   -3.2999 H   0  0  0  0  0  0  0  0  0  0  0  0
   -4.3936   -1.0736   -4.9295 H   0  0  0  0  0  0  0  0  0  0  0  0
   -3.1927   -1.9560   -3.9549 H   0  0  0  0  0  0  0  0  0  0  0  0
   -4.2594   -3.4280   -5.7620 H   0  0  0  0  0  0  0  0  0  0  0  0
   -2.4886   -3.2476   -6.0776 H   0  0  0  0  0  0  0  0  0  0  0  0
   -3.2826   -1.3952   -7.4435 H   0  0  0  0  0  0  0  0  0  0  0  0
  1  6  1  0  0  0  0
  2  1  2  0  0  0  0
  2  3  1  0  0  0  0
  3 11  1  0  0  0  0
  3  4  2  0  0  0  0
  4 32  1  0  0  0  0
  5  4  1  0  0  0  0
  5 33  1  0  0  0  0
  6  7  1  0  0  0  0
  6  5  2  0  0  0  0
  7  9  1  0  0  0  0
  7  8  1  0  0  0  0
 10  7  1  0  0  0  0
 12 11  1  0  0  0  0
 13 18  1  0  0  0  0
 13 12  2  0  0  0  0
 14 13  1  0  0  0  0
 15 14  2  0  0  0  0
 15 16  1  0  0  0  0
 16 17  2  0  0  0  0
 17 12  1  0  0  0  0
 17 37  1  0  0  0  0
 18  2  1  0  0  0  0
 19 18  2  0  0  0  0
 20 19  1  0  0  0  0
 20 40  1  0  0  0  0
 21 22  1  0  0  0  0
 21 20  1  0  0  0  0
 23 43  1  0  0  0  0
 23 22  1  0  0  0  0
 23 44  1  0  0  0  0
 24 23  1  0  0  0  0
 25 26  1  0  0  0  0
 25 24  1  0  0  0  0
 25 28  1  0  0  0  0
 26 27  1  0  0  0  0
 27 50  1  0  0  0  0
 27 22  1  0  0  0  0
 27 49  1  0  0  0  0
 28 51  1  0  0  0  0
 28 52  1  0  0  0  0
 29 53  1  0  0  0  0
 29 28  1  0  0  0  0
 30 29  1  0  0  0  0
 31  1  1  0  0  0  0
 34 14  1  0  0  0  0
 35 15  1  0  0  0  0
 36 16  1  0  0  0  0
 38 19  1  0  0  0  0
 39 20  1  0  0  0  0
 41 21  1  0  0  0  0
 42 21  1  0  0  0  0
 45 24  1  0  0  0  0
 46 24  1  0  0  0  0
 47 26  1  0  0  0  0
 48 26  1  0  0  0  0
 54 29  1  0  0  0  0
 55 30  1  0  0  0  0
M  END
$$$$
