55
rmsd188.gzmat
C          0.00000        0.00000        0.00000
C          1.39650        0.00000        0.00000
C          2.07580        0.00000        1.22400
C          1.37910        0.08200        2.42790
C         -0.01330        0.12680        2.41860
C         -0.69620        0.06380        1.20460
C         -2.19490        0.09140        1.15380
F         -2.81440       -0.12030        2.31570
F         -2.69060        1.25500        0.72740
F         -2.73380       -0.81600        0.33720
S          3.84080       -0.12730        1.26000
C          4.14000       -1.06620       -0.21120
C          3.27000       -0.96080       -1.30100
C          3.49010       -1.75170       -2.43160
C          4.58800       -2.60660       -2.48000
C          5.46900       -2.67890       -1.40140
C          5.24360       -1.91370       -0.25910
C          2.15330       -0.00550       -1.25500
C          1.93960        0.82610       -2.28900
C          0.91340        1.90260       -2.35150
C         -0.09380        1.65510       -3.50030
N         -1.02870        0.58490       -3.08160
C         -2.43920        0.89530       -3.38240
C         -2.79190        0.73520       -4.88030
N         -2.45070       -0.59770       -5.42100
C         -1.04150       -0.92450       -5.11640
C         -0.66590       -0.73860       -3.62590
C         -3.38940       -1.64920       -4.95890
C         -3.45680       -2.73540       -6.05360
O         -3.91540       -2.18660       -7.26930
H         -0.53600       -0.03890       -0.96070
H          1.90690        0.10210        3.38310
H         -0.54740        0.20140        3.36690
H          2.80090       -1.69960       -3.27300
H          4.75970       -3.22000       -3.36300
H          6.33130       -3.34200       -1.44710
H          5.93080       -1.99430        0.58470
H          2.57250        0.76310       -3.17980
H          1.41510        2.88150       -2.51070
H          0.35850        2.01600       -1.39620
H          0.44690        1.41380       -4.43820
H         -0.64510        2.59950       -3.69720
H         -2.67520        1.92050       -3.03040
H         -3.06440        0.20910       -2.76620
H         -3.86980        0.93610       -5.05120
H         -2.23880        1.48620       -5.48700
H         -0.82900       -1.96480       -5.43780
H         -0.41050       -0.26890       -5.75630
H         -1.18500       -1.50170       -3.00250
H          0.42140       -0.90800       -3.47750
H         -4.40400       -1.21080       -4.83160
H         -3.11330       -2.09660       -3.98330
H         -4.20580       -3.51090       -5.81290
H         -2.47520       -3.20610       -6.23550
H         -3.45880       -1.32630       -7.42160
