55

C         -0.05380       -0.00500       -0.21120
C          1.34230       -0.05780       -0.10020
C          1.89780       -0.18670        1.19260
C          1.07450       -0.17410        2.32760
C         -0.30640       -0.05650        2.19620
C         -0.87320        0.01100        0.91920
C         -2.36050        0.14010        0.74150
F         -3.04110       -0.22890        1.83600
F         -2.71850        1.41910        0.46980
F         -2.80880       -0.60310       -0.28880
S          3.64400       -0.34430        1.43120
C          4.11080       -1.13130       -0.09260
C          3.38950       -0.91090       -1.28350
C          3.82320       -1.56600       -2.44860
C          4.95970       -2.37330       -2.44600
C          5.68100       -2.55690       -1.26190
C          5.25080       -1.94630       -0.08470
C          2.22380        0.00820       -1.29180
C          2.04260        0.87980       -2.31100
C          0.98300        1.92880       -2.45740
C         -0.09380        1.56880       -3.49870
N         -1.07620        2.62840       -3.64860
C         -1.71480        2.71650       -4.95920
C         -2.83420        1.68200       -5.14520
N         -3.84070        1.75230       -4.08530
C         -3.20630        1.66150       -2.76480
C         -2.07850        2.68950       -2.58240
C         -4.82050        2.83170       -4.21410
C         -6.15090        2.38060       -3.60430
O         -6.50820        1.12280       -4.11050
H         -0.50690        0.00930       -1.20100
H          1.52290       -0.27650        3.31790
H         -0.94480       -0.05190        3.08030
H          3.24690       -1.43760       -3.36710
H          5.27760       -2.86820       -3.36620
H          6.56870       -3.19320       -1.24890
H          5.79240       -2.10550        0.85050
H          2.78330        0.84580       -3.11780
H          1.44730        2.87200       -2.78930
H          0.50690        2.13520       -1.48810
H         -0.53700        0.58330       -3.23450
H          0.39820        1.41520       -4.47270
H         -0.94910        2.60670       -5.74440
H         -2.13950        3.73140       -5.06690
H         -3.32940        1.80960       -6.12100
H         -2.39860        0.66640       -5.13570
H         -3.96490        1.78240       -1.97830
H         -2.80730        0.64050       -2.64630
H         -2.50470        3.70800       -2.57060
H         -1.59670        2.54630       -1.60490
H         -4.97590        3.01230       -5.28940
H         -4.49700        3.79320       -3.76550
H         -6.94050        3.10850       -3.85730
H         -6.07190        2.37190       -2.49530
H         -5.65170        0.66390       -4.19680
