55

C         -0.01050        0.12900       -0.15610
C          1.37990       -0.00850       -0.05740
C          1.93870       -0.19610        1.22700
C          1.12640       -0.16690        2.36950
C         -0.24870        0.02840        2.25390
C         -0.81570        0.16280        0.98350
C         -2.29410        0.35060        0.78950
F         -2.97280        0.34210        1.94730
F         -2.56950        1.52050        0.17210
F         -2.82270       -0.61770        0.00790
S          3.67760       -0.44620        1.44670
C          4.08830       -1.22760       -0.09510
C          3.36640       -0.95330       -1.27520
C          3.75410       -1.61710       -2.45220
C          4.84720       -2.48160       -2.47400
C          5.57230       -2.71580       -1.30120
C          5.18600       -2.09920       -0.11230
C          2.24510        0.02030       -1.26260
C          2.08050        0.88050       -2.29530
C          1.07450        1.97960       -2.45780
C         -0.01990        1.70770       -3.51540
N         -0.90500        0.60870       -3.15110
C         -2.34230        0.86810       -3.22210
C         -2.88310        0.71820       -4.64890
N         -2.56630       -0.58900       -5.22820
C         -1.12510       -0.85230       -5.15370
C         -0.57060       -0.69100       -3.73070
C         -3.41010       -1.69750       -4.77590
C         -3.53480       -2.72980       -5.90000
O         -3.88490       -2.09430       -7.09970
H         -0.46090        0.22730       -1.14880
H          1.57700       -0.31490        3.35310
H         -0.87850        0.05010        3.14390
H          3.17670       -1.44960       -3.36370
H          5.12790       -2.98100       -3.40390
H          6.42690       -3.39620       -1.30620
H          5.72830       -2.29820        0.81490
H          2.80670        0.80100       -3.11240
H          1.61530        2.88690       -2.78280
H          0.58790        2.21800       -1.50130
H          0.46050        1.54580       -4.50110
H         -0.61620        2.62770       -3.62110
H         -2.55030        1.87010       -2.81670
H         -2.85260        0.15170       -2.55510
H         -3.97400        0.86740       -4.67560
H         -2.43360        1.49560       -5.29350
H         -0.91740       -1.86290       -5.53770
H         -0.61380       -0.14510       -5.83040
H         -0.98550       -1.47770       -3.07560
H          0.52130       -0.82350       -3.71910
H         -4.41060       -1.28700       -4.56910
H         -3.05910       -2.18200       -3.84240
H         -4.31390       -3.46640       -5.64030
H         -2.58390       -3.29860       -5.99680
H         -3.41550       -1.24080       -7.04860
