55

C         -0.01410        0.02800        0.09840
C          1.38670       -0.01350        0.04980
C          2.08810       -0.07180        1.27510
C          1.40030       -0.01280        2.49550
C          0.01220        0.08720        2.51840
C         -0.69830        0.09260        1.31350
C         -2.19700        0.22150        1.30670
F         -2.74520       -0.18070        2.46570
F         -2.58240        1.50030        1.11270
F         -2.75690       -0.50200        0.31910
S          3.85310       -0.19010        1.32160
C          4.16700       -1.03620       -0.20920
C          3.30990       -0.89070       -1.31880
C          3.63330       -1.58800       -2.49560
C          4.78820       -2.36310       -2.58650
C          5.64230       -2.47290       -1.48440
C          5.32600       -1.81980       -0.29420
C          2.11930       -0.00690       -1.23920
C          1.77900        0.77320       -2.29040
C          0.68790        1.79580       -2.38290
C          1.12890        3.02440       -3.19560
N          1.52520        2.68050       -4.55470
C          0.41720        2.41710       -5.47250
C         -0.22320        3.70460       -6.01640
N          0.76040        4.60640       -6.62660
C          1.86410        4.86800       -5.70050
C          2.50150        3.57560       -5.17140
C          1.15180        4.24440       -7.99000
C          0.09130        4.74980       -8.97250
O         -0.19220        6.09930       -8.72080
H         -0.58050       -0.00330       -0.83130
H          1.96100       -0.06310        3.43120
H         -0.52100        0.12940        3.46900
H          2.95590       -1.51710       -3.34890
H          5.01730       -2.89080       -3.51490
H          6.54570       -3.08410       -1.54370
H          5.97270       -1.92040        0.58040
H          2.39960        0.71450       -3.18970
H          0.35960        2.12630       -1.38520
H         -0.20940        1.35600       -2.85840
H          2.00240        3.47370       -2.69680
H          0.32130        3.78500       -3.14810
H         -0.34180        1.79840       -4.96940
H          0.80300        1.81300       -6.31250
H         -1.00520        3.46440       -6.75290
H         -0.72210        4.24770       -5.19520
H          2.61330        5.49900       -6.20420
H          1.46760        5.45440       -4.85230
H          2.98040        3.03800       -6.00990
H          3.29540        3.80190       -4.44190
H          1.32880        3.15940       -8.13740
H          2.10020        4.75900       -8.20980
H         -0.82010        4.11630       -8.90170
H          0.46450        4.64610      -10.00550
H         -0.12880        6.16670       -7.74990
