55
rmsd199.gzmat
C          0.00000        0.00000        0.00000
C          1.39740        0.00000        0.00000
C          2.08560        0.00000        1.21930
C          1.39590        0.09480        2.42640
C          0.00480        0.15100        2.41910
C         -0.68640        0.08720        1.20760
C         -2.18620        0.11410        1.24310
F         -2.72390       -0.93050        1.87440
F         -2.68530        1.17870        1.87510
F         -2.79440        0.12940        0.05780
S          3.84810       -0.14960        1.23870
C          4.12020       -1.09880       -0.23220
C          3.25010       -0.96940       -1.31950
C          3.45080       -1.75330       -2.45780
C          4.52660       -2.63540       -2.51270
C          5.40420       -2.73940       -1.43390
C          5.20060       -1.97500       -0.28610
C          2.15010        0.00260       -1.25720
C          1.94510        0.86320       -2.26820
C          0.93570        1.95570       -2.28920
C          1.64540        3.29940       -2.57070
N          0.61410        4.35880       -2.68470
C          0.13070        4.82830       -1.36930
C          1.14760        5.71640       -0.61030
N          1.67250        6.84540       -1.40690
C          2.13990        6.37200       -2.72570
C          1.09590        5.51020       -3.47630
C          0.70480        7.96330       -1.51650
C          0.88710        8.85890       -0.27120
O          2.20330        9.36280       -0.21320
H         -0.52640       -0.07180       -0.95520
H          1.92770        0.11500        3.37980
H         -0.53430        0.23010        3.36540
H          2.76270       -1.67450       -3.29870
H          4.68200       -3.24550       -3.40150
H          6.24790       -3.42610       -1.48350
H          5.88710       -2.07980        0.55570
H          2.57040        0.81250       -3.16540
H          0.36160        2.03240       -1.34470
H          0.17150        1.76990       -3.07720
H          2.20090        3.22950       -3.53100
H          2.39710        3.50270       -1.77920
H         -0.15120        3.95390       -0.74650
H         -0.81270        5.39000       -1.55130
H          0.69140        6.10530        0.32350
H          2.02430        5.10720       -0.29370
H          2.44200        7.24210       -3.34430
H          3.06680        5.78140       -2.54830
H          0.20620        6.12550       -3.73670
H          1.50900        5.14650       -4.43880
H         -0.34810        7.63330       -1.60970
H          0.92990        8.56750       -2.42290
H          0.68300        8.31330        0.66680
H          0.25850        9.76520       -0.32470
H          2.83180        8.62910       -0.40980
