55

C          0.36080        0.97270       -0.37490
C          1.71560        0.67000       -0.57130
C          2.63290        1.05560        0.42920
C          2.20900        1.80870        1.53500
C          0.87120        2.16290        1.67150
C         -0.05980        1.72540        0.72070
C         -1.51650        2.05260        0.90310
F         -1.68670        3.31090        1.35890
F         -2.20470        1.95130       -0.25180
F         -2.11390        1.23640        1.78900
S          4.34790        0.63690        0.30380
C          4.24140       -0.87750       -0.62400
C          3.20940       -1.08730       -1.56140
C          3.19540       -2.29830       -2.27230
C          4.19530       -3.25340       -2.09160
C          5.22630       -3.01890       -1.17620
C          5.24430       -1.83730       -0.43550
C          2.19890       -0.02580       -1.79190
C          1.83170        0.31920       -3.04760
C          0.96550        1.48230       -3.45380
C          1.63280        2.83510       -3.12470
N          0.73500        3.95620       -3.35120
C         -0.26050        4.15130       -2.29420
C          0.33550        4.81670       -1.04580
N          1.00430        6.08440       -1.34930
C          1.99340        5.90470       -2.41840
C          1.39530        5.22230       -3.65970
C          0.12070        7.23740       -1.52600
C          0.84390        8.50400       -1.05710
O          1.40690        8.29170        0.20920
H         -0.37270        0.62660       -1.10050
H          2.93580        2.10780        2.29300
H          0.54660        2.76500        2.52160
H          2.37890       -2.48510       -2.97310
H          4.16550       -4.18630       -2.65880
H          6.00910       -3.76520       -1.02360
H          6.03270       -1.65650        0.29850
H          2.30510       -0.24000       -3.86080
H         -0.01880        1.44730       -2.96750
H          0.76500        1.44770       -4.53440
H          2.51240        2.95690       -3.77600
H          2.02970        2.78920       -2.09130
H         -0.71970        3.18840       -2.02870
H         -1.07170        4.78340       -2.69670
H         -0.44100        4.98720       -0.28550
H          1.07770        4.14100       -0.58820
H          2.42630        6.88190       -2.68320
H          2.81980        5.28900       -2.02190
H          0.64880        5.89260       -4.12200
H          2.17770        5.04990       -4.41630
H         -0.75790        7.08030       -0.88100
H         -0.25470        7.36780       -2.56140
H          0.12700        9.34070       -0.99970
H          1.61230        8.79790       -1.80570
H          1.67440        7.35340        0.17880
