55
rmsd227.gzmat
C          0.00000        0.00000        0.00000
C          1.39650        0.00000        0.00000
C          2.08060        0.00000        1.22300
C          1.38700        0.09030        2.42720
C         -0.00580        0.13340        2.41980
C         -0.69280        0.06070        1.20850
C         -2.19320        0.06250        1.18290
F         -2.78820       -0.23180        2.33820
F         -2.71620        1.24090        0.83600
F         -2.72670       -0.80010        0.31720
S          3.84410       -0.14070        1.25760
C          4.13630       -1.08610       -0.21070
C          3.26520       -0.97490       -1.29860
C          3.47360       -1.76900       -2.42880
C          4.56410       -2.63310       -2.48000
C          5.44820       -2.71010       -1.40440
C          5.23240       -1.94280       -0.26130
C          2.15980       -0.00590       -1.25100
C          1.96960        0.84260       -2.27470
C          0.94840        1.92180       -2.33560
C         -0.08370        1.57760       -3.43310
N         -1.05340        2.69460       -3.52300
C         -1.62710        2.82370       -4.87820
C         -2.63930        1.70430       -5.22090
N         -3.72690        1.57130       -4.23130
C         -3.17440        1.47420       -2.86430
C         -2.13990        2.57620       -2.52830
C         -4.74970        2.63700       -4.35400
C         -6.11350        1.99790       -4.00980
O         -6.41080        0.96070       -4.91860
H         -0.53230       -0.04980       -0.95320
H          1.91720        0.11570        3.38180
H         -0.53740        0.21250        3.36990
H          2.77970       -1.71220       -3.26660
H          4.72710       -3.24970       -3.36290
H          6.30630       -3.37870       -1.45290
H          5.92180       -2.02960        0.57990
H          2.61300        0.78570       -3.15900
H          1.42710        2.89800       -2.57600
H          0.44660        2.09830       -1.36460
H         -0.56160        0.59880       -3.21760
H          0.44320        1.46320       -4.40510
H         -0.80610        2.85000       -5.62350
H         -2.12330        3.81800       -4.93150
H         -3.07430        1.86870       -6.22800
H         -2.12040        0.72080       -5.26640
H         -4.00590        1.49440       -2.12870
H         -2.70930        0.46700       -2.77320
H         -2.63930        3.56850       -2.46870
H         -1.69870        2.39810       -1.52630
H         -4.78720        3.01370       -5.39910
H         -4.55750        3.51620       -3.70850
H         -6.94460        2.71240       -4.14060
H         -6.12920        1.58090       -2.98740
H         -5.61500        0.38640       -5.01340
