rmsd199.gzmat
 OpenBabel08211713393D

 55 58  0  0  0  0  0  0  0  0999 V2000
    0.0000    0.0000    0.0000 C   0  0  0  0  0  0  0  0  0  0  0  0
    1.3974    0.0000    0.0000 C   0  0  0  0  0  0  0  0  0  0  0  0
    2.0856    0.0000    1.2193 C   0  0  0  0  0  0  0  0  0  0  0  0
    1.3959    0.0948    2.4264 C   0  0  0  0  0  0  0  0  0  0  0  0
    0.0048    0.1510    2.4191 C   0  0  0  0  0  0  0  0  0  0  0  0
   -0.6864    0.0872    1.2076 C   0  0  0  0  0  0  0  0  0  0  0  0
   -2.1862    0.1141    1.2431 C   0  0  0  0  0  0  0  0  0  0  0  0
   -2.7239   -0.9305    1.8744 F   0  0  0  0  0  0  0  0  0  0  0  0
   -2.6853    1.1787    1.8751 F   0  0  0  0  0  0  0  0  0  0  0  0
   -2.7944    0.1294    0.0578 F   0  0  0  0  0  0  0  0  0  0  0  0
    3.8481   -0.1496    1.2387 S   0  0  0  0  0  0  0  0  0  0  0  0
    4.1202   -1.0988   -0.2322 C   0  0  0  0  0  0  0  0  0  0  0  0
    3.2501   -0.9694   -1.3195 C   0  0  0  0  0  0  0  0  0  0  0  0
    3.4508   -1.7533   -2.4578 C   0  0  0  0  0  0  0  0  0  0  0  0
    4.5266   -2.6354   -2.5127 C   0  0  0  0  0  0  0  0  0  0  0  0
    5.4042   -2.7394   -1.4339 C   0  0  0  0  0  0  0  0  0  0  0  0
    5.2006   -1.9750   -0.2861 C   0  0  0  0  0  0  0  0  0  0  0  0
    2.1501    0.0026   -1.2572 C   0  0  0  0  0  0  0  0  0  0  0  0
    1.9451    0.8632   -2.2682 C   0  0  0  0  0  0  0  0  0  0  0  0
    0.9357    1.9557   -2.2892 C   0  0  0  0  0  0  0  0  0  0  0  0
    1.6454    3.2994   -2.5707 C   0  0  0  0  0  0  0  0  0  0  0  0
    0.6141    4.3588   -2.6847 N   0  0  0  0  0  0  0  0  0  0  0  0
    0.1307    4.8283   -1.3693 C   0  0  0  0  0  0  0  0  0  0  0  0
    1.1476    5.7164   -0.6103 C   0  0  0  0  0  0  0  0  0  0  0  0
    1.6725    6.8454   -1.4069 N   0  0  0  0  0  0  0  0  0  0  0  0
    2.1399    6.3720   -2.7257 C   0  0  0  0  0  0  0  0  0  0  0  0
    1.0959    5.5102   -3.4763 C   0  0  0  0  0  0  0  0  0  0  0  0
    0.7048    7.9633   -1.5165 C   0  0  0  0  0  0  0  0  0  0  0  0
    0.8871    8.8589   -0.2712 C   0  0  0  0  0  0  0  0  0  0  0  0
    2.2033    9.3628   -0.2132 O   0  0  0  0  0  0  0  0  0  0  0  0
   -0.5264   -0.0718   -0.9552 H   0  0  0  0  0  0  0  0  0  0  0  0
    1.9277    0.1150    3.3798 H   0  0  0  0  0  0  0  0  0  0  0  0
   -0.5343    0.2301    3.3654 H   0  0  0  0  0  0  0  0  0  0  0  0
    2.7627   -1.6745   -3.2987 H   0  0  0  0  0  0  0  0  0  0  0  0
    4.6820   -3.2455   -3.4015 H   0  0  0  0  0  0  0  0  0  0  0  0
    6.2479   -3.4261   -1.4835 H   0  0  0  0  0  0  0  0  0  0  0  0
    5.8871   -2.0798    0.5557 H   0  0  0  0  0  0  0  0  0  0  0  0
    2.5704    0.8125   -3.1654 H   0  0  0  0  0  0  0  0  0  0  0  0
    0.3616    2.0324   -1.3447 H   0  0  0  0  0  0  0  0  0  0  0  0
    0.1715    1.7699   -3.0772 H   0  0  0  0  0  0  0  0  0  0  0  0
    2.2009    3.2295   -3.5310 H   0  0  0  0  0  0  0  0  0  0  0  0
    2.3971    3.5027   -1.7792 H   0  0  0  0  0  0  0  0  0  0  0  0
   -0.1512    3.9539   -0.7465 H   0  0  0  0  0  0  0  0  0  0  0  0
   -0.8127    5.3900   -1.5513 H   0  0  0  0  0  0  0  0  0  0  0  0
    0.6914    6.1053    0.3235 H   0  0  0  0  0  0  0  0  0  0  0  0
    2.0243    5.1072   -0.2937 H   0  0  0  0  0  0  0  0  0  0  0  0
    2.4420    7.2421   -3.3443 H   0  0  0  0  0  0  0  0  0  0  0  0
    3.0668    5.7814   -2.5483 H   0  0  0  0  0  0  0  0  0  0  0  0
    0.2062    6.1255   -3.7367 H   0  0  0  0  0  0  0  0  0  0  0  0
    1.5090    5.1465   -4.4388 H   0  0  0  0  0  0  0  0  0  0  0  0
   -0.3481    7.6333   -1.6097 H   0  0  0  0  0  0  0  0  0  0  0  0
    0.9299    8.5675   -2.4229 H   0  0  0  0  0  0  0  0  0  0  0  0
    0.6830    8.3133    0.6668 H   0  0  0  0  0  0  0  0  0  0  0  0
    0.2585    9.7652   -0.3247 H   0  0  0  0  0  0  0  0  0  0  0  0
    2.8318    8.6291   -0.4098 H   0  0  0  0  0  0  0  0  0  0  0  0
  1  2  2  0  0  0  0
  1  6  1  0  0  0  0
  2  3  1  0  0  0  0
  3 11  1  0  0  0  0
  3  4  2  0  0  0  0
  4 32  1  0  0  0  0
  5  4  1  0  0  0  0
  5 33  1  0  0  0  0
  6  7  1  0  0  0  0
  6  5  2  0  0  0  0
  7  8  1  0  0  0  0
  7  9  1  0  0  0  0
 10  7  1  0  0  0  0
 12 11  1  0  0  0  0
 13 18  1  0  0  0  0
 13 12  2  0  0  0  0
 14 13  1  0  0  0  0
 15 14  2  0  0  0  0
 15 16  1  0  0  0  0
 16 17  2  0  0  0  0
 17 12  1  0  0  0  0
 17 37  1  0  0  0  0
 18  2  1  0  0  0  0
 19 18  2  0  0  0  0
 20 19  1  0  0  0  0
 20 39  1  0  0  0  0
 21 20  1  0  0  0  0
 21 42  1  0  0  0  0
 22 21  1  0  0  0  0
 22 23  1  0  0  0  0
 23 43  1  0  0  0  0
 23 24  1  0  0  0  0
 24 46  1  0  0  0  0
 24 45  1  0  0  0  0
 25 24  1  0  0  0  0
 26 48  1  0  0  0  0
 26 25  1  0  0  0  0
 27 26  1  0  0  0  0
 27 22  1  0  0  0  0
 28 25  1  0  0  0  0
 28 29  1  0  0  0  0
 29 30  1  0  0  0  0
 29 53  1  0  0  0  0
 31  1  1  0  0  0  0
 34 14  1  0  0  0  0
 35 15  1  0  0  0  0
 36 16  1  0  0  0  0
 38 19  1  0  0  0  0
 40 20  1  0  0  0  0
 41 21  1  0  0  0  0
 44 23  1  0  0  0  0
 47 26  1  0  0  0  0
 49 27  1  0  0  0  0
 50 27  1  0  0  0  0
 51 28  1  0  0  0  0
 52 28  1  0  0  0  0
 54 29  1  0  0  0  0
 55 30  1  0  0  0  0
M  END
$$$$
