55
rmsd249.gzmat
C          0.00000        0.00000        0.00000
C          1.39800        0.00000        0.00000
C          2.08210        0.00000        1.22200
C          1.38960        0.09200        2.42780
C         -0.00120        0.15050        2.41920
C         -0.68960        0.08460        1.20610
C         -2.18890        0.12380        1.24010
F         -2.73630       -0.82750        1.99810
F         -2.67730        1.26400        1.73340
F         -2.80040       -0.00630        0.06320
S          3.84390       -0.12990        1.26080
C          4.16790       -1.00870       -0.24080
C          3.29950       -0.88990       -1.33000
C          3.55970       -1.61840       -2.49450
C          4.68910       -2.42820       -2.57260
C          5.56080       -2.52170       -1.48820
C          5.29960       -1.81660       -0.31520
C          2.14810        0.01840       -1.25710
C          1.89190        0.85560       -2.27720
C          0.80530        1.87250       -2.31340
C          1.22440        3.10420       -3.14800
N          1.60690        2.67360       -4.51360
C          0.44390        2.39540       -5.37890
C         -0.25140        3.66230       -5.93640
N          0.67390        4.62020       -6.57780
C          1.80490        4.90990       -5.67170
C          2.51810        3.63400       -5.16720
C          1.12760        4.16320       -7.91360
C          0.07400        4.61200       -8.94860
O         -0.02530        6.01910       -8.97050
H         -0.52610       -0.07240       -0.95420
H          1.91990        0.11190        3.38240
H         -0.54200        0.23720        3.36370
H          2.87670       -1.54860       -3.34080
H          4.89300       -2.98930       -3.48330
H          6.44440       -3.15330       -1.55430
H          5.98410       -1.91110        0.52920
H          2.51560        0.83670       -3.18240
H          0.52640        2.21410       -1.29350
H         -0.11380        1.41710       -2.74270
H          2.10420        3.58150       -2.66100
H          0.40900        3.85640       -3.13980
H         -0.28720        1.77270       -4.82240
H          0.81110        1.76140       -6.21700
H         -1.04090        3.37560       -6.66160
H         -0.76950        4.20940       -5.11730
H          2.52430        5.58190       -6.18320
H          1.39710        5.49000       -4.81380
H          2.99550        3.10140       -6.02030
H          3.34090        3.89580       -4.47040
H          1.29520        3.07020       -7.97710
H          2.09630        4.64990       -8.16490
H         -0.92600        4.19520       -8.73520
H          0.37940        4.35050       -9.97770
H         -0.06240        6.34850       -8.04230
