rmsd221.gzmat
 OpenBabel08211713393D

 55 58  0  0  0  0  0  0  0  0999 V2000
    0.0000    0.0000    0.0000 C   0  0  0  0  0  0  0  0  0  0  0  0
    1.3978    0.0000    0.0000 C   0  0  0  0  0  0  0  0  0  0  0  0
    2.0851    0.0000    1.2198 C   0  0  0  0  0  0  0  0  0  0  0  0
    1.3947    0.0814    2.4276 C   0  0  0  0  0  0  0  0  0  0  0  0
    0.0035    0.1293    2.4208 C   0  0  0  0  0  0  0  0  0  0  0  0
   -0.6871    0.0728    1.2082 C   0  0  0  0  0  0  0  0  0  0  0  0
   -2.1870    0.0921    1.2451 C   0  0  0  0  0  0  0  0  0  0  0  0
   -2.7187   -0.9425    1.8979 F   0  0  0  0  0  0  0  0  0  0  0  0
   -2.6905    1.1662    1.8572 F   0  0  0  0  0  0  0  0  0  0  0  0
   -2.7967    0.0798    0.0607 F   0  0  0  0  0  0  0  0  0  0  0  0
    3.8486   -0.1274    1.2458 S   0  0  0  0  0  0  0  0  0  0  0  0
    4.1433   -1.0563   -0.2323 C   0  0  0  0  0  0  0  0  0  0  0  0
    3.2686   -0.9488   -1.3181 C   0  0  0  0  0  0  0  0  0  0  0  0
    3.4913   -1.7273   -2.4565 C   0  0  0  0  0  0  0  0  0  0  0  0
    4.5952   -2.5737   -2.5161 C   0  0  0  0  0  0  0  0  0  0  0  0
    5.4798   -2.6497   -1.4408 C   0  0  0  0  0  0  0  0  0  0  0  0
    5.2516   -1.8971   -0.2900 C   0  0  0  0  0  0  0  0  0  0  0  0
    2.1475   -0.0002   -1.2586 C   0  0  0  0  0  0  0  0  0  0  0  0
    1.9209    0.8416   -2.2812 C   0  0  0  0  0  0  0  0  0  0  0  0
    0.8954    1.9178   -2.3115 C   0  0  0  0  0  0  0  0  0  0  0  0
    1.5436    3.2285   -2.8118 C   0  0  0  0  0  0  0  0  0  0  0  0
    0.4797    4.2533   -2.9388 N   0  0  0  0  0  0  0  0  0  0  0  0
    0.1596    4.9002   -1.6489 C   0  0  0  0  0  0  0  0  0  0  0  0
    1.2521    5.8838   -1.1638 C   0  0  0  0  0  0  0  0  0  0  0  0
    1.6255    6.9038   -2.1655 N   0  0  0  0  0  0  0  0  0  0  0  0
    1.9178    6.2673   -3.4665 C   0  0  0  0  0  0  0  0  0  0  0  0
    0.8203    5.2834   -3.9417 C   0  0  0  0  0  0  0  0  0  0  0  0
    0.6210    7.9885   -2.2747 C   0  0  0  0  0  0  0  0  0  0  0  0
    1.3609    9.2702   -2.7170 C   0  0  0  0  0  0  0  0  0  0  0  0
    2.3524    9.6183   -1.7761 O   0  0  0  0  0  0  0  0  0  0  0  0
   -0.5273   -0.0611   -0.9556 H   0  0  0  0  0  0  0  0  0  0  0  0
    1.9261    0.0973    3.3815 H   0  0  0  0  0  0  0  0  0  0  0  0
   -0.5370    0.1977    3.3672 H   0  0  0  0  0  0  0  0  0  0  0  0
    2.7988   -1.6729   -3.2953 H   0  0  0  0  0  0  0  0  0  0  0  0
    4.7682   -3.1782   -3.4053 H   0  0  0  0  0  0  0  0  0  0  0  0
    6.3471   -3.3056   -1.4960 H   0  0  0  0  0  0  0  0  0  0  0  0
    5.9403   -1.9828    0.5521 H   0  0  0  0  0  0  0  0  0  0  0  0
    2.5391    0.7832   -3.1830 H   0  0  0  0  0  0  0  0  0  0  0  0
    0.4249    2.0901   -1.3225 H   0  0  0  0  0  0  0  0  0  0  0  0
    0.0558    1.6404   -2.9882 H   0  0  0  0  0  0  0  0  0  0  0  0
    2.0084    3.0554   -3.8064 H   0  0  0  0  0  0  0  0  0  0  0  0
    2.3651    3.5283   -2.1271 H   0  0  0  0  0  0  0  0  0  0  0  0
   -0.0202    4.1178   -0.8820 H   0  0  0  0  0  0  0  0  0  0  0  0
   -0.8078    5.4339   -1.7803 H   0  0  0  0  0  0  0  0  0  0  0  0
    0.9319    6.3848   -0.2268 H   0  0  0  0  0  0  0  0  0  0  0  0
    2.1820    5.3262   -0.9087 H   0  0  0  0  0  0  0  0  0  0  0  0
    2.0836    7.0526   -4.2321 H   0  0  0  0  0  0  0  0  0  0  0  0
    2.8874    5.7318   -3.3554 H   0  0  0  0  0  0  0  0  0  0  0  0
   -0.1174    5.8348   -4.1768 H   0  0  0  0  0  0  0  0  0  0  0  0
    1.1271    4.7902   -4.8868 H   0  0  0  0  0  0  0  0  0  0  0  0
    0.1652    8.1705   -1.2760 H   0  0  0  0  0  0  0  0  0  0  0  0
   -0.2117    7.7593   -2.9676 H   0  0  0  0  0  0  0  0  0  0  0  0
    0.6887   10.1462   -2.7306 H   0  0  0  0  0  0  0  0  0  0  0  0
    1.8457    9.1536   -3.7020 H   0  0  0  0  0  0  0  0  0  0  0  0
    2.8393    8.8022   -1.5122 H   0  0  0  0  0  0  0  0  0  0  0  0
  1  2  2  0  0  0  0
  1  6  1  0  0  0  0
  2  3  1  0  0  0  0
  3 11  1  0  0  0  0
  3  4  2  0  0  0  0
  4 32  1  0  0  0  0
  5  4  1  0  0  0  0
  5 33  1  0  0  0  0
  6  7  1  0  0  0  0
  6  5  2  0  0  0  0
  7  9  1  0  0  0  0
  7  8  1  0  0  0  0
 10  7  1  0  0  0  0
 12 11  1  0  0  0  0
 13 18  1  0  0  0  0
 13 12  2  0  0  0  0
 14 13  1  0  0  0  0
 15 14  2  0  0  0  0
 15 16  1  0  0  0  0
 16 17  2  0  0  0  0
 17 12  1  0  0  0  0
 17 37  1  0  0  0  0
 18  2  1  0  0  0  0
 19 18  2  0  0  0  0
 20 19  1  0  0  0  0
 20 39  1  0  0  0  0
 21 20  1  0  0  0  0
 21 42  1  0  0  0  0
 22 21  1  0  0  0  0
 22 23  1  0  0  0  0
 23 24  1  0  0  0  0
 23 43  1  0  0  0  0
 24 46  1  0  0  0  0
 24 45  1  0  0  0  0
 25 24  1  0  0  0  0
 26 48  1  0  0  0  0
 26 25  1  0  0  0  0
 27 26  1  0  0  0  0
 27 22  1  0  0  0  0
 28 25  1  0  0  0  0
 28 51  1  0  0  0  0
 29 28  1  0  0  0  0
 29 30  1  0  0  0  0
 30 55  1  0  0  0  0
 31  1  1  0  0  0  0
 34 14  1  0  0  0  0
 35 15  1  0  0  0  0
 36 16  1  0  0  0  0
 38 19  1  0  0  0  0
 40 20  1  0  0  0  0
 41 21  1  0  0  0  0
 44 23  1  0  0  0  0
 47 26  1  0  0  0  0
 49 27  1  0  0  0  0
 50 27  1  0  0  0  0
 52 28  1  0  0  0  0
 53 29  1  0  0  0  0
 54 29  1  0  0  0  0
M  END
$$$$
