55
rmsd192.gzmat
C          0.00000        0.00000        0.00000
C          1.39760        0.00000        0.00000
C          2.07870        0.00000        1.22260
C          1.38400        0.08410        2.42780
C         -0.00760        0.12500        2.41880
C         -0.69390        0.05680        1.20480
C         -2.19400        0.07680        1.20530
F         -2.75400       -0.56900        2.23050
F         -2.70890        1.30620        1.27080
F         -2.77540       -0.46820        0.13700
S          3.84350       -0.13020        1.25710
C          4.13740       -1.07570       -0.21100
C          3.26800       -0.96780       -1.30090
C          3.48470       -1.76050       -2.43090
C          4.57780       -2.62170       -2.47820
C          5.45760       -2.69790       -1.39920
C          5.23550       -1.93030       -0.25720
C          2.15490       -0.00770       -1.25500
C          1.94720        0.82650       -2.28810
C          0.93370        1.91470       -2.34890
C         -0.06460        1.69560       -3.51080
N         -1.06630        0.68940       -3.08810
C         -2.44010        1.03430       -3.50260
C         -2.69870        0.79550       -5.00940
N         -2.38490       -0.58300       -5.44230
C         -1.01210       -0.94350       -5.02770
C         -0.72590       -0.67830       -3.52960
C         -3.39460       -1.56160       -4.97060
C         -3.45080       -2.71280       -5.99710
O         -3.79140       -2.22270       -7.27520
H         -0.53170       -0.03190       -0.96150
H          1.91270        0.10810        3.38230
H         -0.54540        0.20080        3.36530
H          2.79650       -1.70450       -3.27260
H          4.74610       -3.23790       -3.36020
H          6.31620       -3.36590       -1.44390
H          5.92080       -2.01640        0.58740
H          2.57920        0.75910       -3.17960
H          1.45100        2.88800       -2.49210
H          0.37010        2.02570       -1.39810
H          0.47610        1.40670       -4.43510
H         -0.56270        2.66360       -3.73480
H         -2.65700        2.08720       -3.22860
H         -3.13270        0.41150       -2.89110
H         -3.75230        1.03000       -5.26710
H         -2.07050        1.48090       -5.62050
H         -0.82350       -2.01000       -5.26950
H         -0.31450       -0.35510       -5.66350
H         -1.31720       -1.38110       -2.89890
H          0.34200       -0.88190       -3.29990
H         -4.39360       -1.07360       -4.92950
H         -3.19270       -1.95600       -3.95490
H         -4.25940       -3.42800       -5.76200
H         -2.48860       -3.24760       -6.07760
H         -3.28260       -1.39520       -7.44350
