47
rmsd182.gzmat
C          0.00000        0.00000        0.00000
C          1.39430        0.00000        0.00000
C          2.09390        0.00000        1.20350
C          1.39950        0.00460        2.41710
C          2.14780        0.01570        3.70480
S          2.83790        1.64260        4.05300
C          1.56110        2.80380        3.66860
C          0.55460        3.09530        4.50350
C          0.32920        2.52190        5.83200
C          1.17100        2.73040        6.85940
S          0.95160        2.12000        8.46110
C         -0.55400        1.22440        8.38180
C         -1.30180        1.11510        7.21050
C         -0.90920        1.73050        5.92350
O         -1.60420        1.56730        4.93940
C         -2.49910        0.38300        7.22660
C         -2.93400       -0.22860        8.39370
C         -2.17400       -0.11660        9.56180
C         -0.98760        0.60660        9.56000
C          1.60690        3.41200        2.33710
C          2.73850        4.09340        1.88030
C          2.73800        4.67060        0.61200
C          1.61490        4.57110       -0.20630
C          0.48490        3.89070        0.24530
C          0.47990        3.31360        1.51110
O          3.05610        1.70290        5.49080
O          3.96310        1.85290        3.16690
C          0.00250        0.00400        2.41560
C         -0.69330        0.00190        1.20860
H         -0.54430        0.00250       -0.94130
H          1.93860        0.00720       -0.94190
H          3.18550        0.01850        1.19600
H          2.97380       -0.72860        3.68330
H          1.51260       -0.31080        4.55450
H         -0.23680        3.79750        4.19320
H          2.10300        3.31260        6.74480
H         -3.08420        0.30030        6.30360
H         -3.86370       -0.79560        8.40260
H         -2.51450       -0.60080       10.47780
H         -0.40750        0.68020       10.48170
H          3.63530        4.16100        2.50060
H          3.62350        5.19530        0.25880
H          1.62090        5.01870       -1.19730
H         -0.39160        3.80570       -0.39270
H         -0.40000        2.76830        1.85580
H         -0.55250        0.01760        3.35510
H         -1.78150        0.00430        1.21280
