
     RDKit          3D

 47 50  0  0  0  0  0  0  0  0999 V2000
    0.1571   -0.2655    0.1387 C   0  0  0  0  0  0  0  0  0  0  0  0
    1.5450   -0.1067    0.1458 C   0  0  0  0  0  0  0  0  0  0  0  0
    2.2304    0.0053    1.3572 C   0  0  0  0  0  0  0  0  0  0  0  0
    1.5360   -0.0511    2.5740 C   0  0  0  0  0  0  0  0  0  0  0  0
    2.2645    0.1495    3.8687 C   0  0  0  0  0  0  0  0  0  0  0  0
    1.8933    1.7879    4.6087 S   0  0  0  0  0  0  0  0  0  0  0  0
    2.2251    2.9215    3.2197 C   0  0  0  0  0  0  0  0  0  0  0  0
    3.4539    3.0347    2.6762 C   0  0  0  0  0  0  0  0  0  0  0  0
    4.7585    2.4429    3.0144 C   0  0  0  0  0  0  0  0  0  0  0  0
    5.2710    2.4375    4.2790 C   0  0  0  0  0  0  0  0  0  0  0  0
    6.8053    1.8519    4.7772 S   0  0  0  0  0  0  0  0  0  0  0  0
    7.5303    1.3097    3.2724 C   0  0  0  0  0  0  0  0  0  0  0  0
    6.8742    1.3991    2.0274 C   0  0  0  0  0  0  0  0  0  0  0  0
    5.5028    1.9419    1.8400 C   0  0  0  0  0  0  0  0  0  0  0  0
    4.9824    1.9549    0.7252 O   0  0  0  0  0  0  0  0  0  0  0  0
    7.5496    0.9358    0.8797 C   0  0  0  0  0  0  0  0  0  0  0  0
    8.8281    0.4056    0.9624 C   0  0  0  0  0  0  0  0  0  0  0  0
    9.4690    0.3216    2.2099 C   0  0  0  0  0  0  0  0  0  0  0  0
    8.8273    0.7685    3.3570 C   0  0  0  0  0  0  0  0  0  0  0  0
    1.0252    3.5164    2.5897 C   0  0  0  0  0  0  0  0  0  0  0  0
    0.8266    3.3588    1.2070 C   0  0  0  0  0  0  0  0  0  0  0  0
   -0.2882    3.9208    0.5845 C   0  0  0  0  0  0  0  0  0  0  0  0
   -1.2197    4.6433    1.3347 C   0  0  0  0  0  0  0  0  0  0  0  0
   -1.0326    4.7978    2.7120 C   0  0  0  0  0  0  0  0  0  0  0  0
    0.0776    4.2342    3.3395 C   0  0  0  0  0  0  0  0  0  0  0  0
    0.4537    1.8169    4.9047 O   0  0  0  0  0  0  0  0  0  0  0  0
    2.8439    2.0167    5.7140 O   0  0  0  0  0  0  0  0  0  0  0  0
    0.1415   -0.2121    2.5598 C   0  0  0  0  0  0  0  0  0  0  0  0
   -0.5420   -0.3174    1.3487 C   0  0  0  0  0  0  0  0  0  0  0  0
   -0.3814   -0.3451   -0.8087 H   0  0  0  0  0  0  0  0  0  0  0  0
    2.1010   -0.0553   -0.7931 H   0  0  0  0  0  0  0  0  0  0  0  0
    3.3097    0.1620    1.3464 H   0  0  0  0  0  0  0  0  0  0  0  0
    3.3559    0.1053    3.7620 H   0  0  0  0  0  0  0  0  0  0  0  0
    1.9482   -0.5348    4.6707 H   0  0  0  0  0  0  0  0  0  0  0  0
    3.4904    3.6211    1.7516 H   0  0  0  0  0  0  0  0  0  0  0  0
    4.6748    2.8068    5.1147 H   0  0  0  0  0  0  0  0  0  0  0  0
    7.0193    1.0135   -0.0705 H   0  0  0  0  0  0  0  0  0  0  0  0
    9.3354    0.0529    0.0620 H   0  0  0  0  0  0  0  0  0  0  0  0
   10.4756   -0.0963    2.2833 H   0  0  0  0  0  0  0  0  0  0  0  0
    9.3230    0.7046    4.3286 H   0  0  0  0  0  0  0  0  0  0  0  0
    1.5378    2.7656    0.6305 H   0  0  0  0  0  0  0  0  0  0  0  0
   -0.4345    3.7822   -0.4893 H   0  0  0  0  0  0  0  0  0  0  0  0
   -2.0954    5.0803    0.8486 H   0  0  0  0  0  0  0  0  0  0  0  0
   -1.7596    5.3590    3.3038 H   0  0  0  0  0  0  0  0  0  0  0  0
    0.2115    4.3438    4.4156 H   0  0  0  0  0  0  0  0  0  0  0  0
   -0.4068   -0.2196    3.5031 H   0  0  0  0  0  0  0  0  0  0  0  0
   -1.6283   -0.4328    1.3491 H   0  0  0  0  0  0  0  0  0  0  0  0
  1  2  2  0
  1 29  1  0
  1 30  1  0
  2  3  1  0
  2 31  1  0
  3  4  2  0
  3 32  1  0
  4  5  1  0
  4 28  1  0
  5  6  1  0
  5 33  1  0
  5 34  1  0
  6  7  1  0
  6 26  2  0
  6 27  2  0
  7  8  2  0
  7 20  1  0
  8  9  1  0
  8 35  1  0
  9 10  2  0
  9 14  1  0
 10 11  1  0
 10 36  1  0
 11 12  1  0
 12 13  2  0
 12 19  1  0
 13 14  1  0
 13 16  1  0
 14 15  2  0
 16 17  2  0
 16 37  1  0
 17 18  1  0
 17 38  1  0
 18 19  2  0
 18 39  1  0
 19 40  1  0
 20 21  2  0
 20 25  1  0
 21 22  1  0
 21 41  1  0
 22 23  2  0
 22 42  1  0
 23 24  1  0
 23 43  1  0
 24 25  2  0
 24 44  1  0
 25 45  1  0
 28 29  2  0
 28 46  1  0
 29 47  1  0
M  END

