47
rmsd177.gzmat
C          0.00000        0.00000        0.00000
C          1.39420        0.00000        0.00000
C          2.09390        0.00000        1.20370
C          1.39960       -0.00040        2.41750
C          2.14660        0.00520        3.70510
S          2.78220        1.64560        4.09880
C          1.49750        2.78710        3.68950
C          0.41760        3.01770        4.44760
C          0.07660        2.38090        5.72020
C          0.85170        2.47780        6.81450
S          0.49650        1.77020        8.34930
C         -1.02890        0.94020        8.10450
C         -1.70780        0.96470        6.88750
C         -1.21910        1.67900        5.68730
O         -1.88510        1.67390        4.67070
C         -2.92820        0.28210        6.76940
C         -3.45200       -0.41480        7.84920
C         -2.76110       -0.43510        9.06430
C         -1.55230        0.23780        9.19510
C          1.63710        3.47500        2.40270
C          2.71870        4.32140        2.14590
C          2.80490        4.98670        0.92460
C          1.82220        4.80490       -0.04640
C          0.74900        3.95070        0.20260
C          0.65420        3.29020        1.42350
O          2.94580        1.68200        5.54500
O          3.93220        1.89490        3.25720
C          0.00240       -0.00080        2.41550
C         -0.69350        0.00270        1.20860
H         -0.54450        0.00100       -0.94120
H          1.93870        0.00670       -0.94230
H          3.18510        0.01980        1.19540
H          2.99840       -0.70880        3.66740
H          1.52370       -0.36480        4.54580
H         -0.35630        3.72360        4.09750
H          1.81550        3.02280        6.80710
H         -3.46280        0.30850        5.81280
H         -4.39780       -0.94610        7.75230
H         -3.17370       -0.98120        9.91320
H         -1.02680        0.20660       10.15120
H          3.50680        4.45190        2.88870
H          3.64790        5.64520        0.72770
H          1.89410        5.32470       -0.99870
H         -0.01310        3.79700       -0.55790
H         -0.18040        2.61340        1.61380
H         -0.55340        0.00950        3.35350
H         -1.78200        0.01290        1.21410
