rmsd123.gzmat
 OpenBabel08211713383D

 47 50  0  0  0  0  0  0  0  0999 V2000
    0.0000    0.0000    0.0000 C   0  0  0  0  0  0  0  0  0  0  0  0
    1.3943    0.0000    0.0000 C   0  0  0  0  0  0  0  0  0  0  0  0
    2.0942    0.0000    1.2031 C   0  0  0  0  0  0  0  0  0  0  0  0
    1.3998    0.0110    2.4166 C   0  0  0  0  0  0  0  0  0  0  0  0
    2.1458    0.0175    3.7061 C   0  0  0  0  0  0  0  0  0  0  0  0
    2.9435    1.6031    4.0069 S   0  0  0  0  0  0  0  0  0  0  0  0
    1.7514    2.8392    3.5853 C   0  0  0  0  0  0  0  0  0  0  0  0
    0.7817    3.2420    4.4168 C   0  0  0  0  0  0  0  0  0  0  0  0
    0.5292    2.7519    5.7732 C   0  0  0  0  0  0  0  0  0  0  0  0
    1.3939    2.9460    6.7837 C   0  0  0  0  0  0  0  0  0  0  0  0
    1.1281    2.4615    8.4221 S   0  0  0  0  0  0  0  0  0  0  0  0
   -0.4994    1.8069    8.4201 C   0  0  0  0  0  0  0  0  0  0  0  0
   -1.2503    1.6691    7.2538 C   0  0  0  0  0  0  0  0  0  0  0  0
   -0.7593    2.0522    5.9120 C   0  0  0  0  0  0  0  0  0  0  0  0
   -1.4168    1.7806    4.9266 O   0  0  0  0  0  0  0  0  0  0  0  0
   -2.5454    1.1349    7.3296 C   0  0  0  0  0  0  0  0  0  0  0  0
   -3.0755    0.7480    8.5525 C   0  0  0  0  0  0  0  0  0  0  0  0
   -2.3137    0.8894    9.7161 C   0  0  0  0  0  0  0  0  0  0  0  0
   -1.0292    1.4159    9.6545 C   0  0  0  0  0  0  0  0  0  0  0  0
    1.8227    3.3838    2.2274 C   0  0  0  0  0  0  0  0  0  0  0  0
    2.9974    3.9501    1.7249 C   0  0  0  0  0  0  0  0  0  0  0  0
    3.0250    4.4587    0.4281 C   0  0  0  0  0  0  0  0  0  0  0  0
    1.8846    4.4112   -0.3707 C   0  0  0  0  0  0  0  0  0  0  0  0
    0.7093    3.8514    0.1285 C   0  0  0  0  0  0  0  0  0  0  0  0
    0.6778    3.3382    1.4213 C   0  0  0  0  0  0  0  0  0  0  0  0
    3.1694    1.6929    5.4417 O   0  0  0  0  0  0  0  0  0  0  0  0
    4.0788    1.7088    3.1141 O   0  0  0  0  0  0  0  0  0  0  0  0
    0.0031    0.0156    2.4154 C   0  0  0  0  0  0  0  0  0  0  0  0
   -0.6931    0.0084    1.2088 C   0  0  0  0  0  0  0  0  0  0  0  0
   -0.5437   -0.0056   -0.9413 H   0  0  0  0  0  0  0  0  0  0  0  0
    1.9377    0.0066   -0.9423 H   0  0  0  0  0  0  0  0  0  0  0  0
    3.1864    0.0121    1.1953 H   0  0  0  0  0  0  0  0  0  0  0  0
    2.9201   -0.7811    3.7097 H   0  0  0  0  0  0  0  0  0  0  0  0
    1.4884   -0.2384    4.5633 H   0  0  0  0  0  0  0  0  0  0  0  0
    0.0437    3.9898    4.0829 H   0  0  0  0  0  0  0  0  0  0  0  0
    2.3746    3.4309    6.6310 H   0  0  0  0  0  0  0  0  0  0  0  0
   -3.1309    1.0259    6.4098 H   0  0  0  0  0  0  0  0  0  0  0  0
   -4.0813    0.3345    8.6078 H   0  0  0  0  0  0  0  0  0  0  0  0
   -2.7316    0.5859   10.6766 H   0  0  0  0  0  0  0  0  0  0  0  0
   -0.4514    1.5197   10.5747 H   0  0  0  0  0  0  0  0  0  0  0  0
    3.9046    3.9795    2.3328 H   0  0  0  0  0  0  0  0  0  0  0  0
    3.9454    4.8878    0.0375 H   0  0  0  0  0  0  0  0  0  0  0  0
    1.9113    4.8079   -1.3826 H   0  0  0  0  0  0  0  0  0  0  0  0
   -0.1821    3.8108   -0.4935 H   0  0  0  0  0  0  0  0  0  0  0  0
   -0.2365    2.8817    1.8031 H   0  0  0  0  0  0  0  0  0  0  0  0
   -0.5514    0.0369    3.3550 H   0  0  0  0  0  0  0  0  0  0  0  0
   -1.7810    0.0109    1.2128 H   0  0  0  0  0  0  0  0  0  0  0  0
  1 29  1  0  0  0  0
  2  1  2  0  0  0  0
  2  3  1  0  0  0  0
  3  4  2  0  0  0  0
  4  5  1  0  0  0  0
  5 33  1  0  0  0  0
  5  6  1  0  0  0  0
  5 34  1  0  0  0  0
  6 26  2  0  0  0  0
  7  6  1  0  0  0  0
  7  8  2  0  0  0  0
  8  9  1  0  0  0  0
  9 14  1  0  0  0  0
  9 10  2  0  0  0  0
 10 11  1  0  0  0  0
 12 11  1  0  0  0  0
 12 19  2  0  0  0  0
 13 16  2  0  0  0  0
 13 12  1  0  0  0  0
 14 13  1  0  0  0  0
 15 14  2  0  0  0  0
 16 17  1  0  0  0  0
 17 38  1  0  0  0  0
 17 18  2  0  0  0  0
 18 39  1  0  0  0  0
 19 18  1  0  0  0  0
 19 40  1  0  0  0  0
 20  7  1  0  0  0  0
 21 20  1  0  0  0  0
 21 41  1  0  0  0  0
 22 21  2  0  0  0  0
 23 24  2  0  0  0  0
 23 22  1  0  0  0  0
 24 25  1  0  0  0  0
 25 45  1  0  0  0  0
 25 20  2  0  0  0  0
 27  6  2  0  0  0  0
 28  4  1  0  0  0  0
 28 46  1  0  0  0  0
 29 47  1  0  0  0  0
 29 28  2  0  0  0  0
 30  1  1  0  0  0  0
 31  2  1  0  0  0  0
 32  3  1  0  0  0  0
 35  8  1  0  0  0  0
 36 10  1  0  0  0  0
 37 16  1  0  0  0  0
 42 22  1  0  0  0  0
 43 23  1  0  0  0  0
 44 24  1  0  0  0  0
M  END
$$$$
