rmsd149.gzmat
 OpenBabel08211713383D

 47 49  0  0  0  0  0  0  0  0999 V2000
    0.0000    0.0000    0.0000 C   0  0  0  0  0  0  0  0  0  0  0  0
    1.3941    0.0000    0.0000 C   0  0  0  0  0  0  0  0  0  0  0  0
    2.0937    0.0000    1.2035 C   0  0  0  0  0  0  0  0  0  0  0  0
    1.3989    0.0049    2.4167 C   0  0  0  0  0  0  0  0  0  0  0  0
    2.1463    0.0267    3.7046 C   0  0  0  0  0  0  0  0  0  0  0  0
    2.7973    1.6686    4.0572 S   0  0  0  0  0  0  0  0  0  0  0  0
    1.5114    2.8091    3.6440 C   0  0  0  0  0  0  0  0  0  0  0  0
    0.5029    3.1177    4.4704 C   0  0  0  0  0  0  0  0  0  0  0  0
    0.2514    2.5757    5.8065 C   0  0  0  0  0  0  0  0  0  0  0  0
    1.0753    2.7871    6.8469 C   0  0  0  0  0  0  0  0  0  0  0  0
    0.7863    2.2463    8.4639 S   0  0  0  0  0  0  0  0  0  0  0  0
   -0.8001    1.5007    8.3957 C   0  0  0  0  0  0  0  0  0  0  0  0
   -1.5081    1.3551    7.2039 C   0  0  0  0  0  0  0  0  0  0  0  0
   -1.0036    1.8078    5.8897 C   0  0  0  0  0  0  0  0  0  0  0  0
   -1.6244    1.5412    4.8792 O   0  0  0  0  0  0  0  0  0  0  0  0
   -2.7736    0.7496    7.2254 C   0  0  0  0  0  0  0  0  0  0  0  0
   -3.3184    0.3024    8.4208 C   0  0  0  0  0  0  0  0  0  0  0  0
   -2.6000    0.4522    9.6107 C   0  0  0  0  0  0  0  0  0  0  0  0
   -1.3441    1.0466    9.6026 C   0  0  0  0  0  0  0  0  0  0  0  0
    1.5403    3.3914    2.2994 C   0  0  0  0  0  0  0  0  0  0  0  0
    2.6701    4.0413    1.7968 C   0  0  0  0  0  0  0  0  0  0  0  0
    2.6368    4.6119    0.5256 C   0  0  0  0  0  0  0  0  0  0  0  0
    1.4816    4.5400   -0.2495 C   0  0  0  0  0  0  0  0  0  0  0  0
    0.3557    3.8821    0.2430 C   0  0  0  0  0  0  0  0  0  0  0  0
    0.3853    3.3077    1.5093 C   0  0  0  0  0  0  0  0  0  0  0  0
    2.9893    1.7402    5.4982 O   0  0  0  0  0  0  0  0  0  0  0  0
    3.9348    1.8946    3.1903 O   0  0  0  0  0  0  0  0  0  0  0  0
    0.0020   -0.0015    2.4156 C   0  0  0  0  0  0  0  0  0  0  0  0
   -0.6934   -0.0032    1.2087 C   0  0  0  0  0  0  0  0  0  0  0  0
   -0.5449    0.0064   -0.9408 H   0  0  0  0  0  0  0  0  0  0  0  0
    1.9381    0.0077   -0.9418 H   0  0  0  0  0  0  0  0  0  0  0  0
    3.1852    0.0180    1.1964 H   0  0  0  0  0  0  0  0  0  0  0  0
    2.9895   -0.6982    3.6809 H   0  0  0  0  0  0  0  0  0  0  0  0
    1.5176   -0.3175    4.5523 H   0  0  0  0  0  0  0  0  0  0  0  0
   -0.2826    3.8183    4.1388 H   0  0  0  0  0  0  0  0  0  0  0  0
    2.0333    3.3272    6.7378 H   0  0  0  0  0  0  0  0  0  0  0  0
   -3.3244    0.6340    6.2851 H   0  0  0  0  0  0  0  0  0  0  0  0
   -4.3015   -0.1654    8.4342 H   0  0  0  0  0  0  0  0  0  0  0  0
   -3.0294    0.1012   10.5496 H   0  0  0  0  0  0  0  0  0  0  0  0
   -0.7990    1.1524   10.5422 H   0  0  0  0  0  0  0  0  0  0  0  0
    3.5904    4.0934    2.3840 H   0  0  0  0  0  0  0  0  0  0  0  0
    3.5218    5.1120    0.1381 H   0  0  0  0  0  0  0  0  0  0  0  0
    1.4575    4.9932   -1.2377 H   0  0  0  0  0  0  0  0  0  0  0  0
   -0.5446    3.8148   -0.3633 H   0  0  0  0  0  0  0  0  0  0  0  0
   -0.4896    2.7746    1.8842 H   0  0  0  0  0  0  0  0  0  0  0  0
   -0.5543    0.0095    3.3546 H   0  0  0  0  0  0  0  0  0  0  0  0
   -1.7816   -0.0035    1.2135 H   0  0  0  0  0  0  0  0  0  0  0  0
  1 29  1  0  0  0  0
  2  1  2  0  0  0  0
  2  3  1  0  0  0  0
  3  4  2  0  0  0  0
  4  5  1  0  0  0  0
  5  6  1  0  0  0  0
  5 34  1  0  0  0  0
  6 26  2  0  0  0  0
  7  6  1  0  0  0  0
  7  8  2  0  0  0  0
  8  9  1  0  0  0  0
  9 14  1  0  0  0  0
  9 10  2  0  0  0  0
 12 11  1  0  0  0  0
 12 19  2  0  0  0  0
 13 16  2  0  0  0  0
 13 12  1  0  0  0  0
 14 13  1  0  0  0  0
 15 14  2  0  0  0  0
 16 17  1  0  0  0  0
 17 38  1  0  0  0  0
 17 18  2  0  0  0  0
 18 39  1  0  0  0  0
 19 18  1  0  0  0  0
 19 40  1  0  0  0  0
 20  7  1  0  0  0  0
 21 20  1  0  0  0  0
 21 41  1  0  0  0  0
 22 21  2  0  0  0  0
 23 24  2  0  0  0  0
 23 22  1  0  0  0  0
 24 25  1  0  0  0  0
 25 45  1  0  0  0  0
 25 20  2  0  0  0  0
 27  6  2  0  0  0  0
 28  4  1  0  0  0  0
 28 46  1  0  0  0  0
 29 47  1  0  0  0  0
 29 28  2  0  0  0  0
 30  1  1  0  0  0  0
 31  2  1  0  0  0  0
 32  3  1  0  0  0  0
 33  5  1  0  0  0  0
 35  8  1  0  0  0  0
 36 10  1  0  0  0  0
 37 16  1  0  0  0  0
 42 22  1  0  0  0  0
 43 23  1  0  0  0  0
 44 24  1  0  0  0  0
M  RAD  2  10   2  11   2
M  END
$$$$
