47
rmsd79.gzmat
C          0.00000        0.00000        0.00000
C          1.39340        0.00000        0.00000
C          2.09420        0.00000        1.20400
C          1.40100        0.00340        2.41680
C          2.14710        0.01170        3.70550
S          2.14640        1.64320        4.46950
C          2.33620        2.81110        3.15470
C          3.52090        3.14240        2.62390
C          4.83490        2.62610        3.01300
C          5.36460        2.85040        4.22840
S          6.93270        2.33430        4.73900
C          7.60270        1.52590        3.33480
C          6.89000        1.37390        2.14670
C          5.51320        1.87610        1.94250
O          4.94100        1.65770        0.89240
C          7.49130        0.71040        1.06630
C          8.78020        0.20900        1.17780
C          9.48620        0.36660        2.37410
C          8.90320        1.02260        3.45110
C          1.10160        3.37670        2.60420
C          0.87280        3.28620        1.22510
C         -0.29190        3.80720        0.67020
C         -1.24020        4.42030        1.48760
C         -1.01430        4.51760        2.85860
C          0.15240        4.00130        3.41850
O          0.85710        1.83860        5.09910
O          3.34570        1.71750        5.29080
C          0.00280       -0.00030        2.41560
C         -0.69320       -0.00020        1.20970
H         -0.54560        0.00250       -0.94050
H          1.93930        0.00360       -0.94130
H          3.18520        0.00950        1.18820
H          3.19280       -0.33920        3.57810
H          1.70140       -0.71650        4.41870
H          3.56780        3.84550        1.77550
H          4.81100        3.38720        5.02020
H          6.92810        0.59320        0.13340
H          9.24260       -0.30660        0.33790
H         10.49920       -0.02780        2.46080
H          9.47110        1.13560        4.37620
H          1.60150        2.78630        0.58490
H         -0.46500        3.72860       -0.40030
H         -2.15560        4.81740        1.05610
H         -1.75540        4.99020        3.49960
H          0.30360        4.07060        4.49850
H         -0.54640        0.01570        3.35860
H         -1.78100        0.00830        1.21180
