47
rmsd149.gzmat
C          0.00000        0.00000        0.00000
C          1.39410        0.00000        0.00000
C          2.09370        0.00000        1.20350
C          1.39890        0.00490        2.41670
C          2.14630        0.02670        3.70460
S          2.79730        1.66860        4.05720
C          1.51140        2.80910        3.64400
C          0.50290        3.11770        4.47040
C          0.25140        2.57570        5.80650
C          1.07530        2.78710        6.84690
S          0.78630        2.24630        8.46390
C         -0.80010        1.50070        8.39570
C         -1.50810        1.35510        7.20390
C         -1.00360        1.80780        5.88970
O         -1.62440        1.54120        4.87920
C         -2.77360        0.74960        7.22540
C         -3.31840        0.30240        8.42080
C         -2.60000        0.45220        9.61070
C         -1.34410        1.04660        9.60260
C          1.54030        3.39140        2.29940
C          2.67010        4.04130        1.79680
C          2.63680        4.61190        0.52560
C          1.48160        4.54000       -0.24950
C          0.35570        3.88210        0.24300
C          0.38530        3.30770        1.50930
O          2.98930        1.74020        5.49820
O          3.93480        1.89460        3.19030
C          0.00200       -0.00150        2.41560
C         -0.69340       -0.00320        1.20870
H         -0.54490        0.00640       -0.94080
H          1.93810        0.00770       -0.94180
H          3.18520        0.01800        1.19640
H          2.98950       -0.69820        3.68090
H          1.51760       -0.31750        4.55230
H         -0.28260        3.81830        4.13880
H          2.03330        3.32720        6.73780
H         -3.32440        0.63400        6.28510
H         -4.30150       -0.16540        8.43420
H         -3.02940        0.10120       10.54960
H         -0.79900        1.15240       10.54220
H          3.59040        4.09340        2.38400
H          3.52180        5.11200        0.13810
H          1.45750        4.99320       -1.23770
H         -0.54460        3.81480       -0.36330
H         -0.48960        2.77460        1.88420
H         -0.55430        0.00950        3.35460
H         -1.78160       -0.00350        1.21350
