rmsd175.gzmat
 OpenBabel08211713383D

 47 50  0  0  0  0  0  0  0  0999 V2000
    0.0000    0.0000    0.0000 C   0  0  0  0  0  0  0  0  0  0  0  0
    1.3942    0.0000    0.0000 C   0  0  0  0  0  0  0  0  0  0  0  0
    2.0934    0.0000    1.2038 C   0  0  0  0  0  0  0  0  0  0  0  0
    1.3987   -0.0023    2.4172 C   0  0  0  0  0  0  0  0  0  0  0  0
    2.1458   -0.0028    3.7050 C   0  0  0  0  0  0  0  0  0  0  0  0
    2.7904    1.6303    4.1081 S   0  0  0  0  0  0  0  0  0  0  0  0
    1.5315    2.7921    3.6709 C   0  0  0  0  0  0  0  0  0  0  0  0
    0.4919    3.1050    4.4551 C   0  0  0  0  0  0  0  0  0  0  0  0
    0.1796    2.5444    5.7709 C   0  0  0  0  0  0  0  0  0  0  0  0
    0.9777    2.7047    6.8405 C   0  0  0  0  0  0  0  0  0  0  0  0
    0.6396    2.1096    8.4280 S   0  0  0  0  0  0  0  0  0  0  0  0
   -0.9495    1.3799    8.2898 C   0  0  0  0  0  0  0  0  0  0  0  0
   -1.6347    1.3025    7.0785 C   0  0  0  0  0  0  0  0  0  0  0  0
   -1.1011    1.8164    5.7983 C   0  0  0  0  0  0  0  0  0  0  0  0
   -1.7195    1.6303    4.7684 O   0  0  0  0  0  0  0  0  0  0  0  0
   -2.9064    0.7105    7.0452 C   0  0  0  0  0  0  0  0  0  0  0  0
   -3.4802    0.2108    8.2058 C   0  0  0  0  0  0  0  0  0  0  0  0
   -2.7835    0.2907    9.4150 C   0  0  0  0  0  0  0  0  0  0  0  0
   -1.5211    0.8697    9.4607 C   0  0  0  0  0  0  0  0  0  0  0  0
    1.6414    3.3880    2.3367 C   0  0  0  0  0  0  0  0  0  0  0  0
    2.7783    4.0999    1.9458 C   0  0  0  0  0  0  0  0  0  0  0  0
    2.8449    4.6568    0.6702 C   0  0  0  0  0  0  0  0  0  0  0  0
    1.7850    4.5031   -0.2210 C   0  0  0  0  0  0  0  0  0  0  0  0
    0.6489    3.7942    0.1660 C   0  0  0  0  0  0  0  0  0  0  0  0
    0.5750    3.2421    1.4409 C   0  0  0  0  0  0  0  0  0  0  0  0
    2.9325    1.6695    5.5562 O   0  0  0  0  0  0  0  0  0  0  0  0
    3.9588    1.8650    3.2861 O   0  0  0  0  0  0  0  0  0  0  0  0
    0.0018   -0.0046    2.4155 C   0  0  0  0  0  0  0  0  0  0  0  0
   -0.6937   -0.0013    1.2084 C   0  0  0  0  0  0  0  0  0  0  0  0
   -0.5445    0.0057   -0.9409 H   0  0  0  0  0  0  0  0  0  0  0  0
    1.9385    0.0056   -0.9420 H   0  0  0  0  0  0  0  0  0  0  0  0
    3.1844    0.0197    1.1964 H   0  0  0  0  0  0  0  0  0  0  0  0
    2.9952   -0.7198    3.6625 H   0  0  0  0  0  0  0  0  0  0  0  0
    1.5206   -0.3742    4.5439 H   0  0  0  0  0  0  0  0  0  0  0  0
   -0.2686    3.8214    4.0995 H   0  0  0  0  0  0  0  0  0  0  0  0
    1.9478    3.2309    6.7764 H   0  0  0  0  0  0  0  0  0  0  0  0
   -3.4394    0.6481    6.0897 H   0  0  0  0  0  0  0  0  0  0  0  0
   -4.4695   -0.2433    8.1765 H   0  0  0  0  0  0  0  0  0  0  0  0
   -3.2341   -0.1032   10.3265 H   0  0  0  0  0  0  0  0  0  0  0  0
   -0.9929    0.9205   10.4144 H   0  0  0  0  0  0  0  0  0  0  0  0
    3.6262    4.2075    2.6258 H   0  0  0  0  0  0  0  0  0  0  0  0
    3.7334    5.2071    0.3691 H   0  0  0  0  0  0  0  0  0  0  0  0
    1.8449    4.9327   -1.2181 H   0  0  0  0  0  0  0  0  0  0  0  0
   -0.1777    3.6673   -0.5290 H   0  0  0  0  0  0  0  0  0  0  0  0
   -0.3091    2.6756    1.7381 H   0  0  0  0  0  0  0  0  0  0  0  0
   -0.5544    0.0052    3.3543 H   0  0  0  0  0  0  0  0  0  0  0  0
   -1.7819    0.0042    1.2130 H   0  0  0  0  0  0  0  0  0  0  0  0
  1 29  1  0  0  0  0
  2  1  2  0  0  0  0
  2  3  1  0  0  0  0
  3  4  2  0  0  0  0
  4  5  1  0  0  0  0
  5  6  1  0  0  0  0
  5 34  1  0  0  0  0
  6 26  2  0  0  0  0
  7  6  1  0  0  0  0
  7  8  2  0  0  0  0
  8  9  1  0  0  0  0
  9 14  1  0  0  0  0
  9 10  2  0  0  0  0
 10 11  1  0  0  0  0
 12 11  1  0  0  0  0
 12 19  2  0  0  0  0
 13 12  1  0  0  0  0
 14 13  1  0  0  0  0
 15 14  2  0  0  0  0
 16 13  2  0  0  0  0
 16 17  1  0  0  0  0
 17 18  2  0  0  0  0
 18 19  1  0  0  0  0
 18 39  1  0  0  0  0
 19 40  1  0  0  0  0
 20  7  1  0  0  0  0
 21 20  1  0  0  0  0
 21 41  1  0  0  0  0
 22 21  2  0  0  0  0
 23 24  2  0  0  0  0
 23 22  1  0  0  0  0
 24 25  1  0  0  0  0
 25 45  1  0  0  0  0
 25 20  2  0  0  0  0
 27  6  2  0  0  0  0
 28  4  1  0  0  0  0
 28 46  1  0  0  0  0
 29 47  1  0  0  0  0
 29 28  2  0  0  0  0
 30  1  1  0  0  0  0
 31  2  1  0  0  0  0
 32  3  1  0  0  0  0
 33  5  1  0  0  0  0
 35  8  1  0  0  0  0
 36 10  1  0  0  0  0
 37 16  1  0  0  0  0
 38 17  1  0  0  0  0
 42 22  1  0  0  0  0
 43 23  1  0  0  0  0
 44 24  1  0  0  0  0
M  END
$$$$
