rmsd133.gzmat
 OpenBabel08211713383D

 47 50  0  0  0  0  0  0  0  0999 V2000
    0.0000    0.0000    0.0000 C   0  0  0  0  0  0  0  0  0  0  0  0
    1.3942    0.0000    0.0000 C   0  0  0  0  0  0  0  0  0  0  0  0
    2.0936    0.0000    1.2037 C   0  0  0  0  0  0  0  0  0  0  0  0
    1.3988    0.0036    2.4169 C   0  0  0  0  0  0  0  0  0  0  0  0
    2.1480    0.0205    3.7037 C   0  0  0  0  0  0  0  0  0  0  0  0
    2.8144    1.6583    4.0477 S   0  0  0  0  0  0  0  0  0  0  0  0
    1.4916    2.7899    3.7421 C   0  0  0  0  0  0  0  0  0  0  0  0
    0.4858    3.0110    4.5987 C   0  0  0  0  0  0  0  0  0  0  0  0
    0.2808    2.3761    5.9014 C   0  0  0  0  0  0  0  0  0  0  0  0
    1.1407    2.5247    6.9243 C   0  0  0  0  0  0  0  0  0  0  0  0
    0.9331    1.8504    8.5010 S   0  0  0  0  0  0  0  0  0  0  0  0
   -0.6089    1.0190    8.4189 C   0  0  0  0  0  0  0  0  0  0  0  0
   -1.3735    0.9700    7.2546 C   0  0  0  0  0  0  0  0  0  0  0  0
   -0.9712    1.6032    5.9797 C   0  0  0  0  0  0  0  0  0  0  0  0
   -1.6713    1.4738    4.9944 O   0  0  0  0  0  0  0  0  0  0  0  0
   -2.5980    0.2847    7.2662 C   0  0  0  0  0  0  0  0  0  0  0  0
   -3.0418   -0.3428    8.4216 C   0  0  0  0  0  0  0  0  0  0  0  0
   -2.2660   -0.2891    9.5835 C   0  0  0  0  0  0  0  0  0  0  0  0
   -1.0536    0.3897    9.5865 C   0  0  0  0  0  0  0  0  0  0  0  0
    1.4986    3.4686    2.4436 C   0  0  0  0  0  0  0  0  0  0  0  0
    2.5769    4.2595    2.0392 C   0  0  0  0  0  0  0  0  0  0  0  0
    2.5355    4.9154    0.8104 C   0  0  0  0  0  0  0  0  0  0  0  0
    1.4268    4.7801   -0.0223 C   0  0  0  0  0  0  0  0  0  0  0  0
    0.3535    3.9833    0.3739 C   0  0  0  0  0  0  0  0  0  0  0  0
    0.3872    3.3322    1.6029 C   0  0  0  0  0  0  0  0  0  0  0  0
    3.0942    1.6965    5.4758 O   0  0  0  0  0  0  0  0  0  0  0  0
    3.8926    1.9147    3.1174 O   0  0  0  0  0  0  0  0  0  0  0  0
    0.0019    0.0032    2.4159 C   0  0  0  0  0  0  0  0  0  0  0  0
   -0.6939    0.0044    1.2089 C   0  0  0  0  0  0  0  0  0  0  0  0
   -0.5435   -0.0005   -0.9417 H   0  0  0  0  0  0  0  0  0  0  0  0
    1.9382    0.0084   -0.9422 H   0  0  0  0  0  0  0  0  0  0  0  0
    3.1850    0.0192    1.1977 H   0  0  0  0  0  0  0  0  0  0  0  0
    2.9839   -0.7125    3.6825 H   0  0  0  0  0  0  0  0  0  0  0  0
    1.5171   -0.3133    4.5536 H   0  0  0  0  0  0  0  0  0  0  0  0
   -0.3274    3.7050    4.3242 H   0  0  0  0  0  0  0  0  0  0  0  0
    2.0833    3.0953    6.8222 H   0  0  0  0  0  0  0  0  0  0  0  0
   -3.1982    0.2524    6.3498 H   0  0  0  0  0  0  0  0  0  0  0  0
   -3.9911   -0.8763    8.4261 H   0  0  0  0  0  0  0  0  0  0  0  0
   -2.6144   -0.7824   10.4916 H   0  0  0  0  0  0  0  0  0  0  0  0
   -0.4635    0.4212   10.5043 H   0  0  0  0  0  0  0  0  0  0  0  0
    3.4621    4.3552    2.6710 H   0  0  0  0  0  0  0  0  0  0  0  0
    3.3767    5.5315    0.5000 H   0  0  0  0  0  0  0  0  0  0  0  0
    1.3998    5.2926   -0.9810 H   0  0  0  0  0  0  0  0  0  0  0  0
   -0.5090    3.8674   -0.2779 H   0  0  0  0  0  0  0  0  0  0  0  0
   -0.4487    2.7004    1.9073 H   0  0  0  0  0  0  0  0  0  0  0  0
   -0.5540    0.0153    3.3550 H   0  0  0  0  0  0  0  0  0  0  0  0
   -1.7822    0.0130    1.2136 H   0  0  0  0  0  0  0  0  0  0  0  0
  1 29  1  0  0  0  0
  2  1  2  0  0  0  0
  2  3  1  0  0  0  0
  3  4  2  0  0  0  0
  4  5  1  0  0  0  0
  5  6  1  0  0  0  0
  5 34  1  0  0  0  0
  6 26  2  0  0  0  0
  7  6  1  0  0  0  0
  7  8  2  0  0  0  0
  8  9  1  0  0  0  0
  9 14  1  0  0  0  0
  9 10  2  0  0  0  0
 10 11  1  0  0  0  0
 12 11  1  0  0  0  0
 12 19  2  0  0  0  0
 13 16  2  0  0  0  0
 13 12  1  0  0  0  0
 14 13  1  0  0  0  0
 15 14  2  0  0  0  0
 16 17  1  0  0  0  0
 17 38  1  0  0  0  0
 17 18  2  0  0  0  0
 18 19  1  0  0  0  0
 18 39  1  0  0  0  0
 19 40  1  0  0  0  0
 20  7  1  0  0  0  0
 21 20  1  0  0  0  0
 21 41  1  0  0  0  0
 22 21  2  0  0  0  0
 23 24  2  0  0  0  0
 23 22  1  0  0  0  0
 24 25  1  0  0  0  0
 25 45  1  0  0  0  0
 25 20  2  0  0  0  0
 27  6  2  0  0  0  0
 28  4  1  0  0  0  0
 28 46  1  0  0  0  0
 29 47  1  0  0  0  0
 29 28  2  0  0  0  0
 30  1  1  0  0  0  0
 31  2  1  0  0  0  0
 32  3  1  0  0  0  0
 33  5  1  0  0  0  0
 35  8  1  0  0  0  0
 36 10  1  0  0  0  0
 37 16  1  0  0  0  0
 42 22  1  0  0  0  0
 43 23  1  0  0  0  0
 44 24  1  0  0  0  0
M  END
$$$$
