60
rmsd209.gzmat
N          0.00000        0.00000        0.00000
C          1.42060        0.00000        0.00000
O          2.09130        0.00000        0.99540
C          1.82610       -0.00900       -1.43780
C          0.65810        0.06250       -2.23200
C          0.72720        0.09740       -3.60410
C          2.00590        0.05380       -4.19170
C          3.15260       -0.01850       -3.41230
C          3.07620       -0.04960       -2.00720
C         -0.52770        0.11740       -1.32360
O         -1.69920        0.19510       -1.56420
C         -0.80110        0.19240        1.20110
C         -0.73650        1.63800        1.73080
C         -1.36150        2.64760        0.75270
H         -2.15200        2.12400        0.13740
C         -1.99990        3.83300        1.48240
C         -3.27550        3.43880        2.18560
O         -3.69550        2.30670        2.12970
C         -3.99950        4.48010        2.95250
C         -5.18620        4.10990        3.59250
C         -5.90300        5.04100        4.33620
C         -5.43210        6.35230        4.45020
C         -4.24870        6.72550        3.80350
C         -3.53730        5.79350        3.05650
C         -6.17140        7.33420        5.24770
C         -7.52480        7.58000        4.97880
C         -8.23120        8.50490        5.72960
C         -7.56890        9.18510        6.76730
C         -6.22140        8.95540        7.04640
C         -5.52870        8.02530        6.27560
O         -8.37160       10.06890        7.40920
C         -7.88230       10.71880        8.57890
C         -7.87960        9.76370        9.76140
C         -0.28320        3.13170       -0.18160
O          0.11990        2.61390       -1.19150
O          0.27080        4.29570        0.24840
H         -0.17140        0.16490       -4.21650
H          2.08880        0.08230       -5.27790
H          4.13210       -0.04780       -3.88840
H          3.97710       -0.10070       -1.39700
H         -0.43200       -0.50940        1.98770
H         -1.85980       -0.09060        0.97570
H          0.31050        1.90900        1.97190
H         -1.28250        1.67200        2.69770
H         -2.21570        4.65260        0.76150
H         -1.27820        4.26760        2.20890
H         -5.54680        3.08020        3.50460
H         -6.82520        4.75040        4.83750
H         -3.89190        7.75130        3.88180
H         -2.61950        6.10410        2.55690
H         -8.01980        7.04190        4.16890
H         -9.27970        8.71440        5.53420
H         -5.71000        9.48630        7.84180
H         -4.47580        7.83190        6.48320
H         -8.63730       11.52380        8.69230
H         -6.89620       11.17390        8.38730
H         -8.87200        9.31570        9.90960
H         -7.60250       10.27530       10.69000
H         -7.17920        8.93140        9.61470
H          1.00570        4.61980       -0.32850
