
     RDKit          3D

 60 63  0  0  0  0  0  0  0  0999 V2000
    0.0691    0.0073   -0.1393 N   0  0  0  0  0  0  0  0  0  0  0  0
    1.4401    0.2353    0.0434 C   0  0  0  0  0  0  0  0  0  0  0  0
    2.0057    0.2869    1.1106 O   0  0  0  0  0  0  0  0  0  0  0  0
    2.0041    0.3926   -1.3328 C   0  0  0  0  0  0  0  0  0  0  0  0
    0.9685    0.2155   -2.2554 C   0  0  0  0  0  0  0  0  0  0  0  0
    1.1895    0.3115   -3.6222 C   0  0  0  0  0  0  0  0  0  0  0  0
    2.4959    0.5948   -4.0473 C   0  0  0  0  0  0  0  0  0  0  0  0
    3.5361    0.7701   -3.1229 C   0  0  0  0  0  0  0  0  0  0  0  0
    3.3021    0.6685   -1.7434 C   0  0  0  0  0  0  0  0  0  0  0  0
   -0.2909   -0.0614   -1.5000 C   0  0  0  0  0  0  0  0  0  0  0  0
   -1.3962   -0.3049   -1.9171 O   0  0  0  0  0  0  0  0  0  0  0  0
   -0.8822   -0.1181    0.9516 C   0  0  0  0  0  0  0  0  0  0  0  0
   -1.1878    1.2156    1.6369 C   0  0  0  0  0  0  0  0  0  0  0  0
   -1.6912    2.3057    0.6742 C   0  0  1  0  0  0  0  0  0  0  0  0
   -2.4754    1.8913    0.0262 H   0  0  0  0  0  0  0  0  0  0  0  0
   -2.2781    3.5063    1.4324 C   0  0  0  0  0  0  0  0  0  0  0  0
   -3.6285    3.2058    2.0742 C   0  0  0  0  0  0  0  0  0  0  0  0
   -4.1739    2.1298    1.9091 O   0  0  0  0  0  0  0  0  0  0  0  0
   -4.2692    4.2748    2.8977 C   0  0  0  0  0  0  0  0  0  0  0  0
   -5.5198    4.0053    3.4799 C   0  0  0  0  0  0  0  0  0  0  0  0
   -6.1644    4.9598    4.2559 C   0  0  0  0  0  0  0  0  0  0  0  0
   -5.5876    6.2269    4.4812 C   0  0  0  0  0  0  0  0  0  0  0  0
   -4.3361    6.4912    3.8925 C   0  0  0  0  0  0  0  0  0  0  0  0
   -3.6869    5.5344    3.1170 C   0  0  0  0  0  0  0  0  0  0  0  0
   -6.2744    7.2438    5.3076 C   0  0  0  0  0  0  0  0  0  0  0  0
   -7.6809    7.3386    5.3333 C   0  0  0  0  0  0  0  0  0  0  0  0
   -8.3283    8.2915    6.1076 C   0  0  0  0  0  0  0  0  0  0  0  0
   -7.5910    9.1916    6.8970 C   0  0  0  0  0  0  0  0  0  0  0  0
   -6.1895    9.1104    6.8890 C   0  0  0  0  0  0  0  0  0  0  0  0
   -5.5532    8.1507    6.1001 C   0  0  0  0  0  0  0  0  0  0  0  0
   -8.3150   10.0910    7.6038 O   0  0  0  0  0  0  0  0  0  0  0  0
   -7.6731   11.0074    8.4809 C   0  0  0  0  0  0  0  0  0  0  0  0
   -7.2936   10.3754    9.8124 C   0  0  0  0  0  0  0  0  0  0  0  0
   -0.6075    2.8179   -0.2569 C   0  0  0  0  0  0  0  0  0  0  0  0
   -0.7039    2.9357   -1.4540 O   0  0  0  0  0  0  0  0  0  0  0  0
    0.5111    3.1852    0.4085 O   0  0  0  0  0  0  0  0  0  0  0  0
    0.3694    0.1764   -4.3298 H   0  0  0  0  0  0  0  0  0  0  0  0
    2.7090    0.6823   -5.1152 H   0  0  0  0  0  0  0  0  0  0  0  0
    4.5433    0.9885   -3.4855 H   0  0  0  0  0  0  0  0  0  0  0  0
    4.1029    0.7992   -1.0126 H   0  0  0  0  0  0  0  0  0  0  0  0
   -0.4776   -0.8292    1.6873 H   0  0  0  0  0  0  0  0  0  0  0  0
   -1.7959   -0.5447    0.5145 H   0  0  0  0  0  0  0  0  0  0  0  0
   -0.2911    1.5757    2.1634 H   0  0  0  0  0  0  0  0  0  0  0  0
   -1.9679    1.0282    2.3877 H   0  0  0  0  0  0  0  0  0  0  0  0
   -2.4259    4.3586    0.7461 H   0  0  0  0  0  0  0  0  0  0  0  0
   -1.5701    3.8585    2.2003 H   0  0  0  0  0  0  0  0  0  0  0  0
   -5.9628    3.0222    3.3117 H   0  0  0  0  0  0  0  0  0  0  0  0
   -7.1217    4.7155    4.7203 H   0  0  0  0  0  0  0  0  0  0  0  0
   -3.8772    7.4728    4.0232 H   0  0  0  0  0  0  0  0  0  0  0  0
   -2.7224    5.7851    2.6731 H   0  0  0  0  0  0  0  0  0  0  0  0
   -8.2783    6.6687    4.7117 H   0  0  0  0  0  0  0  0  0  0  0  0
   -9.4167    8.3725    6.1141 H   0  0  0  0  0  0  0  0  0  0  0  0
   -5.5833    9.7793    7.4986 H   0  0  0  0  0  0  0  0  0  0  0  0
   -4.4633    8.0910    6.1304 H   0  0  0  0  0  0  0  0  0  0  0  0
   -8.4107   11.8086    8.6366 H   0  0  0  0  0  0  0  0  0  0  0  0
   -6.7981   11.4638    7.9851 H   0  0  0  0  0  0  0  0  0  0  0  0
   -8.1831    9.9446   10.2964 H   0  0  0  0  0  0  0  0  0  0  0  0
   -6.8664   11.1362   10.4847 H   0  0  0  0  0  0  0  0  0  0  0  0
   -6.5514    9.5729    9.6879 H   0  0  0  0  0  0  0  0  0  0  0  0
    1.1444    3.4988   -0.2597 H   0  0  0  0  0  0  0  0  0  0  0  0
  1  2  1  0
  1 10  1  0
  1 12  1  0
  2  3  2  0
  2  4  1  0
  4  5  2  0
  4  9  1  0
  5  6  1  0
  5 10  1  0
  6  7  2  0
  6 37  1  0
  7  8  1  0
  7 38  1  0
  8  9  2  0
  8 39  1  0
  9 40  1  0
 10 11  2  0
 12 13  1  0
 12 41  1  0
 12 42  1  0
 13 14  1  0
 13 43  1  0
 13 44  1  0
 14 15  1  6
 14 16  1  0
 14 34  1  0
 16 17  1  0
 16 45  1  0
 16 46  1  0
 17 18  2  0
 17 19  1  0
 19 20  2  0
 19 24  1  0
 20 21  1  0
 20 47  1  0
 21 22  2  0
 21 48  1  0
 22 23  1  0
 22 25  1  0
 23 24  2  0
 23 49  1  0
 24 50  1  0
 25 26  2  0
 25 30  1  0
 26 27  1  0
 26 51  1  0
 27 28  2  0
 27 52  1  0
 28 29  1  0
 28 31  1  0
 29 30  2  0
 29 53  1  0
 30 54  1  0
 31 32  1  0
 32 33  1  0
 32 55  1  0
 32 56  1  0
 33 57  1  0
 33 58  1  0
 33 59  1  0
 34 35  2  0
 34 36  1  0
 36 60  1  0
M  END

