60
rmsd243.gzmat
N          0.00000        0.00000        0.00000
C          1.42320        0.00000        0.00000
O          2.09370        0.00000        0.99260
C          1.82150       -0.00730       -1.44100
C          0.64740        0.01120       -2.23020
C          0.70850        0.00860       -3.60250
C          1.98560       -0.01240       -4.19700
C          3.13730       -0.02890       -3.42290
C          3.06920       -0.02820       -2.01570
C         -0.53480        0.02990       -1.31540
O         -1.70840        0.05450       -1.56190
C         -0.81190        0.08490        1.20750
C         -0.98840        1.55580        1.63440
C         -1.75130        1.68870        2.95760
H         -1.85720        2.78710        3.20010
C         -3.14240        1.05150        2.89760
C         -4.06640        1.62720        3.94660
O         -3.76370        2.61740        4.56910
C         -5.35200        0.93430        4.19150
C         -5.96720        1.12040        5.43230
C         -7.18090        0.50020        5.71020
C         -7.79160       -0.30130        4.74140
C         -7.17590       -0.48470        3.49840
C         -5.95780        0.12820        3.22610
C         -9.07630       -0.94780        5.02360
C         -9.20260       -1.80040        6.12890
C        -10.41030       -2.42170        6.39960
C        -11.50580       -2.17460        5.55310
C        -11.39960       -1.32390        4.45240
C        -10.17340       -0.71600        4.19370
O        -12.62810       -2.82230        5.95200
C        -13.78140       -2.78170        5.11740
C        -13.60900       -3.70340        3.92130
C         -0.93930        1.03570        4.04890
O         -1.06360       -0.06360        4.52140
O          0.04820        1.86790        4.45990
H         -0.19450        0.02260       -4.21340
H          2.06110       -0.01520       -5.28470
H          4.11600       -0.04350       -3.90380
H          3.97550       -0.04460       -1.40950
H         -0.31640       -0.50510        2.01820
H         -1.80090       -0.39150        1.00780
H         -1.51400        2.11880        0.83760
H          0.00840        2.03860        1.73070
H         -3.07240       -0.05260        3.03030
H         -3.58950        1.21150        1.89270
H         -5.48980        1.75980        6.18020
H         -7.66300        0.64650        6.67570
H         -7.65110       -1.11590        2.74960
H         -5.48880       -0.02410        2.25470
H         -8.34010       -1.97970        6.77270
H        -10.52830       -3.09150        7.24780
H        -12.24740       -1.12740        3.80550
H        -10.07350       -0.04630        3.33870
H        -14.02050       -1.74330        4.83490
H        -14.55360       -3.15220        5.82270
H        -12.80680       -3.36300        3.25450
H        -14.52930       -3.77280        3.33090
H        -13.34050       -4.71920        4.24290
H          0.62770        1.48110        5.16220
