60

N         -0.20050        0.04790        0.11600
C          1.20120        0.04940        0.13550
O          1.88850        0.01800        1.13220
C          1.62490        0.11410       -1.29540
C          0.47640        0.17910       -2.09030
C          0.55750        0.26420       -3.47300
C          1.83890        0.28580       -4.04580
C          2.98970        0.21960       -3.24920
C          2.89460        0.12980       -1.85290
C         -0.71560        0.13320       -1.19020
O         -1.89010        0.15050       -1.47200
C         -1.04380       -0.05910        1.29780
C         -1.57310        1.29970        1.75970
C         -0.46380        2.25000        2.24690
H          0.47550        1.95690        1.74850
C         -0.73510        3.72360        1.89170
C         -0.72380        3.91370        0.38510
O         -1.75690        4.11510       -0.22720
C          0.57690        3.76080       -0.34040
C          1.82420        3.72090        0.30500
C          2.99700        3.56540       -0.42830
C          2.97080        3.43260       -1.82940
C          1.71490        3.48080       -2.46750
C          0.54440        3.64570       -1.73990
C          4.20960        3.20360       -2.60470
C          5.32550        2.56150       -2.02960
C          6.46390        2.27780       -2.77140
C          6.53950        2.63630       -4.12910
C          5.44510        3.28970       -4.71770
C          4.30700        3.56400       -3.95760
O          7.69580        2.32850       -4.76150
C          7.84390        2.56900       -6.15530
C          7.15290        1.51500       -7.00820
C         -0.10290        2.11660        3.71610
O          0.44070        2.97180        4.37110
O         -0.40660        0.90550        4.22390
H         -0.34650        0.31770       -4.08280
H          1.94410        0.36090       -5.13050
H          3.97440        0.25860       -3.71890
H          3.78320        0.08880       -1.22190
H         -0.44210       -0.53070        2.08570
H         -1.88450       -0.72040        1.04320
H         -2.31890        1.14180        2.55320
H         -2.10710        1.76390        0.91740
H          0.02120        4.35320        2.38090
H         -1.72550        4.03110        2.25630
H          1.89300        3.82140        1.38930
H          3.95180        3.55930        0.09910
H          1.65290        3.34200       -3.54700
H         -0.42880        3.66740       -2.23320
H          5.28960        2.24620       -0.98560
H          7.31960        1.76910       -2.32410
H          5.46900        3.59730       -5.76250
H          3.47800        4.08690       -4.43740
H          8.93000        2.54650       -6.32790
H          7.49630        3.58630       -6.40800
H          7.52710        0.51210       -6.75200
H          7.35540        1.69870       -8.07520
H          6.06250        1.52060       -6.86190
H         -0.08090        0.89650        5.14040
