
     RDKit          3D

 60 63  0  0  0  0  0  0  0  0999 V2000
   -0.1118    0.0349    0.2585 N   0  0  0  0  0  0  0  0  0  0  0  0
    1.2892    0.1142    0.3513 C   0  0  0  0  0  0  0  0  0  0  0  0
    1.9095    0.2494    1.3791 O   0  0  0  0  0  0  0  0  0  0  0  0
    1.7923    0.0047   -1.0513 C   0  0  0  0  0  0  0  0  0  0  0  0
    0.6894   -0.1331   -1.8997 C   0  0  0  0  0  0  0  0  0  0  0  0
    0.8427   -0.2557   -3.2726 C   0  0  0  0  0  0  0  0  0  0  0  0
    2.1484   -0.2424   -3.7844 C   0  0  0  0  0  0  0  0  0  0  0  0
    3.2534   -0.1059   -2.9340 C   0  0  0  0  0  0  0  0  0  0  0  0
    3.0887    0.0225   -1.5460 C   0  0  0  0  0  0  0  0  0  0  0  0
   -0.5481   -0.1385   -1.0617 C   0  0  0  0  0  0  0  0  0  0  0  0
   -1.7005   -0.2780   -1.4074 O   0  0  0  0  0  0  0  0  0  0  0  0
   -0.9884    0.1106    1.4188 C   0  0  0  0  0  0  0  0  0  0  0  0
   -1.0843   -1.2241    2.1582 C   0  0  0  0  0  0  0  0  0  0  0  0
   -1.7686   -2.3134    1.3255 C   0  0  1  0  0  0  0  0  0  0  0  0
   -1.5679   -2.1323    0.2586 H   0  0  0  0  0  0  0  0  0  0  0  0
   -1.2439   -3.7314    1.6462 C   0  0  0  0  0  0  0  0  0  0  0  0
    0.2140   -3.8479    1.2264 C   0  0  0  0  0  0  0  0  0  0  0  0
    1.1005   -3.9310    2.0553 O   0  0  0  0  0  0  0  0  0  0  0  0
    0.5322   -3.7664   -0.2346 C   0  0  0  0  0  0  0  0  0  0  0  0
   -0.4313   -3.9199   -1.2462 C   0  0  0  0  0  0  0  0  0  0  0  0
   -0.0716   -3.8275   -2.5871 C   0  0  0  0  0  0  0  0  0  0  0  0
    1.2558   -3.5601   -2.9725 C   0  0  0  0  0  0  0  0  0  0  0  0
    2.2139   -3.4078   -1.9501 C   0  0  0  0  0  0  0  0  0  0  0  0
    1.8618   -3.5166   -0.6111 C   0  0  0  0  0  0  0  0  0  0  0  0
    1.6271   -3.3997   -4.3956 C   0  0  0  0  0  0  0  0  0  0  0  0
    0.6917   -2.9719   -5.3512 C   0  0  0  0  0  0  0  0  0  0  0  0
    1.0430   -2.7400   -6.6818 C   0  0  0  0  0  0  0  0  0  0  0  0
    2.3672   -2.9451   -7.1018 C   0  0  0  0  0  0  0  0  0  0  0  0
    3.3139   -3.3892   -6.1617 C   0  0  0  0  0  0  0  0  0  0  0  0
    2.9474   -3.6110   -4.8414 C   0  0  0  0  0  0  0  0  0  0  0  0
    2.8211   -2.7657   -8.3638 O   0  0  0  0  0  0  0  0  0  0  0  0
    1.9611   -2.2574   -9.3763 C   0  0  0  0  0  0  0  0  0  0  0  0
    1.7873   -0.7479   -9.2926 C   0  0  0  0  0  0  0  0  0  0  0  0
   -3.2796   -2.2201    1.4155 C   0  0  0  0  0  0  0  0  0  0  0  0
   -3.9023   -1.4059    2.0501 O   0  0  0  0  0  0  0  0  0  0  0  0
   -3.8836   -3.1584    0.6542 O   0  0  0  0  0  0  0  0  0  0  0  0
   -0.0246   -0.3737   -3.9233 H   0  0  0  0  0  0  0  0  0  0  0  0
    2.3075   -0.3625   -4.8577 H   0  0  0  0  0  0  0  0  0  0  0  0
    4.2587   -0.1066   -3.3615 H   0  0  0  0  0  0  0  0  0  0  0  0
    3.9415    0.1264   -0.8723 H   0  0  0  0  0  0  0  0  0  0  0  0
   -1.9768    0.4324    1.0632 H   0  0  0  0  0  0  0  0  0  0  0  0
   -0.5838    0.8829    2.0883 H   0  0  0  0  0  0  0  0  0  0  0  0
   -1.6435   -1.0728    3.0935 H   0  0  0  0  0  0  0  0  0  0  0  0
   -0.0685   -1.5419    2.4349 H   0  0  0  0  0  0  0  0  0  0  0  0
   -1.8559   -4.4805    1.1243 H   0  0  0  0  0  0  0  0  0  0  0  0
   -1.2956   -3.9299    2.7260 H   0  0  0  0  0  0  0  0  0  0  0  0
   -1.4744   -4.1202   -0.9965 H   0  0  0  0  0  0  0  0  0  0  0  0
   -0.8378   -3.9770   -3.3489 H   0  0  0  0  0  0  0  0  0  0  0  0
    3.2439   -3.1605   -2.2076 H   0  0  0  0  0  0  0  0  0  0  0  0
    2.6035   -3.3877    0.1790 H   0  0  0  0  0  0  0  0  0  0  0  0
   -0.3375   -2.7727   -5.0485 H   0  0  0  0  0  0  0  0  0  0  0  0
    0.2794   -2.3915   -7.3760 H   0  0  0  0  0  0  0  0  0  0  0  0
    4.3360   -3.5631   -6.5028 H   0  0  0  0  0  0  0  0  0  0  0  0
    3.7033   -3.9713   -4.1418 H   0  0  0  0  0  0  0  0  0  0  0  0
    0.9884   -2.7796   -9.3503 H   0  0  0  0  0  0  0  0  0  0  0  0
    2.4507   -2.5324  -10.3221 H   0  0  0  0  0  0  0  0  0  0  0  0
    1.2909   -0.4434   -8.3591 H   0  0  0  0  0  0  0  0  0  0  0  0
    1.1767   -0.3895  -10.1364 H   0  0  0  0  0  0  0  0  0  0  0  0
    2.7671   -0.2485   -9.3372 H   0  0  0  0  0  0  0  0  0  0  0  0
   -4.8414   -3.0104    0.7331 H   0  0  0  0  0  0  0  0  0  0  0  0
  1  2  1  0
  1 10  1  0
  1 12  1  0
  2  3  2  0
  2  4  1  0
  4  5  2  0
  4  9  1  0
  5  6  1  0
  5 10  1  0
  6  7  2  0
  6 37  1  0
  7  8  1  0
  7 38  1  0
  8  9  2  0
  8 39  1  0
  9 40  1  0
 10 11  2  0
 12 13  1  0
 12 41  1  0
 12 42  1  0
 13 14  1  0
 13 43  1  0
 13 44  1  0
 14 15  1  6
 14 16  1  0
 14 34  1  0
 16 17  1  0
 16 45  1  0
 16 46  1  0
 17 18  2  0
 17 19  1  0
 19 20  2  0
 19 24  1  0
 20 21  1  0
 20 47  1  0
 21 22  2  0
 21 48  1  0
 22 23  1  0
 22 25  1  0
 23 24  2  0
 23 49  1  0
 24 50  1  0
 25 26  2  0
 25 30  1  0
 26 27  1  0
 26 51  1  0
 27 28  2  0
 27 52  1  0
 28 29  1  0
 28 31  1  0
 29 30  2  0
 29 53  1  0
 30 54  1  0
 31 32  1  0
 32 33  1  0
 32 55  1  0
 32 56  1  0
 33 57  1  0
 33 58  1  0
 33 59  1  0
 34 35  2  0
 34 36  1  0
 36 60  1  0
M  END

