60
rmsd246.gzmat
N          0.00000        0.00000        0.00000
C          1.42270        0.00000        0.00000
O          2.09420        0.00000        0.99250
C          1.82170        0.00630       -1.44060
C          0.64780       -0.01490       -2.22980
C          0.70970       -0.01350       -3.60210
C          1.98690        0.01050       -4.19590
C          3.13840        0.03140       -3.42140
C          3.06960        0.02950       -2.01430
C         -0.53530       -0.03330       -1.31580
O         -1.70800       -0.06400       -1.56370
C         -0.80800       -0.06370        1.21080
C         -1.19290       -1.52200        1.53060
C         -1.75140       -1.63710        2.95480
H         -2.47600       -0.79700        3.15040
C         -2.46770       -2.97630        3.15800
C         -3.29550       -2.94600        4.42700
O         -4.06070       -2.03300        4.62780
C         -3.16850       -4.06600        5.38380
C         -1.93260       -4.64760        5.66700
C         -1.84690       -5.66850        6.60770
C         -2.99640       -6.10900        7.27080
C         -4.23520       -5.52700        6.98220
C         -4.31880       -4.50230        6.04580
C         -2.89870       -7.16370        8.28400
C         -2.31580       -8.39750        7.96560
C         -2.20910       -9.39060        8.92570
C         -2.68950       -9.13590       10.22210
C         -3.27530       -7.91410       10.55570
C         -3.37920       -6.93230        9.57390
O         -2.54330      -10.19730       11.05420
C         -2.79990      -10.01820       12.44390
C         -1.66810       -9.24550       13.10150
C         -0.59520       -1.54900        3.92240
O          0.07110       -2.44090        4.37780
O         -0.35090       -0.25780        4.25380
H         -0.19280       -0.02960       -4.21350
H          2.06300        0.01270       -5.28370
H          4.11700        0.04910       -3.90190
H          3.97580        0.04550       -1.40780
H         -1.72490        0.55720        1.07040
H         -0.22720        0.39140        2.05270
H         -0.31730       -2.18920        1.40030
H         -1.94350       -1.87180        0.79310
H         -1.74310       -3.81580        3.15210
H         -3.15750       -3.17590        2.30790
H         -1.02310       -4.29350        5.17160
H         -0.88120       -6.11510        6.83960
H         -5.13020       -5.87610        7.49380
H         -5.27890       -4.02860        5.83180
H         -1.94820       -8.57520        6.95420
H         -1.76230      -10.35520        8.69920
H         -3.64890       -7.72000       11.55510
H         -3.83240       -5.97050        9.81830
H         -2.83910      -11.07420       12.78120
H         -3.78810       -9.55420       12.60000
H         -0.70540       -9.75380       12.95700
H         -1.82870       -9.13540       14.17940
H         -1.56000       -8.23980       12.67410
H          0.42180       -0.14080        4.86200
