
     RDKit          3D

 60 63  0  0  0  0  0  0  0  0999 V2000
    0.0795    0.0712   -0.0122 N   0  0  0  0  0  0  0  0  0  0  0  0
    1.4737    0.1476   -0.1476 C   0  0  0  0  0  0  0  0  0  0  0  0
    2.2603    0.2197    0.7669 O   0  0  0  0  0  0  0  0  0  0  0  0
    1.7331    0.1209   -1.6211 C   0  0  0  0  0  0  0  0  0  0  0  0
    0.5018    0.0434   -2.2805 C   0  0  0  0  0  0  0  0  0  0  0  0
    0.4221    0.0027   -3.6661 C   0  0  0  0  0  0  0  0  0  0  0  0
    1.6268    0.0427   -4.3845 C   0  0  0  0  0  0  0  0  0  0  0  0
    2.8609    0.1203   -3.7235 C   0  0  0  0  0  0  0  0  0  0  0  0
    2.9306    0.1603   -2.3226 C   0  0  0  0  0  0  0  0  0  0  0  0
   -0.5802    0.0185   -1.2479 C   0  0  0  0  0  0  0  0  0  0  0  0
   -1.7792   -0.0354   -1.3967 O   0  0  0  0  0  0  0  0  0  0  0  0
   -0.6096    0.1078    1.2632 C   0  0  0  0  0  0  0  0  0  0  0  0
   -0.8915    1.5432    1.7186 C   0  0  0  0  0  0  0  0  0  0  0  0
   -1.6153    1.6440    3.0769 C   0  0  1  0  0  0  0  0  0  0  0  0
   -1.7475    2.7095    3.3106 H   0  0  0  0  0  0  0  0  0  0  0  0
   -2.9769    0.9564    3.0852 C   0  0  0  0  0  0  0  0  0  0  0  0
   -3.7750    1.2832    4.3398 C   0  0  0  0  0  0  0  0  0  0  0  0
   -3.2984    1.9953    5.2059 O   0  0  0  0  0  0  0  0  0  0  0  0
   -5.1463    0.7109    4.4787 C   0  0  0  0  0  0  0  0  0  0  0  0
   -5.8876    1.0236    5.6310 C   0  0  0  0  0  0  0  0  0  0  0  0
   -7.1696    0.5199    5.8105 C   0  0  0  0  0  0  0  0  0  0  0  0
   -7.7637   -0.3210    4.8469 C   0  0  0  0  0  0  0  0  0  0  0  0
   -7.0135   -0.6335    3.6971 C   0  0  0  0  0  0  0  0  0  0  0  0
   -5.7298   -0.1266    3.5137 C   0  0  0  0  0  0  0  0  0  0  0  0
   -9.1293   -0.8576    5.0384 C   0  0  0  0  0  0  0  0  0  0  0  0
   -9.6204   -1.1698    6.3226 C   0  0  0  0  0  0  0  0  0  0  0  0
  -10.8996   -1.6769    6.5053 C   0  0  0  0  0  0  0  0  0  0  0  0
  -11.7481   -1.8880    5.4044 C   0  0  0  0  0  0  0  0  0  0  0  0
  -11.2785   -1.5824    4.1174 C   0  0  0  0  0  0  0  0  0  0  0  0
   -9.9883   -1.0767    3.9499 C   0  0  0  0  0  0  0  0  0  0  0  0
  -12.9826   -2.3665    5.6896 O   0  0  0  0  0  0  0  0  0  0  0  0
  -13.8889   -2.6961    4.6454 C   0  0  0  0  0  0  0  0  0  0  0  0
  -13.5753   -4.0374    3.9983 C   0  0  0  0  0  0  0  0  0  0  0  0
   -0.7314    1.0645    4.1671 C   0  0  0  0  0  0  0  0  0  0  0  0
   -0.7926   -0.0700    4.5772 O   0  0  0  0  0  0  0  0  0  0  0  0
    0.1978    1.9411    4.5817 O   0  0  0  0  0  0  0  0  0  0  0  0
   -0.5453   -0.0581   -4.1685 H   0  0  0  0  0  0  0  0  0  0  0  0
    1.6055    0.0132   -5.4763 H   0  0  0  0  0  0  0  0  0  0  0  0
    3.7816    0.1500   -4.3108 H   0  0  0  0  0  0  0  0  0  0  0  0
    3.8849    0.2203   -1.7956 H   0  0  0  0  0  0  0  0  0  0  0  0
    0.0145   -0.4200    1.9975 H   0  0  0  0  0  0  0  0  0  0  0  0
   -1.5456   -0.4528    1.1364 H   0  0  0  0  0  0  0  0  0  0  0  0
   -1.5068    2.0444    0.9538 H   0  0  0  0  0  0  0  0  0  0  0  0
    0.0628    2.0886    1.7822 H   0  0  0  0  0  0  0  0  0  0  0  0
   -2.8556   -0.1374    3.0394 H   0  0  0  0  0  0  0  0  0  0  0  0
   -3.5595    1.2481    2.1954 H   0  0  0  0  0  0  0  0  0  0  0  0
   -5.4297    1.6795    6.3732 H   0  0  0  0  0  0  0  0  0  0  0  0
   -7.7360    0.8003    6.7006 H   0  0  0  0  0  0  0  0  0  0  0  0
   -7.4333   -1.3070    2.9478 H   0  0  0  0  0  0  0  0  0  0  0  0
   -5.1789   -0.4028    2.6135 H   0  0  0  0  0  0  0  0  0  0  0  0
   -8.9753   -1.0374    7.1935 H   0  0  0  0  0  0  0  0  0  0  0  0
  -11.2732   -1.9284    7.4994 H   0  0  0  0  0  0  0  0  0  0  0  0
  -11.9082   -1.7244    3.2399 H   0  0  0  0  0  0  0  0  0  0  0  0
   -9.6546   -0.8235    2.9415 H   0  0  0  0  0  0  0  0  0  0  0  0
  -13.9242   -1.8844    3.8973 H   0  0  0  0  0  0  0  0  0  0  0  0
  -14.8750   -2.7296    5.1320 H   0  0  0  0  0  0  0  0  0  0  0  0
  -12.5954   -4.0311    3.4981 H   0  0  0  0  0  0  0  0  0  0  0  0
  -14.3421   -4.2842    3.2470 H   0  0  0  0  0  0  0  0  0  0  0  0
  -13.5647   -4.8336    4.7581 H   0  0  0  0  0  0  0  0  0  0  0  0
    0.7503    1.4780    5.2348 H   0  0  0  0  0  0  0  0  0  0  0  0
  1  2  1  0
  1 10  1  0
  1 12  1  0
  2  3  2  0
  2  4  1  0
  4  5  2  0
  4  9  1  0
  5  6  1  0
  5 10  1  0
  6  7  2  0
  6 37  1  0
  7  8  1  0
  7 38  1  0
  8  9  2  0
  8 39  1  0
  9 40  1  0
 10 11  2  0
 12 13  1  0
 12 41  1  0
 12 42  1  0
 13 14  1  0
 13 43  1  0
 13 44  1  0
 14 15  1  1
 14 16  1  0
 14 34  1  0
 16 17  1  0
 16 45  1  0
 16 46  1  0
 17 18  2  0
 17 19  1  0
 19 20  2  0
 19 24  1  0
 20 21  1  0
 20 47  1  0
 21 22  2  0
 21 48  1  0
 22 23  1  0
 22 25  1  0
 23 24  2  0
 23 49  1  0
 24 50  1  0
 25 26  2  0
 25 30  1  0
 26 27  1  0
 26 51  1  0
 27 28  2  0
 27 52  1  0
 28 29  1  0
 28 31  1  0
 29 30  2  0
 29 53  1  0
 30 54  1  0
 31 32  1  0
 32 33  1  0
 32 55  1  0
 32 56  1  0
 33 57  1  0
 33 58  1  0
 33 59  1  0
 34 35  2  0
 34 36  1  0
 36 60  1  0
M  END

