60
rmsd181.gzmat
N          0.00000        0.00000        0.00000
C          1.42260        0.00000        0.00000
O          2.09150        0.00000        0.99620
C          1.82910       -0.02210       -1.43750
C          0.66190        0.06080       -2.23160
C          0.73090        0.08300       -3.60390
C          2.00870        0.01450       -4.19090
C          3.15480       -0.06990       -3.41140
C          3.07870       -0.08760       -2.00600
C         -0.52190        0.14010       -1.32160
O         -1.69100        0.25270       -1.56680
C         -0.79100        0.23030        1.20130
C         -0.77030        1.70510        1.64770
C         -1.52400        2.61910        0.66450
H         -2.25970        1.99490        0.07130
C         -2.29470        3.72380        1.39200
C         -3.47370        3.16730        2.15030
O         -3.68680        1.97950        2.20830
C         -4.38940        4.13440        2.80080
C         -5.73050        3.76760        2.93680
C         -6.63240        4.63560        3.54270
C         -6.19380        5.87210        4.02740
C         -4.84830        6.23320        3.89710
C         -3.94930        5.36690        3.28380
C         -7.14280        6.78450        4.67080
C         -7.94630        6.33570        5.72020
C         -8.85920        7.19140        6.33120
C         -8.95580        8.50560        5.87240
C         -8.15190        8.97740        4.81940
C         -7.24720        8.11070        4.22890
O         -9.77060        9.46400        6.37760
C        -10.77970        9.08950        7.31090
C        -11.92600        8.38470        6.60440
C         -0.53310        3.19330       -0.31240
O          0.12230        2.60830       -1.13720
O         -0.41000        4.54050       -0.18670
H         -0.16650        0.15780       -4.21700
H          2.09170        0.03340       -5.27700
H          4.13330       -0.11910       -3.88790
H          3.97860       -0.14610       -1.39480
H         -0.38440       -0.41360        2.01900
H         -1.84180       -0.10240        1.01100
H          0.27420        2.04280        1.79380
H         -1.24280        1.76400        2.65120
H         -2.65260        4.48890        0.66580
H         -1.61820        4.28070        2.07450
H         -6.06470        2.79420        2.56760
H         -7.68080        4.35750        3.63660
H         -4.50720        7.19210        4.28460
H         -2.90320        5.65760        3.19220
H         -7.85340        5.30720        6.07220
H         -9.47300        6.83230        7.15020
H         -8.25340       10.00730        4.48670
H         -6.61690        8.45620        3.40830
H        -11.07430       10.08670        7.69780
H        -10.34860        8.49670        8.13470
H        -12.29790        8.98370        5.76140
H        -12.76840        8.20730        7.28220
H        -11.61840        7.41550        6.19210
H          0.23880        4.93810       -0.81860
