
     RDKit          3D

 60 63  0  0  0  0  0  0  0  0999 V2000
   -0.2005    0.0479    0.1160 N   0  0  0  0  0  0  0  0  0  0  0  0
    1.2012    0.0494    0.1355 C   0  0  0  0  0  0  0  0  0  0  0  0
    1.8885    0.0180    1.1322 O   0  0  0  0  0  0  0  0  0  0  0  0
    1.6249    0.1141   -1.2954 C   0  0  0  0  0  0  0  0  0  0  0  0
    0.4764    0.1791   -2.0903 C   0  0  0  0  0  0  0  0  0  0  0  0
    0.5575    0.2642   -3.4730 C   0  0  0  0  0  0  0  0  0  0  0  0
    1.8389    0.2858   -4.0458 C   0  0  0  0  0  0  0  0  0  0  0  0
    2.9897    0.2196   -3.2492 C   0  0  0  0  0  0  0  0  0  0  0  0
    2.8946    0.1298   -1.8529 C   0  0  0  0  0  0  0  0  0  0  0  0
   -0.7156    0.1332   -1.1902 C   0  0  0  0  0  0  0  0  0  0  0  0
   -1.8901    0.1505   -1.4720 O   0  0  0  0  0  0  0  0  0  0  0  0
   -1.0438   -0.0591    1.2978 C   0  0  0  0  0  0  0  0  0  0  0  0
   -1.5731    1.2997    1.7597 C   0  0  0  0  0  0  0  0  0  0  0  0
   -0.4638    2.2500    2.2469 C   0  0  1  0  0  0  0  0  0  0  0  0
    0.4755    1.9569    1.7485 H   0  0  0  0  0  0  0  0  0  0  0  0
   -0.7351    3.7236    1.8917 C   0  0  0  0  0  0  0  0  0  0  0  0
   -0.7238    3.9137    0.3851 C   0  0  0  0  0  0  0  0  0  0  0  0
   -1.7569    4.1151   -0.2272 O   0  0  0  0  0  0  0  0  0  0  0  0
    0.5769    3.7608   -0.3404 C   0  0  0  0  0  0  0  0  0  0  0  0
    1.8242    3.7209    0.3050 C   0  0  0  0  0  0  0  0  0  0  0  0
    2.9970    3.5654   -0.4283 C   0  0  0  0  0  0  0  0  0  0  0  0
    2.9708    3.4326   -1.8294 C   0  0  0  0  0  0  0  0  0  0  0  0
    1.7149    3.4808   -2.4675 C   0  0  0  0  0  0  0  0  0  0  0  0
    0.5444    3.6457   -1.7399 C   0  0  0  0  0  0  0  0  0  0  0  0
    4.2096    3.2036   -2.6047 C   0  0  0  0  0  0  0  0  0  0  0  0
    5.3255    2.5615   -2.0296 C   0  0  0  0  0  0  0  0  0  0  0  0
    6.4639    2.2778   -2.7714 C   0  0  0  0  0  0  0  0  0  0  0  0
    6.5395    2.6363   -4.1291 C   0  0  0  0  0  0  0  0  0  0  0  0
    5.4451    3.2897   -4.7177 C   0  0  0  0  0  0  0  0  0  0  0  0
    4.3070    3.5640   -3.9576 C   0  0  0  0  0  0  0  0  0  0  0  0
    7.6958    2.3285   -4.7615 O   0  0  0  0  0  0  0  0  0  0  0  0
    7.8439    2.5690   -6.1553 C   0  0  0  0  0  0  0  0  0  0  0  0
    7.1529    1.5150   -7.0082 C   0  0  0  0  0  0  0  0  0  0  0  0
   -0.1029    2.1166    3.7161 C   0  0  0  0  0  0  0  0  0  0  0  0
    0.4407    2.9718    4.3711 O   0  0  0  0  0  0  0  0  0  0  0  0
   -0.4066    0.9055    4.2239 O   0  0  0  0  0  0  0  0  0  0  0  0
   -0.3465    0.3177   -4.0828 H   0  0  0  0  0  0  0  0  0  0  0  0
    1.9441    0.3609   -5.1305 H   0  0  0  0  0  0  0  0  0  0  0  0
    3.9744    0.2586   -3.7189 H   0  0  0  0  0  0  0  0  0  0  0  0
    3.7832    0.0888   -1.2219 H   0  0  0  0  0  0  0  0  0  0  0  0
   -0.4421   -0.5307    2.0857 H   0  0  0  0  0  0  0  0  0  0  0  0
   -1.8845   -0.7204    1.0432 H   0  0  0  0  0  0  0  0  0  0  0  0
   -2.3189    1.1418    2.5532 H   0  0  0  0  0  0  0  0  0  0  0  0
   -2.1071    1.7639    0.9174 H   0  0  0  0  0  0  0  0  0  0  0  0
    0.0212    4.3532    2.3809 H   0  0  0  0  0  0  0  0  0  0  0  0
   -1.7255    4.0311    2.2563 H   0  0  0  0  0  0  0  0  0  0  0  0
    1.8930    3.8214    1.3893 H   0  0  0  0  0  0  0  0  0  0  0  0
    3.9518    3.5593    0.0991 H   0  0  0  0  0  0  0  0  0  0  0  0
    1.6529    3.3420   -3.5470 H   0  0  0  0  0  0  0  0  0  0  0  0
   -0.4288    3.6674   -2.2332 H   0  0  0  0  0  0  0  0  0  0  0  0
    5.2896    2.2462   -0.9856 H   0  0  0  0  0  0  0  0  0  0  0  0
    7.3196    1.7691   -2.3241 H   0  0  0  0  0  0  0  0  0  0  0  0
    5.4690    3.5973   -5.7625 H   0  0  0  0  0  0  0  0  0  0  0  0
    3.4780    4.0869   -4.4374 H   0  0  0  0  0  0  0  0  0  0  0  0
    8.9300    2.5465   -6.3279 H   0  0  0  0  0  0  0  0  0  0  0  0
    7.4963    3.5863   -6.4080 H   0  0  0  0  0  0  0  0  0  0  0  0
    7.5271    0.5121   -6.7520 H   0  0  0  0  0  0  0  0  0  0  0  0
    7.3554    1.6987   -8.0752 H   0  0  0  0  0  0  0  0  0  0  0  0
    6.0625    1.5206   -6.8619 H   0  0  0  0  0  0  0  0  0  0  0  0
   -0.0809    0.8965    5.1404 H   0  0  0  0  0  0  0  0  0  0  0  0
  1  2  1  0
  1 10  1  0
  1 12  1  0
  2  3  2  0
  2  4  1  0
  4  5  2  0
  4  9  1  0
  5  6  1  0
  5 10  1  0
  6  7  2  0
  6 37  1  0
  7  8  1  0
  7 38  1  0
  8  9  2  0
  8 39  1  0
  9 40  1  0
 10 11  2  0
 12 13  1  0
 12 41  1  0
 12 42  1  0
 13 14  1  0
 13 43  1  0
 13 44  1  0
 14 15  1  6
 14 16  1  0
 14 34  1  0
 16 17  1  0
 16 45  1  0
 16 46  1  0
 17 18  2  0
 17 19  1  0
 19 20  2  0
 19 24  1  0
 20 21  1  0
 20 47  1  0
 21 22  2  0
 21 48  1  0
 22 23  1  0
 22 25  1  0
 23 24  2  0
 23 49  1  0
 24 50  1  0
 25 26  2  0
 25 30  1  0
 26 27  1  0
 26 51  1  0
 27 28  2  0
 27 52  1  0
 28 29  1  0
 28 31  1  0
 29 30  2  0
 29 53  1  0
 30 54  1  0
 31 32  1  0
 32 33  1  0
 32 55  1  0
 32 56  1  0
 33 57  1  0
 33 58  1  0
 33 59  1  0
 34 35  2  0
 34 36  1  0
 36 60  1  0
M  END

