60
rmsd40.gzmat
N          0.00000        0.00000        0.00000
C          1.42040        0.00000        0.00000
O          2.09220        0.00000        0.99380
C          1.82400        0.01860       -1.43860
C          0.65280        0.09980       -2.22810
C          0.71730        0.16410       -3.59860
C          1.99450        0.13720       -4.19250
C          3.14190        0.03880       -3.41920
C          3.07070       -0.02180       -2.01310
C         -0.53100        0.09570       -1.31610
O         -1.70230        0.15150       -1.56470
C         -0.82510       -0.02730        1.20430
C         -1.39130        1.36270        1.54180
C         -0.32400        2.29460        2.12500
H          0.65580        2.10650        1.59420
C         -0.72730        3.76440        1.95630
C         -0.68800        4.17970        0.50230
O         -1.66310        4.65890       -0.02260
C          0.56710        3.96470       -0.25590
C          1.81900        4.09670        0.34530
C          2.97260        3.86950       -0.39680
C          2.88220        3.50250       -1.74450
C          1.62370        3.38930       -2.34660
C          0.47080        3.62920       -1.60710
C          4.09270        3.22260       -2.52050
C          5.14890        2.50130       -1.94400
C          6.27680        2.18910       -2.68460
C          6.35110        2.61590       -4.02200
C          5.32190        3.35360       -4.60720
C          4.19680        3.65460       -3.84440
O          7.51100        2.25360       -4.62290
C          7.65830        2.46790       -6.02330
C          6.84120        1.45400       -6.80780
C         -0.06090        2.05030        3.58850
O          0.48490        2.79140        4.36440
O         -0.49830        0.83180        3.99520
H         -0.18390        0.23220       -4.20790
H          2.07390        0.19460       -5.27800
H          4.12240        0.02140       -3.89700
H          3.97680       -0.08980       -1.41090
H         -0.21510       -0.42390        2.05300
H         -1.66620       -0.74410        1.04150
H         -2.23740        1.24960        2.24930
H         -1.83650        1.81130        0.62690
H         -0.06410        4.43060        2.55250
H         -1.74640        3.93870        2.36610
H          1.90150        4.38180        1.39520
H          3.94950        3.98190        0.07190
H          1.54460        3.10170       -3.39330
H         -0.51210        3.55620       -2.07930
H          5.07800        2.17600       -0.90400
H          7.10300        1.62830       -2.25460
H          5.38800        3.70080       -5.63240
H          3.39030        4.24060       -4.28790
H          8.75000        2.30530       -6.13760
H          7.42020        3.51250       -6.28500
H          7.06600        0.42910       -6.48100
H          7.05220        1.51380       -7.88170
H          5.76330        1.60270       -6.67010
H         -0.29440        0.63930        4.94410
