60

N         -0.12850       -0.12180       -0.35330
C          1.03650        0.63900       -0.54420
O          1.47220        1.45760        0.23020
C          1.57650        0.21510       -1.87340
C          0.72530       -0.76170       -2.40020
C          0.96980       -1.34790       -3.63500
C          2.10760       -0.92350       -4.33800
C          2.96100        0.05560       -3.80970
C          2.70440        0.64240       -2.56110
C         -0.38270       -0.99210       -1.42180
O         -1.31810       -1.75570       -1.49210
C         -0.95990       -0.03660        0.83240
C         -0.74900       -1.22670        1.77230
C         -1.61520       -1.16900        3.04540
H         -2.65820       -0.95870        2.76590
C         -1.55060       -2.48350        3.81740
C         -2.49540       -2.50040        5.01040
O         -3.18850       -1.52980        5.26020
C         -2.55500       -3.72870        5.85600
C         -1.76330       -4.86400        5.61770
C         -1.86000       -5.98240        6.44150
C         -2.75150       -6.01060        7.53080
C         -3.54290       -4.86650        7.76180
C         -3.44520       -3.74870        6.94320
C         -2.85240       -7.20050        8.40460
C         -2.66920       -8.50230        7.89520
C         -2.76190       -9.62000        8.71330
C         -3.03940       -9.48030       10.08440
C         -3.22120       -8.19220       10.61200
C         -3.13060       -7.07870        9.77510
O         -3.12390      -10.63140       10.79280
C         -3.34100      -10.60150       12.19730
C         -2.07180      -10.29700       12.97990
C         -1.14660       -0.03320        3.93980
O         -0.29790       -0.13390        4.79080
O         -1.73260        1.13930        3.63120
H          0.29680       -2.10860       -4.03520
H          2.33430       -1.36130       -5.31290
H          3.83910        0.36500       -4.38120
H          3.36030        1.40600       -2.13860
H         -2.01290        0.00660        0.51470
H         -0.71150        0.91100        1.32650
H          0.31530       -1.28750        2.05490
H         -0.99570       -2.14910        1.22370
H         -0.52350       -2.65250        4.17990
H         -1.79560       -3.32790        3.15220
H         -1.05080       -4.87870        4.79170
H         -1.21260       -6.84100        6.25420
H         -4.26290       -4.86900        8.58250
H         -4.06170       -2.86540        7.11770
H         -2.47730       -8.64230        6.82950
H         -2.63450      -10.62750        8.31350
H         -3.42290       -8.04090       11.67180
H         -3.25140       -6.08600       10.21360
H         -3.70810      -11.60860       12.44490
H         -4.14980       -9.89140       12.44530
H         -1.28690      -11.02740       12.73140
H         -2.27050      -10.35530       14.06180
H         -1.68440       -9.29180       12.75670
H         -1.34560        1.80920        4.22160
