60

N         -0.11180        0.03490        0.25850
C          1.28920        0.11420        0.35130
O          1.90950        0.24940        1.37910
C          1.79230        0.00470       -1.05130
C          0.68940       -0.13310       -1.89970
C          0.84270       -0.25570       -3.27260
C          2.14840       -0.24240       -3.78440
C          3.25340       -0.10590       -2.93400
C          3.08870        0.02250       -1.54600
C         -0.54810       -0.13850       -1.06170
O         -1.70050       -0.27800       -1.40740
C         -0.98840        0.11060        1.41880
C         -1.08430       -1.22410        2.15820
C         -1.76860       -2.31340        1.32550
H         -1.56790       -2.13230        0.25860
C         -1.24390       -3.73140        1.64620
C          0.21400       -3.84790        1.22640
O          1.10050       -3.93100        2.05530
C          0.53220       -3.76640       -0.23460
C         -0.43130       -3.91990       -1.24620
C         -0.07160       -3.82750       -2.58710
C          1.25580       -3.56010       -2.97250
C          2.21390       -3.40780       -1.95010
C          1.86180       -3.51660       -0.61110
C          1.62710       -3.39970       -4.39560
C          0.69170       -2.97190       -5.35120
C          1.04300       -2.74000       -6.68180
C          2.36720       -2.94510       -7.10180
C          3.31390       -3.38920       -6.16170
C          2.94740       -3.61100       -4.84140
O          2.82110       -2.76570       -8.36380
C          1.96110       -2.25740       -9.37630
C          1.78730       -0.74790       -9.29260
C         -3.27960       -2.22010        1.41550
O         -3.90230       -1.40590        2.05010
O         -3.88360       -3.15840        0.65420
H         -0.02460       -0.37370       -3.92330
H          2.30750       -0.36250       -4.85770
H          4.25870       -0.10660       -3.36150
H          3.94150        0.12640       -0.87230
H         -1.97680        0.43240        1.06320
H         -0.58380        0.88290        2.08830
H         -1.64350       -1.07280        3.09350
H         -0.06850       -1.54190        2.43490
H         -1.85590       -4.48050        1.12430
H         -1.29560       -3.92990        2.72600
H         -1.47440       -4.12020       -0.99650
H         -0.83780       -3.97700       -3.34890
H          3.24390       -3.16050       -2.20760
H          2.60350       -3.38770        0.17900
H         -0.33750       -2.77270       -5.04850
H          0.27940       -2.39150       -7.37600
H          4.33600       -3.56310       -6.50280
H          3.70330       -3.97130       -4.14180
H          0.98840       -2.77960       -9.35030
H          2.45070       -2.53240      -10.32210
H          1.29090       -0.44340       -8.35910
H          1.17670       -0.38950      -10.13640
H          2.76710       -0.24850       -9.33720
H         -4.84140       -3.01040        0.73310
