60
rmsd224.gzmat
N          0.00000        0.00000        0.00000
C          1.42260        0.00000        0.00000
O          2.09810        0.00000        0.98910
C          1.82190       -0.02670       -1.44160
C          0.64850       -0.03570       -2.23070
C          0.71030       -0.06340       -3.60290
C          1.98740       -0.07620       -4.19700
C          3.13910       -0.06160       -3.42210
C          3.06990       -0.03790       -2.01580
C         -0.53450       -0.00140       -1.31580
O         -1.70670        0.02070       -1.56700
C         -0.81430        0.13440        1.20240
C         -1.30650        1.58670        1.35800
C         -2.01710        1.78910        2.70180
H         -1.36870        1.37570        3.52390
C         -2.29060        3.27500        2.96970
C         -1.04010        4.00010        3.40410
O          0.03930        3.45770        3.36950
C         -1.17250        5.38810        3.90490
C         -2.32450        6.15300        3.71570
C         -2.39680        7.44140        4.23480
C         -1.31560        7.97540        4.94430
C         -0.15330        7.21700        5.11490
C         -0.08430        5.92890        4.59610
C         -1.39950        9.32370        5.51320
C         -2.43260        9.64790        6.39320
C         -2.50980       10.91850        6.95810
C         -1.54290       11.86470        6.61570
C         -0.50130       11.55950        5.72180
C         -0.43570       10.28580        5.18150
O         -1.50380       13.14950        7.04800
C         -2.35060       13.53790        8.12580
C         -1.81010       13.00650        9.44320
C         -3.33830        1.06320        2.68930
O         -4.44330        1.50990        2.53420
O         -3.15310       -0.26490        2.90940
H         -0.19290       -0.07350       -4.21320
H          2.06420       -0.09570       -5.28440
H          4.11780       -0.06750       -3.90220
H          3.97600       -0.02680       -1.40950
H         -0.20540       -0.17130        2.08760
H         -1.67740       -0.57100        1.13530
H         -1.96760        1.85720        0.51130
H         -0.43570        2.27750        1.30210
H         -3.07920        3.38780        3.74620
H         -2.71570        3.75670        2.06220
H         -3.17370        5.75330        3.16130
H         -3.29280        8.04170        4.08530
H          0.69140        7.63380        5.66110
H          0.82230        5.33010        4.72640
H         -3.18180        8.89750        6.64870
H         -3.31350       11.15600        7.64630
H          0.23280       12.32120        5.47120
H          0.36810       10.02810        4.49030
H         -3.39340       13.23580        7.93320
H         -2.27380       14.64240        8.05580
H         -1.80970       11.90920        9.47070
H         -2.40200       13.36160       10.29400
H         -0.77110       13.32740        9.60090
H         -3.98930       -0.79190        2.90000
