60
rmsd125.gzmat
N          0.00000        0.00000        0.00000
C          1.42360        0.00000        0.00000
O          2.09210        0.00000        0.99780
C          1.83010       -0.07590       -1.43470
C          0.65940       -0.09350       -2.22850
C          0.72670       -0.14980       -3.59950
C          2.00640       -0.18680       -4.18660
C          3.15490       -0.16390       -3.40750
C          3.08080       -0.10640       -2.00230
C         -0.52560       -0.01480       -1.32220
O         -1.69690        0.02380       -1.57850
C         -0.81190        0.22980        1.18890
C         -1.48770        1.61170        1.20310
C         -0.55120        2.82860        1.28060
H         -1.18180        3.71560        1.58040
C          0.59350        2.68390        2.28450
C          0.08090        2.40470        3.67420
O         -1.04460        2.70370        3.99850
C          1.01870        1.79450        4.64450
C          0.93700        2.20290        5.97820
C          1.79940        1.66340        6.92600
C          2.73870        0.69770        6.54770
C          2.80260        0.27520        5.21600
C          1.94630        0.82370        4.26670
C          3.65320        0.13450        7.54450
C          3.15860       -0.35940        8.75240
C          4.02090       -0.88090        9.71370
C          5.39040       -0.89520        9.44820
C          5.90740       -0.41200        8.23310
C          5.03160        0.09860        7.28960
O          6.35930       -1.32970       10.29120
C          5.98030       -1.92140       11.53000
C          5.51940       -3.35390       11.31710
C          0.03790        3.08140       -0.08390
O          1.03210        2.62170       -0.58480
O         -0.73470        3.95690       -0.77330
H         -0.17380       -0.16290       -4.21310
H          2.08730       -0.23000       -5.27250
H          4.13520       -0.18680       -3.88350
H          3.98300       -0.07980       -1.39160
H         -0.17260        0.09050        2.09320
H         -1.60410       -0.55920        1.22920
H         -2.17470        1.64760        2.08050
H         -2.14990        1.70950        0.31480
H          1.20460        3.61350        2.31580
H          1.31390        1.90270        1.94830
H          0.19130        2.94470        6.27100
H          1.74970        1.99510        7.96120
H          3.52050       -0.48940        4.92240
H          2.00770        0.47880        3.22960
H          2.08510       -0.34230        8.94580
H          3.62120       -1.26140       10.64710
H          6.97940       -0.44440        8.05560
H          5.41500        0.48370        6.34350
H          5.23220       -1.29880       12.04830
H          6.94050       -1.86810       12.08280
H          4.66870       -3.40820       10.62520
H          5.21620       -3.82320       12.25940
H          6.31920       -3.96630       10.87960
H         -0.41440        4.14060       -1.69040
