
     RDKit          3D

 60 63  0  0  0  0  0  0  0  0999 V2000
    0.2244    0.0499    0.1009 N   0  0  0  0  0  0  0  0  0  0  0  0
    1.6081    0.2173   -0.0573 C   0  0  0  0  0  0  0  0  0  0  0  0
    2.4034    0.3958    0.8380 O   0  0  0  0  0  0  0  0  0  0  0  0
    1.8608    0.1153   -1.5246 C   0  0  0  0  0  0  0  0  0  0  0  0
    0.6444   -0.1483   -2.1617 C   0  0  0  0  0  0  0  0  0  0  0  0
    0.5645   -0.2973   -3.5400 C   0  0  0  0  0  0  0  0  0  0  0  0
    1.7533   -0.1665   -4.2737 C   0  0  0  0  0  0  0  0  0  0  0  0
    2.9724    0.0999   -3.6340 C   0  0  0  0  0  0  0  0  0  0  0  0
    3.0430    0.2430   -2.2401 C   0  0  0  0  0  0  0  0  0  0  0  0
   -0.4230   -0.2201   -1.1185 C   0  0  0  0  0  0  0  0  0  0  0  0
   -1.6005   -0.4576   -1.2430 O   0  0  0  0  0  0  0  0  0  0  0  0
   -0.4777    0.1498    1.3709 C   0  0  0  0  0  0  0  0  0  0  0  0
   -1.3267    1.4201    1.4900 C   0  0  0  0  0  0  0  0  0  0  0  0
   -0.5645    2.7470    1.2771 C   0  0  1  0  0  0  0  0  0  0  0  0
   -1.2833    3.5469    1.5205 H   0  0  0  0  0  0  0  0  0  0  0  0
    0.6618    2.9103    2.1779 C   0  0  0  0  0  0  0  0  0  0  0  0
    0.3008    2.8520    3.6531 C   0  0  0  0  0  0  0  0  0  0  0  0
   -0.7230    3.3867    4.0483 O   0  0  0  0  0  0  0  0  0  0  0  0
    1.2188    2.1595    4.6059 C   0  0  0  0  0  0  0  0  0  0  0  0
    0.9730    2.3105    5.9832 C   0  0  0  0  0  0  0  0  0  0  0  0
    1.7805    1.6869    6.9241 C   0  0  0  0  0  0  0  0  0  0  0  0
    2.8622    0.8715    6.5289 C   0  0  0  0  0  0  0  0  0  0  0  0
    3.0941    0.7143    5.1501 C   0  0  0  0  0  0  0  0  0  0  0  0
    2.2940    1.3483    4.2013 C   0  0  0  0  0  0  0  0  0  0  0  0
    3.7207    0.2009    7.5304 C   0  0  0  0  0  0  0  0  0  0  0  0
    3.2029   -0.2441    8.7570 C   0  0  0  0  0  0  0  0  0  0  0  0
    4.0005   -0.8849    9.7068 C   0  0  0  0  0  0  0  0  0  0  0  0
    5.3646   -1.0924    9.4490 C   0  0  0  0  0  0  0  0  0  0  0  0
    5.8997   -0.6512    8.2261 C   0  0  0  0  0  0  0  0  0  0  0  0
    5.0922   -0.0207    7.2895 C   0  0  0  0  0  0  0  0  0  0  0  0
    6.2377   -1.6819   10.3007 O   0  0  0  0  0  0  0  0  0  0  0  0
    5.7892   -2.2188   11.5377 C   0  0  0  0  0  0  0  0  0  0  0  0
    5.1314   -3.5823   11.3805 C   0  0  0  0  0  0  0  0  0  0  0  0
   -0.1778    2.9559   -0.1762 C   0  0  0  0  0  0  0  0  0  0  0  0
    0.9346    3.1852   -0.5887 O   0  0  0  0  0  0  0  0  0  0  0  0
   -1.2390    2.8601   -1.0026 O   0  0  0  0  0  0  0  0  0  0  0  0
   -0.3908   -0.5080   -4.0250 H   0  0  0  0  0  0  0  0  0  0  0  0
    1.7316   -0.2738   -5.3607 H   0  0  0  0  0  0  0  0  0  0  0  0
    3.8806    0.1982   -4.2330 H   0  0  0  0  0  0  0  0  0  0  0  0
    3.9845    0.4530   -1.7295 H   0  0  0  0  0  0  0  0  0  0  0  0
    0.2880    0.0976    2.1564 H   0  0  0  0  0  0  0  0  0  0  0  0
   -1.1305   -0.7298    1.4744 H   0  0  0  0  0  0  0  0  0  0  0  0
   -1.7721    1.4376    2.4958 H   0  0  0  0  0  0  0  0  0  0  0  0
   -2.1567    1.3662    0.7720 H   0  0  0  0  0  0  0  0  0  0  0  0
    1.1039    3.9062    2.0043 H   0  0  0  0  0  0  0  0  0  0  0  0
    1.4426    2.1963    1.9032 H   0  0  0  0  0  0  0  0  0  0  0  0
    0.1360    2.9410    6.2878 H   0  0  0  0  0  0  0  0  0  0  0  0
    1.5908    1.8497    7.9869 H   0  0  0  0  0  0  0  0  0  0  0  0
    3.8995    0.0607    4.8102 H   0  0  0  0  0  0  0  0  0  0  0  0
    2.5002    1.1725    3.1451 H   0  0  0  0  0  0  0  0  0  0  0  0
    2.1399   -0.1160    8.9706 H   0  0  0  0  0  0  0  0  0  0  0  0
    3.5447   -1.2247   10.6360 H   0  0  0  0  0  0  0  0  0  0  0  0
    6.9641   -0.8083    8.0430 H   0  0  0  0  0  0  0  0  0  0  0  0
    5.5396    0.3333    6.3586 H   0  0  0  0  0  0  0  0  0  0  0  0
    5.1198   -1.5028   12.0466 H   0  0  0  0  0  0  0  0  0  0  0  0
    6.6981   -2.3038   12.1518 H   0  0  0  0  0  0  0  0  0  0  0  0
    4.2149   -3.5269   10.7746 H   0  0  0  0  0  0  0  0  0  0  0  0
    4.8653   -3.9910   12.3683 H   0  0  0  0  0  0  0  0  0  0  0  0
    5.8225   -4.2840   10.8893 H   0  0  0  0  0  0  0  0  0  0  0  0
   -0.9051    2.9905   -1.9066 H   0  0  0  0  0  0  0  0  0  0  0  0
  1  2  1  0
  1 10  1  0
  1 12  1  0
  2  3  2  0
  2  4  1  0
  4  5  2  0
  4  9  1  0
  5  6  1  0
  5 10  1  0
  6  7  2  0
  6 37  1  0
  7  8  1  0
  7 38  1  0
  8  9  2  0
  8 39  1  0
  9 40  1  0
 10 11  2  0
 12 13  1  0
 12 41  1  0
 12 42  1  0
 13 14  1  0
 13 43  1  0
 13 44  1  0
 14 15  1  1
 14 16  1  0
 14 34  1  0
 16 17  1  0
 16 45  1  0
 16 46  1  0
 17 18  2  0
 17 19  1  0
 19 20  2  0
 19 24  1  0
 20 21  1  0
 20 47  1  0
 21 22  2  0
 21 48  1  0
 22 23  1  0
 22 25  1  0
 23 24  2  0
 23 49  1  0
 24 50  1  0
 25 26  2  0
 25 30  1  0
 26 27  1  0
 26 51  1  0
 27 28  2  0
 27 52  1  0
 28 29  1  0
 28 31  1  0
 29 30  2  0
 29 53  1  0
 30 54  1  0
 31 32  1  0
 32 33  1  0
 32 55  1  0
 32 56  1  0
 33 57  1  0
 33 58  1  0
 33 59  1  0
 34 35  2  0
 34 36  1  0
 36 60  1  0
M  END

