29

C         -0.13400       -0.33070       -0.16470
O          1.05290       -0.59270       -0.20260
C         -0.90750       -0.13340       -1.47070
C         -1.08140        1.33580       -1.79350
C          0.03470        2.19000       -1.79260
C         -0.10300        3.54440       -2.08430
C         -1.37280        4.04200       -2.37880
C         -2.49960        3.22190       -2.39080
C         -2.34380        1.86890       -2.09480
N         -1.52850        5.47650       -2.68660
O         -2.65300        5.88090       -2.93570
O         -0.52350        6.16850       -2.67250
C         -0.84710       -0.14870        1.13720
C         -0.10900       -0.32840        2.32010
C         -0.71630       -0.16700        3.56260
C         -2.07020        0.18070        3.63910
C         -2.81220        0.36540        2.46930
C         -2.20500        0.19990        1.22340
H         -1.88580       -0.63240       -1.43400
H         -0.30450       -0.61770       -2.25310
H          1.02040        1.78250       -1.55800
H          0.74930        4.22260       -2.08810
H         -3.47090        3.65340       -2.62870
H         -3.21910        1.21480       -2.10360
H          0.94530       -0.59530        2.23130
H         -0.13600       -0.31010        4.47710
H         -2.54750        0.30960        4.61360
H         -3.86760        0.64060        2.52750
H         -2.79540        0.35610        0.32080
