29
rmsd183.gzmat
C          0.00000        0.00000        0.00000
O          1.20710        0.00000        0.00000
C         -0.75110        0.00000       -1.32120
C         -1.17380       -1.38640       -1.67990
C         -2.49880       -1.64350       -2.04650
C         -2.89460       -2.93610       -2.37140
C         -1.95180       -3.96670       -2.32960
C         -0.62140       -3.72180       -1.97510
C         -0.23740       -2.42610       -1.65390
N         -2.36270       -5.32130       -2.66070
O         -1.51490       -6.19930       -2.65820
O         -3.53840       -5.51880       -2.92540
C         -0.77050        0.01570        1.26270
C         -2.08870       -0.43640        1.33680
C         -2.76140       -0.41750        2.55560
C         -2.12180        0.06060        3.69920
C         -0.80380        0.50930        3.62810
C         -0.12470        0.47890        2.41250
H         -0.08040        0.40240       -2.11940
H         -1.60290        0.70840       -1.27860
H         -3.22590       -0.83300       -2.08240
H         -3.93040       -3.14790       -2.65540
H          0.10460       -4.54150       -1.94890
H          0.79950       -2.21690       -1.37550
H         -2.59450       -0.81800        0.45000
H         -3.78570       -0.78170        2.61510
H         -2.65280        0.07800        4.65040
H         -0.30300        0.87800        4.52180
H          0.91570        0.80890        2.35090
