rmsd236.gzmat
 OpenBabel08211713413D

 29 30  0  0  0  0  0  0  0  0999 V2000
    0.0000    0.0000    0.0000 C   0  0  0  0  0  0  0  0  0  0  0  0
    1.2059    0.0000    0.0000 O   0  0  0  0  0  0  0  0  0  0  0  0
   -0.7615    0.0000   -1.3147 C   0  0  0  0  0  0  0  0  0  0  0  0
   -1.1409    1.3897   -1.7067 C   0  0  0  0  0  0  0  0  0  0  0  0
   -0.1838    2.4100   -1.6801 C   0  0  0  0  0  0  0  0  0  0  0  0
   -0.5318    3.7057   -2.0404 C   0  0  0  0  0  0  0  0  0  0  0  0
   -1.8467    3.9700   -2.4360 C   0  0  0  0  0  0  0  0  0  0  0  0
   -2.8097    2.9584   -2.4801 C   0  0  0  0  0  0  0  0  0  0  0  0
   -2.4507    1.6667   -2.1122 C   0  0  0  0  0  0  0  0  0  0  0  0
   -2.2200    5.3236   -2.8121 N   0  0  0  0  0  0  0  0  0  0  0  0
   -3.3754    5.5304   -3.1489 O   0  0  0  0  0  0  0  0  0  0  0  0
   -1.3630    6.1912   -2.7732 O   0  0  0  0  0  0  0  0  0  0  0  0
   -0.7765   -0.0288    1.2594 C   0  0  0  0  0  0  0  0  0  0  0  0
   -0.2468   -0.7363    2.3407 C   0  0  0  0  0  0  0  0  0  0  0  0
   -0.9414   -0.7809    3.5473 C   0  0  0  0  0  0  0  0  0  0  0  0
   -2.1544   -0.1067    3.6766 C   0  0  0  0  0  0  0  0  0  0  0  0
   -2.6747    0.6126    2.6007 C   0  0  0  0  0  0  0  0  0  0  0  0
   -1.9881    0.6501    1.3898 C   0  0  0  0  0  0  0  0  0  0  0  0
   -1.6396   -0.6745   -1.2454 H   0  0  0  0  0  0  0  0  0  0  0  0
   -0.1143   -0.4464   -2.1090 H   0  0  0  0  0  0  0  0  0  0  0  0
    0.8421    2.1860   -1.3733 H   0  0  0  0  0  0  0  0  0  0  0  0
    0.2106    4.5111   -2.0160 H   0  0  0  0  0  0  0  0  0  0  0  0
   -3.8319    3.1841   -2.8003 H   0  0  0  0  0  0  0  0  0  0  0  0
   -3.1943    0.8712   -2.1457 H   0  0  0  0  0  0  0  0  0  0  0  0
    0.7143   -1.2452    2.2371 H   0  0  0  0  0  0  0  0  0  0  0  0
   -0.5325   -1.3361    4.3899 H   0  0  0  0  0  0  0  0  0  0  0  0
   -2.6957   -0.1383    4.6219 H   0  0  0  0  0  0  0  0  0  0  0  0
   -3.6169    1.1475    2.7077 H   0  0  0  0  0  0  0  0  0  0  0  0
   -2.3953    1.2196    0.5541 H   0  0  0  0  0  0  0  0  0  0  0  0
  1  2  2  0  0  0  0
  1 13  1  0  0  0  0
  3 19  1  0  0  0  0
  3  1  1  0  0  0  0
  4  5  1  0  0  0  0
  4  3  1  0  0  0  0
  5 21  1  0  0  0  0
  6 22  1  0  0  0  0
  6  5  2  0  0  0  0
  7  6  1  0  0  0  0
  8  7  2  0  0  0  0
  8  9  1  0  0  0  0
  9  4  2  0  0  0  0
 10 12  2  0  0  0  0
 10  7  1  0  0  0  0
 11 10  2  0  0  0  0
 13 18  2  0  0  0  0
 13 14  1  0  0  0  0
 14 15  2  0  0  0  0
 15 16  1  0  0  0  0
 15 26  1  0  0  0  0
 16 27  1  0  0  0  0
 17 28  1  0  0  0  0
 17 16  2  0  0  0  0
 18 17  1  0  0  0  0
 20  3  1  0  0  0  0
 23  8  1  0  0  0  0
 24  9  1  0  0  0  0
 25 14  1  0  0  0  0
 29 18  1  0  0  0  0
M  END
$$$$
