rmsd164.gzmat
 OpenBabel08211713413D

 29 30  0  0  0  0  0  0  0  0999 V2000
    0.0000    0.0000    0.0000 C   0  0  0  0  0  0  0  0  0  0  0  0
    1.2065    0.0000    0.0000 O   0  0  0  0  0  0  0  0  0  0  0  0
   -0.7566    0.0000   -1.3179 C   0  0  0  0  0  0  0  0  0  0  0  0
   -1.1529   -1.3877   -1.7004 C   0  0  0  0  0  0  0  0  0  0  0  0
   -2.4748   -1.6613   -2.0666 C   0  0  0  0  0  0  0  0  0  0  0  0
   -2.8479   -2.9530   -2.4203 C   0  0  0  0  0  0  0  0  0  0  0  0
   -1.8865   -3.9672   -2.4038 C   0  0  0  0  0  0  0  0  0  0  0  0
   -0.5584   -3.7042   -2.0539 C   0  0  0  0  0  0  0  0  0  0  0  0
   -0.1970   -2.4092   -1.7033 C   0  0  0  0  0  0  0  0  0  0  0  0
   -2.2759   -5.3231   -2.7565 N   0  0  0  0  0  0  0  0  0  0  0  0
   -1.4315   -6.2019   -2.6929 O   0  0  0  0  0  0  0  0  0  0  0  0
   -3.4315   -5.5214   -3.0976 O   0  0  0  0  0  0  0  0  0  0  0  0
   -0.7745    0.0273    1.2606 C   0  0  0  0  0  0  0  0  0  0  0  0
   -2.0343   -0.5630    1.3640 C   0  0  0  0  0  0  0  0  0  0  0  0
   -2.7173   -0.5302    2.5769 C   0  0  0  0  0  0  0  0  0  0  0  0
   -2.1440    0.0944    3.6843 C   0  0  0  0  0  0  0  0  0  0  0  0
   -0.8844    0.6830    3.5821 C   0  0  0  0  0  0  0  0  0  0  0  0
   -0.1952    0.6435    2.3724 C   0  0  0  0  0  0  0  0  0  0  0  0
   -0.0988    0.4298   -2.1126 H   0  0  0  0  0  0  0  0  0  0  0  0
   -1.6245    0.6879   -1.2593 H   0  0  0  0  0  0  0  0  0  0  0  0
   -3.2168   -0.8636   -2.0788 H   0  0  0  0  0  0  0  0  0  0  0  0
   -3.8801   -3.1776   -2.7073 H   0  0  0  0  0  0  0  0  0  0  0  0
    0.1835   -4.5101   -2.0585 H   0  0  0  0  0  0  0  0  0  0  0  0
    0.8373   -2.1855   -1.4257 H   0  0  0  0  0  0  0  0  0  0  0  0
   -2.4839   -1.0618    0.5054 H   0  0  0  0  0  0  0  0  0  0  0  0
   -3.6984   -0.9947    2.6606 H   0  0  0  0  0  0  0  0  0  0  0  0
   -2.6807    0.1182    4.6323 H   0  0  0  0  0  0  0  0  0  0  0  0
   -0.4372    1.1683    4.4484 H   0  0  0  0  0  0  0  0  0  0  0  0
    0.8004    1.0863    2.2877 H   0  0  0  0  0  0  0  0  0  0  0  0
  1 13  1  0  0  0  0
  2  1  2  0  0  0  0
  3 20  1  0  0  0  0
  3  1  1  0  0  0  0
  4  3  1  0  0  0  0
  5  4  2  0  0  0  0
  6  7  2  0  0  0  0
  6  5  1  0  0  0  0
  7  8  1  0  0  0  0
  8  9  2  0  0  0  0
  9  4  1  0  0  0  0
  9 24  1  0  0  0  0
 10 11  2  0  0  0  0
 10  7  1  0  0  0  0
 12 10  2  0  0  0  0
 13 14  2  0  0  0  0
 13 18  1  0  0  0  0
 14 15  1  0  0  0  0
 15 26  1  0  0  0  0
 15 16  2  0  0  0  0
 16 27  1  0  0  0  0
 17 16  1  0  0  0  0
 17 28  1  0  0  0  0
 18 17  2  0  0  0  0
 19  3  1  0  0  0  0
 21  5  1  0  0  0  0
 22  6  1  0  0  0  0
 23  8  1  0  0  0  0
 25 14  1  0  0  0  0
 29 18  1  0  0  0  0
M  END
$$$$
