29
rmsd158.gzmat
C          0.00000        0.00000        0.00000
O          1.20600        0.00000        0.00000
C         -0.76140        0.00000       -1.31560
C         -1.00800        1.40380       -1.76130
C          0.07240        2.27440       -1.94220
C         -0.14520        3.58350       -2.35290
C         -1.45600        4.01270       -2.58310
C         -2.54400        3.15280       -2.40990
C         -2.31370        1.84430       -2.00060
N         -1.69580        5.37920       -3.01740
O         -2.84950        5.72340       -3.22050
O         -0.73570        6.11780       -3.16280
C         -0.77890       -0.02420        1.25800
C         -0.24750       -0.71630        2.34830
C         -0.94870       -0.75890        3.55120
C         -2.17050       -0.09840        3.66820
C         -2.69250        0.60650        2.58350
C         -1.99870        0.64310        1.37700
H         -1.69710       -0.58710       -1.22260
H         -0.15720       -0.53930       -2.08440
H          1.09060        1.92170       -1.75320
H          0.69490        4.27210       -2.49430
H         -3.56270        3.50850       -2.59550
H         -3.15510        1.16450       -1.87210
H          0.71970       -1.21580        2.25480
H         -0.53890       -1.30300        4.40060
H         -2.71760       -0.12880        4.61000
H         -3.64220        1.12990        2.68070
H         -2.40620        1.20350        0.53570
