rmsd160.gzmat
 OpenBabel08211713413D

 29 30  0  0  0  0  0  0  0  0999 V2000
    0.0000    0.0000    0.0000 C   0  0  0  0  0  0  0  0  0  0  0  0
    1.2063    0.0000    0.0000 O   0  0  0  0  0  0  0  0  0  0  0  0
   -0.7620    0.0000   -1.3150 C   0  0  0  0  0  0  0  0  0  0  0  0
   -0.9810   -1.4012   -1.7833 C   0  0  0  0  0  0  0  0  0  0  0  0
   -2.2639   -1.8322   -2.1349 C   0  0  0  0  0  0  0  0  0  0  0  0
   -2.4658   -3.1364   -2.5727 C   0  0  0  0  0  0  0  0  0  0  0  0
   -1.3736   -4.0047   -2.6495 C   0  0  0  0  0  0  0  0  0  0  0  0
   -0.0840   -3.5844   -2.3089 C   0  0  0  0  0  0  0  0  0  0  0  0
    0.1061   -2.2771   -1.8800 C   0  0  0  0  0  0  0  0  0  0  0  0
   -1.5841   -5.3730   -3.0932 N   0  0  0  0  0  0  0  0  0  0  0  0
   -0.6215   -6.1217   -3.1357 O   0  0  0  0  0  0  0  0  0  0  0  0
   -2.7161   -5.7103   -3.4028 O   0  0  0  0  0  0  0  0  0  0  0  0
   -0.7778    0.0239    1.2581 C   0  0  0  0  0  0  0  0  0  0  0  0
   -2.0134   -0.6148    1.3675 C   0  0  0  0  0  0  0  0  0  0  0  0
   -2.7073   -0.5744    2.5740 C   0  0  0  0  0  0  0  0  0  0  0  0
   -2.1688    0.1042    3.6676 C   0  0  0  0  0  0  0  0  0  0  0  0
   -0.9300    0.7339    3.5605 C   0  0  0  0  0  0  0  0  0  0  0  0
   -0.2290    0.6877    2.3577 C   0  0  0  0  0  0  0  0  0  0  0  0
   -0.1669    0.5591   -2.0777 H   0  0  0  0  0  0  0  0  0  0  0  0
   -1.7085    0.5684   -1.2154 H   0  0  0  0  0  0  0  0  0  0  0  0
   -3.1106   -1.1496   -2.0738 H   0  0  0  0  0  0  0  0  0  0  0  0
   -3.4658   -3.4823   -2.8544 H   0  0  0  0  0  0  0  0  0  0  0  0
    0.7615   -4.2775   -2.3796 H   0  0  0  0  0  0  0  0  0  0  0  0
    1.1087   -1.9299   -1.6117 H   0  0  0  0  0  0  0  0  0  0  0  0
   -2.4318   -1.1567    0.5192 H   0  0  0  0  0  0  0  0  0  0  0  0
   -3.6698   -1.0749    2.6651 H   0  0  0  0  0  0  0  0  0  0  0  0
   -2.7161    0.1370    4.6096 H   0  0  0  0  0  0  0  0  0  0  0  0
   -0.5075    1.2569    4.4169 H   0  0  0  0  0  0  0  0  0  0  0  0
    0.7516    1.1616    2.2707 H   0  0  0  0  0  0  0  0  0  0  0  0
  1 13  1  0  0  0  0
  2  1  2  0  0  0  0
  3 20  1  0  0  0  0
  3  1  1  0  0  0  0
  4  3  1  0  0  0  0
  5 21  1  0  0  0  0
  5  4  2  0  0  0  0
  6  5  1  0  0  0  0
  7  6  2  0  0  0  0
  7  8  1  0  0  0  0
  8  9  2  0  0  0  0
  9  4  1  0  0  0  0
  9 24  1  0  0  0  0
 10  7  1  0  0  0  0
 11 10  2  0  0  0  0
 12 10  2  0  0  0  0
 13 14  2  0  0  0  0
 13 18  1  0  0  0  0
 14 15  1  0  0  0  0
 15 26  1  0  0  0  0
 15 16  2  0  0  0  0
 16 27  1  0  0  0  0
 17 16  1  0  0  0  0
 17 28  1  0  0  0  0
 18 17  2  0  0  0  0
 19  3  1  0  0  0  0
 22  6  1  0  0  0  0
 23  8  1  0  0  0  0
 25 14  1  0  0  0  0
 29 18  1  0  0  0  0
M  END
$$$$
