rmsd97.gzmat
 OpenBabel08211713433D

 63 66  0  0  1  0  0  0  0  0999 V2000
    0.0000    0.0000    0.0000 C   0  0  0  0  0  0  0  0  0  0  0  0
    1.5274    0.0000    0.0000 C   0  0  0  0  0  0  0  0  0  0  0  0
    2.0978    0.0000    1.4275 C   0  0  0  0  0  0  0  0  0  0  0  0
    1.7651    1.2444    2.1561 C   0  0  0  0  0  0  0  0  0  0  0  0
    1.3663    1.2321    3.4663 N   0  0  0  0  0  0  0  0  0  0  0  0
    1.1521    2.5027    3.8524 N   0  0  0  0  0  0  0  0  0  0  0  0
    0.7231    2.8153    5.2028 C   0  0  0  0  0  0  0  0  0  0  0  0
    1.3964    3.3812    2.8252 C   0  0  1  0  0  0  0  0  0  0  0  0
    1.3121    4.8183    2.7288 C   0  0  0  0  0  0  0  0  0  0  0  0
    1.0118    5.6102    3.5964 O   0  0  0  0  0  0  0  0  0  0  0  0
    1.6233    5.3023    1.4371 N   0  0  0  0  0  0  0  0  0  0  0  0
    1.6253    6.3135    1.3008 H   0  0  0  0  0  0  0  0  0  0  0  0
    2.0166    4.4664    0.3767 C   0  0  0  0  0  0  0  0  0  0  0  0
    2.1134    3.1582    0.4890 N   0  0  0  0  0  0  0  0  0  0  0  0
    1.8019    2.5974    1.7012 C   0  0  0  0  0  0  0  0  0  0  0  0
    2.2795    5.0632   -0.9435 C   0  0  0  0  0  0  0  0  0  0  0  0
    2.0994    4.2541   -2.0707 C   0  0  0  0  0  0  0  0  0  0  0  0
    2.3094    4.7601   -3.3505 C   0  0  0  0  0  0  0  0  0  0  0  0
    2.7434    6.0743   -3.5269 C   0  0  0  0  0  0  0  0  0  0  0  0
    2.9551    6.8949   -2.4246 C   0  0  0  0  0  0  0  0  0  0  0  0
    2.7214    6.3894   -1.1417 C   0  0  0  0  0  0  0  0  0  0  0  0
    2.8986    7.0887   -0.0060 O   0  0  0  0  0  0  0  0  0  0  0  0
    3.2852    8.4704   -0.0743 C   0  0  0  0  0  0  0  0  0  0  0  0
    3.2872    8.8853    1.3872 C   0  0  0  0  0  0  0  0  0  0  0  0
    2.0162    3.7385   -4.7430 S   0  0  0  0  0  0  0  0  0  0  0  0
    2.8285    4.1956   -5.8499 O   0  0  0  0  0  0  0  0  0  0  0  0
    2.0384    2.3593   -4.3155 O   0  0  0  0  0  0  0  0  0  0  0  0
    0.3603    4.1673   -5.1511 N   0  0  0  0  0  0  0  0  0  0  0  0
    0.0238    4.1552   -6.5844 C   0  0  0  0  0  0  0  0  0  0  0  0
   -0.3523    2.7441   -7.1049 C   0  0  0  0  0  0  0  0  0  0  0  0
   -1.3991    2.0688   -6.3114 N   0  0  0  0  0  0  0  0  0  0  0  0
   -2.7404    2.6303   -6.5699 C   0  0  0  0  0  0  0  0  0  0  0  0
   -1.0480    2.0989   -4.8780 C   0  0  0  0  0  0  0  0  0  0  0  0
   -0.6931    3.5128   -4.3543 C   0  0  0  0  0  0  0  0  0  0  0  0
   -0.3929   -0.0177   -1.0228 H   0  0  0  0  0  0  0  0  0  0  0  0
   -0.3937    0.8983    0.4906 H   0  0  0  0  0  0  0  0  0  0  0  0
   -0.4035   -0.8673    0.5323 H   0  0  0  0  0  0  0  0  0  0  0  0
    1.9057    0.8863   -0.5549 H   0  0  0  0  0  0  0  0  0  0  0  0
    1.9087   -0.8806   -0.5496 H   0  0  0  0  0  0  0  0  0  0  0  0
    3.2053   -0.1129    1.3844 H   0  0  0  0  0  0  0  0  0  0  0  0
    1.7274   -0.8882    1.9846 H   0  0  0  0  0  0  0  0  0  0  0  0
   -0.2286    2.3007    5.4403 H   0  0  0  0  0  0  0  0  0  0  0  0
    0.5743    3.9113    5.3094 H   0  0  0  0  0  0  0  0  0  0  0  0
    1.4821    2.4858    5.9396 H   0  0  0  0  0  0  0  0  0  0  0  0
    1.8002    3.1986   -1.9196 H   0  0  0  0  0  0  0  0  0  0  0  0
    2.9287    6.4736   -4.5329 H   0  0  0  0  0  0  0  0  0  0  0  0
    3.3022    7.9115   -2.5701 H   0  0  0  0  0  0  0  0  0  0  0  0
    2.5454    9.0248   -0.6762 H   0  0  0  0  0  0  0  0  0  0  0  0
    4.2861    8.5323   -0.5364 H   0  0  0  0  0  0  0  0  0  0  0  0
    2.2818    8.8428    1.8283 H   0  0  0  0  0  0  0  0  0  0  0  0
    3.6622    9.9088    1.5077 H   0  0  0  0  0  0  0  0  0  0  0  0
    3.9264    8.2230    1.9915 H   0  0  0  0  0  0  0  0  0  0  0  0
    0.8679    4.5714   -7.1825 H   0  0  0  0  0  0  0  0  0  0  0  0
   -0.8299    4.8545   -6.7341 H   0  0  0  0  0  0  0  0  0  0  0  0
   -0.6745    2.8030   -8.1640 H   0  0  0  0  0  0  0  0  0  0  0  0
    0.5409    2.0761   -7.0931 H   0  0  0  0  0  0  0  0  0  0  0  0
   -3.4867    2.0484   -6.0042 H   0  0  0  0  0  0  0  0  0  0  0  0
   -2.9794    2.5065   -7.6397 H   0  0  0  0  0  0  0  0  0  0  0  0
   -2.8557    3.6917   -6.3082 H   0  0  0  0  0  0  0  0  0  0  0  0
   -1.8787    1.6667   -4.2862 H   0  0  0  0  0  0  0  0  0  0  0  0
   -0.1769    1.4095   -4.7394 H   0  0  0  0  0  0  0  0  0  0  0  0
   -1.5938    4.1682   -4.3915 H   0  0  0  0  0  0  0  0  0  0  0  0
   -0.3979    3.4616   -3.2841 H   0  0  0  0  0  0  0  0  0  0  0  0
  1  2  1  0  0  0  0
  1 36  1  0  0  0  0
  1 37  1  0  0  0  0
  2  3  1  0  0  0  0
  3 41  1  0  0  0  0
  3  4  1  0  0  0  0
  4  5  2  0  0  0  0
  5  6  1  0  0  0  0
  6  7  1  0  0  0  0
  7 43  1  0  0  0  0
  7 42  1  0  0  0  0
  7 44  1  0  0  0  0
  8 15  1  1  0  0  0
  8  6  1  0  0  0  0
  9  8  1  0  0  0  0
  9 10  2  0  0  0  0
 11  9  1  0  0  0  0
 12 11  1  0  0  0  0
 13 14  2  0  0  0  0
 13 11  1  0  0  0  0
 14 15  2  0  0  0  0
 15  4  1  0  0  0  0
 16 13  1  0  0  0  0
 17 45  1  0  0  0  0
 17 16  2  0  0  0  0
 18 17  1  0  0  0  0
 19 18  2  0  0  0  0
 19 20  1  0  0  0  0
 20 21  2  0  0  0  0
 21 16  1  0  0  0  0
 21 22  1  0  0  0  0
 23 22  1  0  0  0  0
 23 24  1  0  0  0  0
 24 51  1  0  0  0  0
 24 50  1  0  0  0  0
 24 52  1  0  0  0  0
 25 27  2  0  0  0  0
 25 18  1  0  0  0  0
 26 25  2  0  0  0  0
 28 25  1  0  0  0  0
 28 34  1  0  0  0  0
 29 28  1  0  0  0  0
 30 56  1  0  0  0  0
 30 29  1  0  0  0  0
 30 31  1  0  0  0  0
 31 33  1  0  0  0  0
 32 31  1  0  0  0  0
 32 59  1  0  0  0  0
 32 57  1  0  0  0  0
 33 61  1  0  0  0  0
 33 34  1  0  0  0  0
 33 60  1  0  0  0  0
 34 63  1  0  0  0  0
 35  1  1  0  0  0  0
 38  2  1  0  0  0  0
 39  2  1  0  0  0  0
 40  3  1  0  0  0  0
 46 19  1  0  0  0  0
 47 20  1  0  0  0  0
 48 23  1  0  0  0  0
 49 23  1  0  0  0  0
 53 29  1  0  0  0  0
 54 29  1  0  0  0  0
 55 30  1  0  0  0  0
 58 32  1  0  0  0  0
 62 34  1  0  0  0  0
M  RAD  1   8   2
M  END
$$$$
