
     RDKit          3D

 63 66  0  0  0  0  0  0  0  0999 V2000
   -0.3580   -1.0601   -0.3032 C   0  0  0  0  0  0  0  0  0  0  0  0
    0.9983   -0.3727   -0.1566 C   0  0  0  0  0  0  0  0  0  0  0  0
    1.3878   -0.0763    1.3021 C   0  0  0  0  0  0  0  0  0  0  0  0
    1.4689   -1.2987    2.1650 C   0  0  0  0  0  0  0  0  0  0  0  0
    0.9336   -1.3487    3.3857 N   0  0  0  0  0  0  0  0  0  0  0  0
    1.1698   -2.5743    3.8868 N   0  0  0  0  0  0  0  0  0  0  0  0
    0.7062   -2.9361    5.2113 C   0  0  0  0  0  0  0  0  0  0  0  0
    1.8532   -3.3453    2.9999 C   0  0  0  0  0  0  0  0  0  0  0  0
    2.2798   -4.7267    3.0546 C   0  0  0  0  0  0  0  0  0  0  0  0
    2.1461   -5.5368    3.9573 O   0  0  0  0  0  0  0  0  0  0  0  0
    2.8987   -5.0694    1.8374 N   0  0  0  0  0  0  0  0  0  0  0  0
    3.1806   -6.0436    1.7697 H   0  0  0  0  0  0  0  0  0  0  0  0
    3.0910   -4.2334    0.7444 C   0  0  0  0  0  0  0  0  0  0  0  0
    2.7102   -2.9941    0.7338 N   0  0  0  0  0  0  0  0  0  0  0  0
    2.0733   -2.5553    1.8611 C   0  0  0  0  0  0  0  0  0  0  0  0
    3.7861   -4.8321   -0.4210 C   0  0  0  0  0  0  0  0  0  0  0  0
    4.9120   -5.6389   -0.2259 C   0  0  0  0  0  0  0  0  0  0  0  0
    5.5889   -6.1877   -1.3126 C   0  0  0  0  0  0  0  0  0  0  0  0
    5.1473   -5.9590   -2.6161 C   0  0  0  0  0  0  0  0  0  0  0  0
    4.0210   -5.1713   -2.8293 C   0  0  0  0  0  0  0  0  0  0  0  0
    3.3242   -4.6005   -1.7458 C   0  0  0  0  0  0  0  0  0  0  0  0
    2.2203   -3.8531   -1.8806 O   0  0  0  0  0  0  0  0  0  0  0  0
    1.6415   -3.5848   -3.1546 C   0  0  0  0  0  0  0  0  0  0  0  0
    0.7742   -4.7315   -3.6490 C   0  0  0  0  0  0  0  0  0  0  0  0
    7.0094   -7.2267   -1.0309 S   0  0  0  0  0  0  0  0  0  0  0  0
    7.1415   -7.3773    0.4268 O   0  0  0  0  0  0  0  0  0  0  0  0
    6.9093   -8.4093   -1.8908 O   0  0  0  0  0  0  0  0  0  0  0  0
    8.2521   -6.2817   -1.6721 N   0  0  0  0  0  0  0  0  0  0  0  0
    8.6946   -5.1572   -0.8321 C   0  0  0  0  0  0  0  0  0  0  0  0
    9.7991   -5.5885    0.1458 C   0  0  0  0  0  0  0  0  0  0  0  0
   10.9089   -6.2673   -0.5132 N   0  0  0  0  0  0  0  0  0  0  0  0
   11.8381   -5.3922   -1.1991 C   0  0  0  0  0  0  0  0  0  0  0  0
   10.4351   -7.3952   -1.3069 C   0  0  0  0  0  0  0  0  0  0  0  0
    9.3569   -7.0020   -2.3254 C   0  0  0  0  0  0  0  0  0  0  0  0
   -0.6139   -1.2146   -1.3642 H   0  0  0  0  0  0  0  0  0  0  0  0
   -1.1669   -0.4644    0.1520 H   0  0  0  0  0  0  0  0  0  0  0  0
   -0.3570   -2.0481    0.1839 H   0  0  0  0  0  0  0  0  0  0  0  0
    0.9972    0.5804   -0.7127 H   0  0  0  0  0  0  0  0  0  0  0  0
    1.7765   -1.0081   -0.6079 H   0  0  0  0  0  0  0  0  0  0  0  0
    0.6688    0.6170    1.7671 H   0  0  0  0  0  0  0  0  0  0  0  0
    2.3673    0.4343    1.3093 H   0  0  0  0  0  0  0  0  0  0  0  0
    1.1784   -2.2894    5.9661 H   0  0  0  0  0  0  0  0  0  0  0  0
    0.9789   -3.9832    5.3911 H   0  0  0  0  0  0  0  0  0  0  0  0
   -0.3853   -2.8140    5.2716 H   0  0  0  0  0  0  0  0  0  0  0  0
    5.2924   -5.8348    0.7782 H   0  0  0  0  0  0  0  0  0  0  0  0
    5.6791   -6.4055   -3.4576 H   0  0  0  0  0  0  0  0  0  0  0  0
    3.6734   -5.0127   -3.8487 H   0  0  0  0  0  0  0  0  0  0  0  0
    2.4272   -3.3186   -3.8821 H   0  0  0  0  0  0  0  0  0  0  0  0
    1.0317   -2.6851   -2.9890 H   0  0  0  0  0  0  0  0  0  0  0  0
    1.3602   -5.6459   -3.8255 H   0  0  0  0  0  0  0  0  0  0  0  0
    0.2836   -4.4516   -4.5944 H   0  0  0  0  0  0  0  0  0  0  0  0
   -0.0067   -4.9630   -2.9091 H   0  0  0  0  0  0  0  0  0  0  0  0
    7.8289   -4.7425   -0.2948 H   0  0  0  0  0  0  0  0  0  0  0  0
    9.0537   -4.3690   -1.5153 H   0  0  0  0  0  0  0  0  0  0  0  0
   10.1817   -4.7120    0.6934 H   0  0  0  0  0  0  0  0  0  0  0  0
    9.3509   -6.2766    0.8800 H   0  0  0  0  0  0  0  0  0  0  0  0
   12.6962   -5.9789   -1.5647 H   0  0  0  0  0  0  0  0  0  0  0  0
   12.2258   -4.6404   -0.4931 H   0  0  0  0  0  0  0  0  0  0  0  0
   11.4234   -4.8396   -2.0718 H   0  0  0  0  0  0  0  0  0  0  0  0
   11.2904   -7.8648   -1.8197 H   0  0  0  0  0  0  0  0  0  0  0  0
   10.0056   -8.1487   -0.6233 H   0  0  0  0  0  0  0  0  0  0  0  0
    9.7671   -6.3252   -3.0940 H   0  0  0  0  0  0  0  0  0  0  0  0
    8.9455   -7.8812   -2.8370 H   0  0  0  0  0  0  0  0  0  0  0  0
  1  2  1  0
  1 35  1  0
  1 36  1  0
  1 37  1  0
  2  3  1  0
  2 38  1  0
  2 39  1  0
  3  4  1  0
  3 40  1  0
  3 41  1  0
  4  5  2  0
  4 15  1  0
  5  6  1  0
  6  7  1  0
  6  8  1  0
  7 42  1  0
  7 43  1  0
  7 44  1  0
  8  9  1  0
  8 15  2  0
  9 10  2  0
  9 11  1  0
 11 12  1  0
 11 13  1  0
 13 14  2  0
 13 16  1  0
 14 15  1  0
 16 17  2  0
 16 21  1  0
 17 18  1  0
 17 45  1  0
 18 19  2  0
 25 18  1  0
 19 20  1  0
 19 46  1  0
 20 21  2  0
 20 47  1  0
 21 22  1  0
 22 23  1  0
 23 24  1  0
 23 48  1  0
 23 49  1  0
 24 50  1  0
 24 51  1  0
 24 52  1  0
 25 26  2  0
 25 27  2  0
 25 28  1  0
 28 29  1  0
 28 34  1  0
 29 30  1  0
 29 53  1  0
 29 54  1  0
 30 31  1  0
 30 55  1  0
 30 56  1  0
 31 32  1  0
 31 33  1  0
 32 57  1  0
 32 58  1  0
 32 59  1  0
 33 34  1  0
 33 60  1  0
 33 61  1  0
 34 62  1  0
 34 63  1  0
M  END

