63

C          1.21360        0.73620        0.49390
C          2.65660        0.29520        0.72950
C          2.92040       -0.19850        2.16330
C          2.10910       -1.39960        2.53650
N          1.25850       -1.40280        3.56300
N          0.68770       -2.62020        3.61810
C         -0.28750       -2.93770        4.64140
C          1.15180       -3.42690        2.62740
C          0.84450       -4.79280        2.26770
O          0.06540       -5.57060        2.79910
N          1.59800       -5.16270        1.14330
H          1.44810       -6.10890        0.79800
C          2.49660       -4.37350        0.45380
N          2.75610       -3.14420        0.80460
C          2.08180       -2.67480        1.89280
C          3.18980       -4.93450       -0.73820
C          4.11870       -4.10000       -1.37200
C          4.78670       -4.50820       -2.52020
C          4.56550       -5.76920       -3.07050
C          3.65870       -6.62630       -2.45020
C          2.97130       -6.22670       -1.29310
O          2.08010       -7.03830       -0.67060
C          1.79680       -8.34790       -1.16450
C          0.77290       -8.97540       -0.24220
S          5.99840       -3.42040       -3.25820
O          7.07160       -3.17050       -2.29290
O          6.31090       -3.97950       -4.58250
N          5.12200       -1.98990       -3.38180
C          5.81960       -0.73370       -3.07200
C          6.47030       -0.14840       -4.33180
N          5.53880       -0.01140       -5.44580
C          4.64350        1.12410       -5.34900
C          4.88700       -1.28160       -5.74240
C          4.19470       -1.90120       -4.51880
H          1.06630        1.09300       -0.53790
H          0.92800        1.55330        1.17710
H          0.50970       -0.09410        0.66440
H          3.34320        1.13320        0.51890
H          2.92190       -0.51080        0.02510
H          2.70240        0.59840        2.89170
H          3.99140       -0.44550        2.26280
H         -0.61880       -3.97120        4.48260
H         -1.14420       -2.25100        4.57000
H          0.16620       -2.83660        5.63880
H          4.28530       -3.11130       -0.94710
H          5.09730       -6.06510       -3.97560
H          3.48500       -7.61210       -2.87730
H          2.72940       -8.93820       -1.18920
H          1.41350       -8.27290       -2.19720
H          1.16290       -9.04860        0.78430
H          0.52350       -9.98860       -0.59160
H         -0.15130       -8.37840       -0.21880
H          6.56280       -0.93170       -2.28980
H          5.06640       -0.04360       -2.65490
H          6.91870        0.83360       -4.10900
H          7.28850       -0.82300       -4.64040
H          4.05750        1.21170       -6.27800
H          5.23170        2.04930       -5.23820
H          3.91860        1.09380       -4.50510
H          4.15970       -1.13620       -6.55770
H          5.64940       -1.99630       -6.09260
H          3.33550       -1.29130       -4.19180
H          3.80960       -2.90500       -4.75030
