63
rmsd43.gzmat
C          0.00000        0.00000        0.00000
C          1.52740        0.00000        0.00000
C          2.09050        0.00000        1.43170
C          1.79510       -1.27330        2.12430
N          1.20690       -1.31850        3.36000
N          1.08140       -2.60920        3.71710
C          0.47640       -2.98410        4.98180
C          1.57310       -3.44400        2.74270
C          1.65810       -4.88090        2.64020
O          1.29130       -5.71120        3.44360
N          2.25170       -5.31030        1.43050
H          2.30390       -6.31570        1.26200
C          2.67180       -4.42450        0.42280
N          2.59520       -3.11420        0.53410
C          2.04830       -2.60820        1.68610
C          3.24300       -4.97630       -0.81610
C          4.18740       -4.20820       -1.50530
C          4.69730       -4.63920       -2.72740
C          4.27410       -5.84950       -3.27880
C          3.34820       -6.64120       -2.60870
C          2.83670       -6.20310       -1.38320
O          1.93220       -6.87530       -0.64920
C          1.44650       -8.14640       -1.10920
C          0.55420       -8.59210        0.03680
S          5.85520       -3.65600       -3.60680
O          7.15090       -3.72290       -2.97120
O          5.70540       -3.97580       -5.01080
N          5.24610       -2.03340       -3.32800
C          6.22810       -1.02870       -2.88640
C          6.98940       -0.36910       -4.06300
N          6.11100        0.17840       -5.11740
C          5.46040        1.43650       -4.69720
C          5.12750       -0.83930       -5.53920
C          4.35320       -1.48750       -4.36450
H         -0.39790        0.00320       -1.01960
H         -0.40410        0.87360        0.52240
H         -0.39420       -0.89100        0.50500
H          1.90890        0.88160       -0.54620
H          1.90780       -0.88920       -0.54830
H          1.68110        0.86160        2.00200
H          3.19250        0.15300        1.39890
H          0.53930       -4.08510        5.12040
H         -0.58980       -2.68330        5.00940
H          0.99390       -2.48720        5.82590
H          4.49580       -3.24260       -1.06670
H          4.65700       -6.18840       -4.25180
H          3.02610       -7.57930       -3.04620
H          2.29970       -8.82630       -1.27510
H          0.88870       -7.98750       -2.04860
H          1.12990       -8.78700        0.95210
H          0.01030       -9.50930       -0.21900
H         -0.19100       -7.82230        0.28970
H          6.95450       -1.48440       -2.17310
H          5.67140       -0.25430       -2.30910
H          7.65500        0.43350       -3.68600
H          7.66120       -1.11160       -4.55470
H          4.88630        1.84280       -5.54670
H          6.23930        2.17740       -4.45120
H          4.78590        1.34240       -3.83400
H          4.42140       -0.38900       -6.26460
H          5.68860       -1.62380       -6.10480
H          3.69780       -0.73150       -3.87170
H          3.67490       -2.27900       -4.75110
