63
rmsd175.gzmat
C          0.00000        0.00000        0.00000
C          1.52750        0.00000        0.00000
C          2.09960        0.00000        1.43030
C          2.03790       -1.35060        2.02940
N          3.07640       -2.24040        1.96100
N          2.70230       -3.36920        2.58940
C          3.58720       -4.51690        2.66400
C          1.42460       -3.26260        3.08420
C          0.58240       -4.16980        3.82440
O          0.84460       -5.28870        4.20880
N         -0.69700       -3.63120        4.10290
H         -1.33780       -4.20930        4.64600
C         -1.08540       -2.33440        3.72760
N         -0.29140       -1.50820        3.07520
C          0.95960       -1.95690        2.74040
C         -2.45180       -1.86860        4.02020
C         -2.95510       -0.82150        3.23540
C         -4.23950       -0.32900        3.43880
C         -5.03610       -0.83980        4.46490
C         -4.55380       -1.85700        5.27830
C         -3.27590       -2.37720        5.04370
O         -2.76920       -3.42900        5.72060
C         -3.23250       -3.72150        7.04000
C         -2.84200       -2.61660        8.00140
S         -4.86890        0.91800        2.37860
O         -6.07870        1.45440        2.96490
O         -3.78460        1.77780        1.96680
N         -5.35940       -0.03060        0.98290
C         -6.69850        0.24470        0.43630
C         -6.71760        1.43210       -0.56080
N         -5.71070        1.33530       -1.63680
C         -6.09270        0.34680       -2.66600
C         -4.37920        1.05350       -1.06460
C         -4.36110       -0.15430       -0.09470
H         -0.39740       -0.01300       -1.01880
H         -0.40280        0.88570        0.50890
H         -0.39550       -0.87610        0.53080
H          1.90400        0.88700       -0.54330
H          1.90970       -0.87880       -0.55380
H          1.53010        0.71710        2.06400
H          3.14760        0.36890        1.41500
H          3.15960       -5.28110        3.34810
H          4.58600       -4.21760        3.03820
H          3.71970       -4.97300        1.66270
H         -2.29710       -0.38420        2.46050
H         -6.04580       -0.44480        4.64230
H         -5.17400       -2.25330        6.07610
H         -2.68180       -4.66780        7.23070
H         -4.31630       -3.92440        7.02040
H         -1.77170       -2.37400        7.91760
H         -3.03050       -2.90630        9.04320
H         -3.39410       -1.68710        7.81250
H         -7.42280        0.43510        1.26200
H         -7.04720       -0.68380       -0.07120
H         -7.72620        1.53430       -1.01010
H         -6.52530        2.38980       -0.02280
H         -5.32810        0.34210       -3.46040
H         -7.03910        0.66650       -3.13260
H         -6.21540       -0.68110       -2.29570
H         -3.65140        0.89940       -1.88550
H         -4.04730        1.97770       -0.52890
H         -4.58550       -1.09390       -0.65040
H         -3.34040       -0.28260        0.32950
