63

C         -0.35800       -1.06010       -0.30320
C          0.99830       -0.37270       -0.15660
C          1.38780       -0.07630        1.30210
C          1.46890       -1.29870        2.16500
N          0.93360       -1.34870        3.38570
N          1.16980       -2.57430        3.88680
C          0.70620       -2.93610        5.21130
C          1.85320       -3.34530        2.99990
C          2.27980       -4.72670        3.05460
O          2.14610       -5.53680        3.95730
N          2.89870       -5.06940        1.83740
H          3.18060       -6.04360        1.76970
C          3.09100       -4.23340        0.74440
N          2.71020       -2.99410        0.73380
C          2.07330       -2.55530        1.86110
C          3.78610       -4.83210       -0.42100
C          4.91200       -5.63890       -0.22590
C          5.58890       -6.18770       -1.31260
C          5.14730       -5.95900       -2.61610
C          4.02100       -5.17130       -2.82930
C          3.32420       -4.60050       -1.74580
O          2.22030       -3.85310       -1.88060
C          1.64150       -3.58480       -3.15460
C          0.77420       -4.73150       -3.64900
S          7.00940       -7.22670       -1.03090
O          7.14150       -7.37730        0.42680
O          6.90930       -8.40930       -1.89080
N          8.25210       -6.28170       -1.67210
C          8.69460       -5.15720       -0.83210
C          9.79910       -5.58850        0.14580
N         10.90890       -6.26730       -0.51320
C         11.83810       -5.39220       -1.19910
C         10.43510       -7.39520       -1.30690
C          9.35690       -7.00200       -2.32540
H         -0.61390       -1.21460       -1.36420
H         -1.16690       -0.46440        0.15200
H         -0.35700       -2.04810        0.18390
H          0.99720        0.58040       -0.71270
H          1.77650       -1.00810       -0.60790
H          0.66880        0.61700        1.76710
H          2.36730        0.43430        1.30930
H          1.17840       -2.28940        5.96610
H          0.97890       -3.98320        5.39110
H         -0.38530       -2.81400        5.27160
H          5.29240       -5.83480        0.77820
H          5.67910       -6.40550       -3.45760
H          3.67340       -5.01270       -3.84870
H          2.42720       -3.31860       -3.88210
H          1.03170       -2.68510       -2.98900
H          1.36020       -5.64590       -3.82550
H          0.28360       -4.45160       -4.59440
H         -0.00670       -4.96300       -2.90910
H          7.82890       -4.74250       -0.29480
H          9.05370       -4.36900       -1.51530
H         10.18170       -4.71200        0.69340
H          9.35090       -6.27660        0.88000
H         12.69620       -5.97890       -1.56470
H         12.22580       -4.64040       -0.49310
H         11.42340       -4.83960       -2.07180
H         11.29040       -7.86480       -1.81970
H         10.00560       -8.14870       -0.62330
H          9.76710       -6.32520       -3.09400
H          8.94550       -7.88120       -2.83700
