63

C          0.92390        2.01890       -0.94880
C          2.32900        1.60130       -0.52260
C          2.38610        1.10580        0.93180
C          3.75060        0.65700        1.34410
N          4.48370        1.30640        2.24820
N          5.65720        0.65730        2.36540
C          6.67630        1.12570        3.28220
C          5.70860       -0.42050        1.53890
C          6.73200       -1.41420        1.30670
O          7.83360       -1.51810        1.82640
N          6.28820       -2.32690        0.33760
H          6.93580       -3.07600        0.10000
C          5.06900       -2.31740       -0.31100
N          4.16160       -1.41040       -0.07530
C          4.48670       -0.46310        0.84980
C          4.77410       -3.37460       -1.31650
C          3.54890       -3.26730       -1.99650
C          3.16600       -4.21120       -2.93750
C          3.99640       -5.28840       -3.25620
C          5.21630       -5.41190       -2.60440
C          5.61770       -4.47030       -1.63800
O          6.81420       -4.55700       -0.99980
C          7.67820       -5.68780       -1.15000
C          7.20610       -6.88750       -0.34620
S          1.59570       -4.04420       -3.76980
O          1.09950       -2.68960       -3.49190
O          1.75050       -4.51500       -5.14970
N          0.66920       -5.21110       -2.97340
C          0.15280       -4.82190       -1.65140
C         -1.20460       -4.11080       -1.76800
N         -2.17720       -4.86690       -2.54880
C         -2.79980       -5.96940       -1.84430
C         -1.64290       -5.20740       -3.86210
C         -0.30330       -5.95290       -3.79140
H          0.90790        2.37290       -1.99140
H          0.53580        2.83130       -0.31170
H          0.21910        1.17400       -0.87440
H          3.02820        2.44750       -0.63730
H          2.69920        0.80050       -1.18400
H          1.68120        0.26370        1.04710
H          2.05840        1.90100        1.61970
H          7.53330        0.44490        3.21040
H          6.28380        1.13150        4.31010
H          6.98330        2.14780        3.01400
H          2.90640       -2.41770       -1.76870
H          3.68980       -6.01170       -4.01290
H          5.86610       -6.24800       -2.85570
H          8.65090       -5.33230       -0.78190
H          7.80070       -5.92480       -2.21950
H          7.11270       -6.62240        0.71770
H          7.93640       -7.70670       -0.43560
H          6.23120       -7.25850       -0.69510
H          0.89110       -4.18380       -1.14420
H          0.06670       -5.74700       -1.05650
H         -1.61610       -3.91500       -0.76460
H         -1.03550       -3.13960       -2.25940
H         -3.59470       -6.40580       -2.47030
H         -3.27080       -5.59720       -0.92030
H         -2.11860       -6.80030       -1.55350
H         -2.38490       -5.80840       -4.41280
H         -1.48730       -4.27330       -4.43010
H         -0.42620       -6.94320       -3.32060
H          0.12460       -6.10620       -4.79000
