
     RDKit          3D

 63 66  0  0  0  0  0  0  0  0999 V2000
   -0.1726    0.3881    0.1786 C   0  0  0  0  0  0  0  0  0  0  0  0
    1.3485    0.5153    0.1571 C   0  0  0  0  0  0  0  0  0  0  0  0
    2.0034    0.0309    1.4611 C   0  0  0  0  0  0  0  0  0  0  0  0
    3.4952    0.1154    1.4332 C   0  0  0  0  0  0  0  0  0  0  0  0
    4.1864    0.9637    2.1941 N   0  0  0  0  0  0  0  0  0  0  0  0
    5.4913    0.8006    1.9067 N   0  0  0  0  0  0  0  0  0  0  0  0
    6.5040    1.5876    2.5803 C   0  0  0  0  0  0  0  0  0  0  0  0
    5.6705   -0.1519    0.9538 C   0  0  0  0  0  0  0  0  0  0  0  0
    6.8593   -0.6794    0.3238 C   0  0  0  0  0  0  0  0  0  0  0  0
    8.0288   -0.3773    0.5132 O   0  0  0  0  0  0  0  0  0  0  0  0
    6.4979   -1.6616   -0.6102 N   0  0  0  0  0  0  0  0  0  0  0  0
    7.2668   -2.1046   -1.1093 H   0  0  0  0  0  0  0  0  0  0  0  0
    5.2195   -2.0911   -0.9080 C   0  0  0  0  0  0  0  0  0  0  0  0
    4.1648   -1.5996   -0.3184 N   0  0  0  0  0  0  0  0  0  0  0  0
    4.3957   -0.6293    0.6114 C   0  0  0  0  0  0  0  0  0  0  0  0
    5.0331   -3.1483   -1.9388 C   0  0  0  0  0  0  0  0  0  0  0  0
    3.7088   -3.5006   -2.2471 C   0  0  0  0  0  0  0  0  0  0  0  0
    3.4290   -4.4871   -3.1818 C   0  0  0  0  0  0  0  0  0  0  0  0
    4.4539   -5.1477   -3.8628 C   0  0  0  0  0  0  0  0  0  0  0  0
    5.7727   -4.8116   -3.5827 C   0  0  0  0  0  0  0  0  0  0  0  0
    6.0752   -3.8229   -2.6282 C   0  0  0  0  0  0  0  0  0  0  0  0
    7.3552   -3.4806   -2.3367 O   0  0  0  0  0  0  0  0  0  0  0  0
    8.4614   -4.1047   -2.9893 C   0  0  0  0  0  0  0  0  0  0  0  0
    9.7288   -3.4918   -2.4314 C   0  0  0  0  0  0  0  0  0  0  0  0
    1.7315   -4.9113   -3.5378 S   0  0  0  0  0  0  0  0  0  0  0  0
    0.8894   -3.8651   -2.9423 O   0  0  0  0  0  0  0  0  0  0  0  0
    1.6241   -5.2355   -4.9636 O   0  0  0  0  0  0  0  0  0  0  0  0
    1.5710   -6.3732   -2.7070 N   0  0  0  0  0  0  0  0  0  0  0  0
    1.3715   -6.2620   -1.2532 C   0  0  0  0  0  0  0  0  0  0  0  0
   -0.1187   -6.1293   -0.9017 C   0  0  0  0  0  0  0  0  0  0  0  0
   -0.9394   -7.1755   -1.5012 N   0  0  0  0  0  0  0  0  0  0  0  0
   -0.8798   -8.4572   -0.8282 C   0  0  0  0  0  0  0  0  0  0  0  0
   -0.7388   -7.2355   -2.9443 C   0  0  0  0  0  0  0  0  0  0  0  0
    0.7343   -7.4047   -3.3400 C   0  0  0  0  0  0  0  0  0  0  0  0
   -0.6197    0.7434   -0.7630 H   0  0  0  0  0  0  0  0  0  0  0  0
   -0.6130    0.9746    1.0023 H   0  0  0  0  0  0  0  0  0  0  0  0
   -0.4812   -0.6614    0.3172 H   0  0  0  0  0  0  0  0  0  0  0  0
    1.6397    1.5654   -0.0181 H   0  0  0  0  0  0  0  0  0  0  0  0
    1.7619   -0.0663   -0.6836 H   0  0  0  0  0  0  0  0  0  0  0  0
    1.7066   -1.0178    1.6385 H   0  0  0  0  0  0  0  0  0  0  0  0
    1.6372    0.6218    2.3152 H   0  0  0  0  0  0  0  0  0  0  0  0
    6.3376    2.6584    2.3893 H   0  0  0  0  0  0  0  0  0  0  0  0
    7.4828    1.2836    2.1895 H   0  0  0  0  0  0  0  0  0  0  0  0
    6.4591    1.4096    3.6653 H   0  0  0  0  0  0  0  0  0  0  0  0
    2.9031   -2.9739   -1.7372 H   0  0  0  0  0  0  0  0  0  0  0  0
    4.2153   -5.9064   -4.6092 H   0  0  0  0  0  0  0  0  0  0  0  0
    6.5743   -5.3199   -4.1153 H   0  0  0  0  0  0  0  0  0  0  0  0
    8.3829   -3.9413   -4.0783 H   0  0  0  0  0  0  0  0  0  0  0  0
    8.4277   -5.1926   -2.8043 H   0  0  0  0  0  0  0  0  0  0  0  0
    9.7554   -2.4077   -2.6189 H   0  0  0  0  0  0  0  0  0  0  0  0
   10.6087   -3.9484   -2.9088 H   0  0  0  0  0  0  0  0  0  0  0  0
    9.7977   -3.6561   -1.3455 H   0  0  0  0  0  0  0  0  0  0  0  0
    1.9458   -5.4059   -0.8700 H   0  0  0  0  0  0  0  0  0  0  0  0
    1.8075   -7.1685   -0.8001 H   0  0  0  0  0  0  0  0  0  0  0  0
   -0.2517   -6.1441    0.1922 H   0  0  0  0  0  0  0  0  0  0  0  0
   -0.4667   -5.1518   -1.2714 H   0  0  0  0  0  0  0  0  0  0  0  0
   -1.6122   -9.1458   -1.2798 H   0  0  0  0  0  0  0  0  0  0  0  0
   -1.1526   -8.3299    0.2317 H   0  0  0  0  0  0  0  0  0  0  0  0
    0.1088   -8.9682   -0.8534 H   0  0  0  0  0  0  0  0  0  0  0  0
   -1.3426   -8.0575   -3.3623 H   0  0  0  0  0  0  0  0  0  0  0  0
   -1.1087   -6.2948   -3.3890 H   0  0  0  0  0  0  0  0  0  0  0  0
    1.1241   -8.3811   -3.0051 H   0  0  0  0  0  0  0  0  0  0  0  0
    0.8679   -7.3444   -4.4274 H   0  0  0  0  0  0  0  0  0  0  0  0
  1  2  1  0
  1 35  1  0
  1 36  1  0
  1 37  1  0
  2  3  1  0
  2 38  1  0
  2 39  1  0
  3  4  1  0
  3 40  1  0
  3 41  1  0
  4  5  2  0
  4 15  1  0
  5  6  1  0
  6  7  1  0
  6  8  1  0
  7 42  1  0
  7 43  1  0
  7 44  1  0
  8  9  1  0
  8 15  2  0
  9 10  2  0
  9 11  1  0
 11 12  1  0
 11 13  1  0
 13 14  2  0
 13 16  1  0
 14 15  1  0
 16 17  2  0
 16 21  1  0
 17 18  1  0
 17 45  1  0
 18 19  2  0
 25 18  1  0
 19 20  1  0
 19 46  1  0
 20 21  2  0
 20 47  1  0
 21 22  1  0
 22 23  1  0
 23 24  1  0
 23 48  1  0
 23 49  1  0
 24 50  1  0
 24 51  1  0
 24 52  1  0
 25 26  2  0
 25 27  2  0
 25 28  1  0
 28 29  1  0
 28 34  1  0
 29 30  1  0
 29 53  1  0
 29 54  1  0
 30 31  1  0
 30 55  1  0
 30 56  1  0
 31 32  1  0
 31 33  1  0
 32 57  1  0
 32 58  1  0
 32 59  1  0
 33 34  1  0
 33 60  1  0
 33 61  1  0
 34 62  1  0
 34 63  1  0
M  END

