rmsd199.gzmat
 OpenBabel08211713433D

 63 66  0  0  1  0  0  0  0  0999 V2000
    0.0000    0.0000    0.0000 C   0  0  0  0  0  0  0  0  0  0  0  0
    1.5275    0.0000    0.0000 C   0  0  0  0  0  0  0  0  0  0  0  0
    2.0989    0.0000    1.4272 C   0  0  0  0  0  0  0  0  0  0  0  0
    1.7531   -1.2303    2.1744 C   0  0  0  0  0  0  0  0  0  0  0  0
    1.5080   -1.2016    3.5226 N   0  0  0  0  0  0  0  0  0  0  0  0
    1.2373   -2.4546    3.9273 N   0  0  0  0  0  0  0  0  0  0  0  0
    0.9200   -2.7449    5.3132 C   0  0  0  0  0  0  0  0  0  0  0  0
    1.2890   -3.3375    2.8765 C   0  0  2  0  0  0  0  0  0  0  0  0
    1.0821   -4.7637    2.7927 C   0  0  0  0  0  0  0  0  0  0  0  0
    0.8259   -5.5344    3.6920 O   0  0  0  0  0  0  0  0  0  0  0  0
    1.2051   -5.2600    1.4735 N   0  0  0  0  0  0  0  0  0  0  0  0
    1.1093   -6.2664    1.3365 H   0  0  0  0  0  0  0  0  0  0  0  0
    1.5398   -4.4459    0.3791 C   0  0  0  0  0  0  0  0  0  0  0  0
    1.7545   -3.1501    0.4756 N   0  0  0  0  0  0  0  0  0  0  0  0
    1.6261   -2.5758    1.7153 C   0  0  0  0  0  0  0  0  0  0  0  0
    1.6360   -5.0515   -0.9581 C   0  0  0  0  0  0  0  0  0  0  0  0
    1.2799   -4.2637   -2.0593 C   0  0  0  0  0  0  0  0  0  0  0  0
    1.4544   -4.7398   -3.3548 C   0  0  0  0  0  0  0  0  0  0  0  0
    1.9812   -6.0141   -3.5734 C   0  0  0  0  0  0  0  0  0  0  0  0
    2.3246   -6.8231   -2.4972 C   0  0  0  0  0  0  0  0  0  0  0  0
    2.1415   -6.3429   -1.1962 C   0  0  0  0  0  0  0  0  0  0  0  0
    2.3612   -7.0832   -0.0875 O   0  0  0  0  0  0  0  0  0  0  0  0
    3.3947   -8.0699   -0.1031 C   0  0  0  0  0  0  0  0  0  0  0  0
    4.7493   -7.4075   -0.2641 C   0  0  0  0  0  0  0  0  0  0  0  0
    1.0321   -3.7263   -4.7234 S   0  0  0  0  0  0  0  0  0  0  0  0
    1.5501   -4.3608   -5.9171 O   0  0  0  0  0  0  0  0  0  0  0  0
   -0.3552   -3.3379   -4.6227 O   0  0  0  0  0  0  0  0  0  0  0  0
    1.9890   -2.2844   -4.4215 N   0  0  0  0  0  0  0  0  0  0  0  0
    3.0875   -2.0244   -5.3672 C   0  0  0  0  0  0  0  0  0  0  0  0
    2.6106   -1.3062   -6.6549 C   0  0  0  0  0  0  0  0  0  0  0  0
    1.8394   -0.0724   -6.4039 N   0  0  0  0  0  0  0  0  0  0  0  0
    2.7049    1.0489   -5.9836 C   0  0  0  0  0  0  0  0  0  0  0  0
    0.7610   -0.3308   -5.4280 C   0  0  0  0  0  0  0  0  0  0  0  0
    1.2332   -1.0505   -4.1401 C   0  0  0  0  0  0  0  0  0  0  0  0
   -0.3992    0.0148   -1.0195 H   0  0  0  0  0  0  0  0  0  0  0  0
   -0.4052    0.8646    0.5346 H   0  0  0  0  0  0  0  0  0  0  0  0
   -0.3904   -0.9013    0.4906 H   0  0  0  0  0  0  0  0  0  0  0  0
    1.9086    0.8821   -0.5463 H   0  0  0  0  0  0  0  0  0  0  0  0
    1.9036   -0.8909   -0.5490 H   0  0  0  0  0  0  0  0  0  0  0  0
    1.7415    0.8981    1.9783 H   0  0  0  0  0  0  0  0  0  0  0  0
    3.2073    0.0999    1.3826 H   0  0  0  0  0  0  0  0  0  0  0  0
    0.8443   -3.8436    5.4628 H   0  0  0  0  0  0  0  0  0  0  0  0
   -0.0457   -2.2822    5.5977 H   0  0  0  0  0  0  0  0  0  0  0  0
    1.7024   -2.3428    5.9861 H   0  0  0  0  0  0  0  0  0  0  0  0
    0.8800   -3.2538   -1.8697 H   0  0  0  0  0  0  0  0  0  0  0  0
    2.1303   -6.3914   -4.5950 H   0  0  0  0  0  0  0  0  0  0  0  0
    2.7228   -7.8181   -2.6677 H   0  0  0  0  0  0  0  0  0  0  0  0
    3.1820   -8.8265   -0.8764 H   0  0  0  0  0  0  0  0  0  0  0  0
    3.2525   -8.5169    0.9036 H   0  0  0  0  0  0  0  0  0  0  0  0
    4.8783   -6.9697   -1.2623 H   0  0  0  0  0  0  0  0  0  0  0  0
    5.5689   -8.1193   -0.1060 H   0  0  0  0  0  0  0  0  0  0  0  0
    4.8792   -6.5897    0.4615 H   0  0  0  0  0  0  0  0  0  0  0  0
    3.6026   -2.9737   -5.6356 H   0  0  0  0  0  0  0  0  0  0  0  0
    3.8425   -1.4001   -4.8367 H   0  0  0  0  0  0  0  0  0  0  0  0
    3.4767   -1.0737   -7.3061 H   0  0  0  0  0  0  0  0  0  0  0  0
    1.9567   -1.9870   -7.2514 H   0  0  0  0  0  0  0  0  0  0  0  0
    2.0952    1.9673   -5.9414 H   0  0  0  0  0  0  0  0  0  0  0  0
    3.4813    1.2139   -6.7485 H   0  0  0  0  0  0  0  0  0  0  0  0
    3.1986    0.9118   -5.0112 H   0  0  0  0  0  0  0  0  0  0  0  0
    0.2617    0.6251   -5.1716 H   0  0  0  0  0  0  0  0  0  0  0  0
   -0.0112   -0.9467   -5.9490 H   0  0  0  0  0  0  0  0  0  0  0  0
    1.8991   -0.3816   -3.5474 H   0  0  0  0  0  0  0  0  0  0  0  0
    0.3565   -1.2709   -3.4889 H   0  0  0  0  0  0  0  0  0  0  0  0
  1 37  1  0  0  0  0
  1 36  1  0  0  0  0
  2  1  1  0  0  0  0
  2  3  1  0  0  0  0
  3 40  1  0  0  0  0
  3  4  1  0  0  0  0
  4  5  2  0  0  0  0
  5  6  1  0  0  0  0
  6  7  1  0  0  0  0
  7 42  1  0  0  0  0
  7 43  1  0  0  0  0
  7 44  1  0  0  0  0
  8 15  1  1  0  0  0
  8  6  1  0  0  0  0
  9  8  1  0  0  0  0
  9 10  2  0  0  0  0
 11  9  1  0  0  0  0
 12 11  1  0  0  0  0
 13 14  2  0  0  0  0
 13 11  1  0  0  0  0
 14 15  2  0  0  0  0
 15  4  1  0  0  0  0
 16 13  1  0  0  0  0
 17 45  1  0  0  0  0
 17 16  2  0  0  0  0
 18 17  1  0  0  0  0
 19 18  2  0  0  0  0
 19 20  1  0  0  0  0
 20 21  2  0  0  0  0
 21 16  1  0  0  0  0
 21 22  1  0  0  0  0
 23 22  1  0  0  0  0
 23 49  1  0  0  0  0
 24 51  1  0  0  0  0
 24 23  1  0  0  0  0
 24 52  1  0  0  0  0
 25 27  2  0  0  0  0
 25 28  1  0  0  0  0
 25 18  1  0  0  0  0
 26 25  2  0  0  0  0
 28 34  1  0  0  0  0
 29 54  1  0  0  0  0
 29 28  1  0  0  0  0
 30 31  1  0  0  0  0
 30 29  1  0  0  0  0
 31 32  1  0  0  0  0
 31 33  1  0  0  0  0
 32 57  1  0  0  0  0
 32 59  1  0  0  0  0
 33 60  1  0  0  0  0
 33 34  1  0  0  0  0
 34 62  1  0  0  0  0
 34 63  1  0  0  0  0
 35  1  1  0  0  0  0
 38  2  1  0  0  0  0
 39  2  1  0  0  0  0
 41  3  1  0  0  0  0
 46 19  1  0  0  0  0
 47 20  1  0  0  0  0
 48 23  1  0  0  0  0
 50 24  1  0  0  0  0
 53 29  1  0  0  0  0
 55 30  1  0  0  0  0
 56 30  1  0  0  0  0
 58 32  1  0  0  0  0
 61 33  1  0  0  0  0
M  RAD  1   8   2
M  END
$$$$
