
     RDKit          3D

 63 66  0  0  0  0  0  0  0  0999 V2000
    0.9239    2.0189   -0.9488 C   0  0  0  0  0  0  0  0  0  0  0  0
    2.3290    1.6013   -0.5226 C   0  0  0  0  0  0  0  0  0  0  0  0
    2.3861    1.1058    0.9318 C   0  0  0  0  0  0  0  0  0  0  0  0
    3.7506    0.6570    1.3441 C   0  0  0  0  0  0  0  0  0  0  0  0
    4.4837    1.3064    2.2482 N   0  0  0  0  0  0  0  0  0  0  0  0
    5.6572    0.6573    2.3654 N   0  0  0  0  0  0  0  0  0  0  0  0
    6.6763    1.1257    3.2822 C   0  0  0  0  0  0  0  0  0  0  0  0
    5.7086   -0.4205    1.5389 C   0  0  0  0  0  0  0  0  0  0  0  0
    6.7320   -1.4142    1.3067 C   0  0  0  0  0  0  0  0  0  0  0  0
    7.8336   -1.5181    1.8264 O   0  0  0  0  0  0  0  0  0  0  0  0
    6.2882   -2.3269    0.3376 N   0  0  0  0  0  0  0  0  0  0  0  0
    6.9358   -3.0760    0.1000 H   0  0  0  0  0  0  0  0  0  0  0  0
    5.0690   -2.3174   -0.3110 C   0  0  0  0  0  0  0  0  0  0  0  0
    4.1616   -1.4104   -0.0753 N   0  0  0  0  0  0  0  0  0  0  0  0
    4.4867   -0.4631    0.8498 C   0  0  0  0  0  0  0  0  0  0  0  0
    4.7741   -3.3746   -1.3165 C   0  0  0  0  0  0  0  0  0  0  0  0
    3.5489   -3.2673   -1.9965 C   0  0  0  0  0  0  0  0  0  0  0  0
    3.1660   -4.2112   -2.9375 C   0  0  0  0  0  0  0  0  0  0  0  0
    3.9964   -5.2884   -3.2562 C   0  0  0  0  0  0  0  0  0  0  0  0
    5.2163   -5.4119   -2.6044 C   0  0  0  0  0  0  0  0  0  0  0  0
    5.6177   -4.4703   -1.6380 C   0  0  0  0  0  0  0  0  0  0  0  0
    6.8142   -4.5570   -0.9998 O   0  0  0  0  0  0  0  0  0  0  0  0
    7.6782   -5.6878   -1.1500 C   0  0  0  0  0  0  0  0  0  0  0  0
    7.2061   -6.8875   -0.3462 C   0  0  0  0  0  0  0  0  0  0  0  0
    1.5957   -4.0442   -3.7698 S   0  0  0  0  0  0  0  0  0  0  0  0
    1.0995   -2.6896   -3.4919 O   0  0  0  0  0  0  0  0  0  0  0  0
    1.7505   -4.5150   -5.1497 O   0  0  0  0  0  0  0  0  0  0  0  0
    0.6692   -5.2111   -2.9734 N   0  0  0  0  0  0  0  0  0  0  0  0
    0.1528   -4.8219   -1.6514 C   0  0  0  0  0  0  0  0  0  0  0  0
   -1.2046   -4.1108   -1.7680 C   0  0  0  0  0  0  0  0  0  0  0  0
   -2.1772   -4.8669   -2.5488 N   0  0  0  0  0  0  0  0  0  0  0  0
   -2.7998   -5.9694   -1.8443 C   0  0  0  0  0  0  0  0  0  0  0  0
   -1.6429   -5.2074   -3.8621 C   0  0  0  0  0  0  0  0  0  0  0  0
   -0.3033   -5.9529   -3.7914 C   0  0  0  0  0  0  0  0  0  0  0  0
    0.9079    2.3729   -1.9914 H   0  0  0  0  0  0  0  0  0  0  0  0
    0.5358    2.8313   -0.3117 H   0  0  0  0  0  0  0  0  0  0  0  0
    0.2191    1.1740   -0.8744 H   0  0  0  0  0  0  0  0  0  0  0  0
    3.0282    2.4475   -0.6373 H   0  0  0  0  0  0  0  0  0  0  0  0
    2.6992    0.8005   -1.1840 H   0  0  0  0  0  0  0  0  0  0  0  0
    1.6812    0.2637    1.0471 H   0  0  0  0  0  0  0  0  0  0  0  0
    2.0584    1.9010    1.6197 H   0  0  0  0  0  0  0  0  0  0  0  0
    7.5333    0.4449    3.2104 H   0  0  0  0  0  0  0  0  0  0  0  0
    6.2838    1.1315    4.3101 H   0  0  0  0  0  0  0  0  0  0  0  0
    6.9833    2.1478    3.0140 H   0  0  0  0  0  0  0  0  0  0  0  0
    2.9064   -2.4177   -1.7687 H   0  0  0  0  0  0  0  0  0  0  0  0
    3.6898   -6.0117   -4.0129 H   0  0  0  0  0  0  0  0  0  0  0  0
    5.8661   -6.2480   -2.8557 H   0  0  0  0  0  0  0  0  0  0  0  0
    8.6509   -5.3323   -0.7819 H   0  0  0  0  0  0  0  0  0  0  0  0
    7.8007   -5.9248   -2.2195 H   0  0  0  0  0  0  0  0  0  0  0  0
    7.1127   -6.6224    0.7177 H   0  0  0  0  0  0  0  0  0  0  0  0
    7.9364   -7.7067   -0.4356 H   0  0  0  0  0  0  0  0  0  0  0  0
    6.2312   -7.2585   -0.6951 H   0  0  0  0  0  0  0  0  0  0  0  0
    0.8911   -4.1838   -1.1442 H   0  0  0  0  0  0  0  0  0  0  0  0
    0.0667   -5.7470   -1.0565 H   0  0  0  0  0  0  0  0  0  0  0  0
   -1.6161   -3.9150   -0.7646 H   0  0  0  0  0  0  0  0  0  0  0  0
   -1.0355   -3.1396   -2.2594 H   0  0  0  0  0  0  0  0  0  0  0  0
   -3.5947   -6.4058   -2.4703 H   0  0  0  0  0  0  0  0  0  0  0  0
   -3.2708   -5.5972   -0.9203 H   0  0  0  0  0  0  0  0  0  0  0  0
   -2.1186   -6.8003   -1.5535 H   0  0  0  0  0  0  0  0  0  0  0  0
   -2.3849   -5.8084   -4.4128 H   0  0  0  0  0  0  0  0  0  0  0  0
   -1.4873   -4.2733   -4.4301 H   0  0  0  0  0  0  0  0  0  0  0  0
   -0.4262   -6.9432   -3.3206 H   0  0  0  0  0  0  0  0  0  0  0  0
    0.1246   -6.1062   -4.7900 H   0  0  0  0  0  0  0  0  0  0  0  0
  1  2  1  0
  1 35  1  0
  1 36  1  0
  1 37  1  0
  2  3  1  0
  2 38  1  0
  2 39  1  0
  3  4  1  0
  3 40  1  0
  3 41  1  0
  4  5  2  0
  4 15  1  0
  5  6  1  0
  6  7  1  0
  6  8  1  0
  7 42  1  0
  7 43  1  0
  7 44  1  0
  8  9  1  0
  8 15  2  0
  9 10  2  0
  9 11  1  0
 11 12  1  0
 11 13  1  0
 13 14  2  0
 13 16  1  0
 14 15  1  0
 16 17  2  0
 16 21  1  0
 17 18  1  0
 17 45  1  0
 18 19  2  0
 25 18  1  0
 19 20  1  0
 19 46  1  0
 20 21  2  0
 20 47  1  0
 21 22  1  0
 22 23  1  0
 23 24  1  0
 23 48  1  0
 23 49  1  0
 24 50  1  0
 24 51  1  0
 24 52  1  0
 25 26  2  0
 25 27  2  0
 25 28  1  0
 28 29  1  0
 28 34  1  0
 29 30  1  0
 29 53  1  0
 29 54  1  0
 30 31  1  0
 30 55  1  0
 30 56  1  0
 31 32  1  0
 31 33  1  0
 32 57  1  0
 32 58  1  0
 32 59  1  0
 33 34  1  0
 33 60  1  0
 33 61  1  0
 34 62  1  0
 34 63  1  0
M  END

