rmsd187.gzmat
 OpenBabel08211713433D

 63 66  0  0  1  0  0  0  0  0999 V2000
    0.0000    0.0000    0.0000 C   0  0  0  0  0  0  0  0  0  0  0  0
    1.5266    0.0000    0.0000 C   0  0  0  0  0  0  0  0  0  0  0  0
    2.0733    0.0000    1.4385 C   0  0  0  0  0  0  0  0  0  0  0  0
    3.5514   -0.0242    1.4179 C   0  0  0  0  0  0  0  0  0  0  0  0
    4.3145    0.9653    1.9778 N   0  0  0  0  0  0  0  0  0  0  0  0
    5.6083    0.6618    1.7714 N   0  0  0  0  0  0  0  0  0  0  0  0
    6.6700    1.5058    2.2870 C   0  0  0  0  0  0  0  0  0  0  0  0
    5.7382   -0.5211    1.0849 C   0  0  2  0  0  0  0  0  0  0  0  0
    6.8929   -1.2446    0.6056 C   0  0  0  0  0  0  0  0  0  0  0  0
    8.0613   -0.9489    0.7275 O   0  0  0  0  0  0  0  0  0  0  0  0
    6.5459   -2.4318   -0.0812 N   0  0  0  0  0  0  0  0  0  0  0  0
    7.3000   -2.9927   -0.4740 H   0  0  0  0  0  0  0  0  0  0  0  0
    5.2104   -2.8316   -0.2799 C   0  0  0  0  0  0  0  0  0  0  0  0
    4.1679   -2.1704    0.1597 N   0  0  0  0  0  0  0  0  0  0  0  0
    4.4149   -1.0003    0.8399 C   0  0  0  0  0  0  0  0  0  0  0  0
    5.0128   -4.0754   -1.0416 C   0  0  0  0  0  0  0  0  0  0  0  0
    4.9836   -5.3120   -0.4067 C   0  0  0  0  0  0  0  0  0  0  0  0
    4.6999   -6.4596   -1.1460 C   0  0  0  0  0  0  0  0  0  0  0  0
    4.4505   -6.3768   -2.5178 C   0  0  0  0  0  0  0  0  0  0  0  0
    4.4726   -5.1479   -3.1676 C   0  0  0  0  0  0  0  0  0  0  0  0
    4.7576   -3.9973   -2.4255 C   0  0  0  0  0  0  0  0  0  0  0  0
    4.8900   -2.7546   -2.9288 O   0  0  0  0  0  0  0  0  0  0  0  0
    4.1516   -2.4110   -4.1035 C   0  0  0  0  0  0  0  0  0  0  0  0
    2.6637   -2.4210   -3.8061 C   0  0  0  0  0  0  0  0  0  0  0  0
    4.6295   -8.0120   -0.3372 S   0  0  0  0  0  0  0  0  0  0  0  0
    5.0106   -9.0512   -1.2687 O   0  0  0  0  0  0  0  0  0  0  0  0
    5.2739   -7.8711    0.9491 O   0  0  0  0  0  0  0  0  0  0  0  0
    2.9027   -8.2012   -0.0705 N   0  0  0  0  0  0  0  0  0  0  0  0
    2.3382   -9.5289   -0.3679 C   0  0  0  0  0  0  0  0  0  0  0  0
    2.4997  -10.5295    0.8049 C   0  0  0  0  0  0  0  0  0  0  0  0
    2.0030  -10.0246    2.1008 N   0  0  0  0  0  0  0  0  0  0  0  0
    0.5276  -10.0334    2.1704 C   0  0  0  0  0  0  0  0  0  0  0  0
    2.5652   -8.6876    2.3762 C   0  0  0  0  0  0  0  0  0  0  0  0
    2.3882   -7.6824    1.2101 C   0  0  0  0  0  0  0  0  0  0  0  0
   -0.3942    0.0153   -1.0220 H   0  0  0  0  0  0  0  0  0  0  0  0
   -0.4024    0.8756    0.5213 H   0  0  0  0  0  0  0  0  0  0  0  0
   -0.3993   -0.8937    0.4928 H   0  0  0  0  0  0  0  0  0  0  0  0
    1.9127    0.8791   -0.5489 H   0  0  0  0  0  0  0  0  0  0  0  0
    1.9108   -0.8905   -0.5401 H   0  0  0  0  0  0  0  0  0  0  0  0
    1.6924   -0.8897    1.9872 H   0  0  0  0  0  0  0  0  0  0  0  0
    1.6971    0.8861    1.9933 H   0  0  0  0  0  0  0  0  0  0  0  0
    7.6427    1.2099    1.8377 H   0  0  0  0  0  0  0  0  0  0  0  0
    6.7469    1.4063    3.3881 H   0  0  0  0  0  0  0  0  0  0  0  0
    6.4738    2.5704    2.0523 H   0  0  0  0  0  0  0  0  0  0  0  0
    5.1816   -5.3642    0.6752 H   0  0  0  0  0  0  0  0  0  0  0  0
    4.2399   -7.2819   -3.1025 H   0  0  0  0  0  0  0  0  0  0  0  0
    4.2767   -5.0871   -4.2327 H   0  0  0  0  0  0  0  0  0  0  0  0
    4.4372   -3.0682   -4.9403 H   0  0  0  0  0  0  0  0  0  0  0  0
    4.5426   -1.3873   -4.2850 H   0  0  0  0  0  0  0  0  0  0  0  0
    2.2753   -3.4386   -3.6772 H   0  0  0  0  0  0  0  0  0  0  0  0
    2.0876   -1.9380   -4.6033 H   0  0  0  0  0  0  0  0  0  0  0  0
    2.4480   -1.8825   -2.8681 H   0  0  0  0  0  0  0  0  0  0  0  0
    2.8014   -9.9492   -1.2910 H   0  0  0  0  0  0  0  0  0  0  0  0
    1.2585   -9.3867   -0.6022 H   0  0  0  0  0  0  0  0  0  0  0  0
    1.9914  -11.4844    0.5625 H   0  0  0  0  0  0  0  0  0  0  0  0
    3.5759  -10.7854    0.9489 H   0  0  0  0  0  0  0  0  0  0  0  0
    0.2170   -9.7230    3.1820 H   0  0  0  0  0  0  0  0  0  0  0  0
    0.1686  -11.0658    2.0255 H   0  0  0  0  0  0  0  0  0  0  0  0
    0.0261   -9.3853    1.4381 H   0  0  0  0  0  0  0  0  0  0  0  0
    2.1157   -8.2828    3.3047 H   0  0  0  0  0  0  0  0  0  0  0  0
    3.6532   -8.8268    2.5970 H   0  0  0  0  0  0  0  0  0  0  0  0
    1.3079   -7.4502    1.0654 H   0  0  0  0  0  0  0  0  0  0  0  0
    2.8772   -6.7162    1.4628 H   0  0  0  0  0  0  0  0  0  0  0  0
  1 37  1  0  0  0  0
  1 36  1  0  0  0  0
  2  1  1  0  0  0  0
  2  3  1  0  0  0  0
  3 40  1  0  0  0  0
  3 41  1  0  0  0  0
  4  3  1  0  0  0  0
  4  5  2  0  0  0  0
  6  5  1  0  0  0  0
  6  7  1  0  0  0  0
  7 43  1  0  0  0  0
  8  9  1  6  0  0  0
  8  6  1  0  0  0  0
  9 10  2  0  0  0  0
 11  9  1  0  0  0  0
 12 11  1  0  0  0  0
 13 11  1  0  0  0  0
 13 14  2  0  0  0  0
 14 15  2  0  0  0  0
 15  8  1  0  0  0  0
 15  4  1  0  0  0  0
 16 17  1  0  0  0  0
 16 13  1  0  0  0  0
 17 45  1  0  0  0  0
 18 17  2  0  0  0  0
 18 25  1  0  0  0  0
 19 18  1  0  0  0  0
 20 19  2  0  0  0  0
 20 21  1  0  0  0  0
 21 16  2  0  0  0  0
 22 21  1  0  0  0  0
 23 24  1  0  0  0  0
 23 22  1  0  0  0  0
 24 50  1  0  0  0  0
 24 52  1  0  0  0  0
 25 28  1  0  0  0  0
 25 27  2  0  0  0  0
 26 25  2  0  0  0  0
 28 34  1  0  0  0  0
 29 28  1  0  0  0  0
 29 30  1  0  0  0  0
 30 56  1  0  0  0  0
 30 31  1  0  0  0  0
 31 32  1  0  0  0  0
 31 33  1  0  0  0  0
 32 57  1  0  0  0  0
 33 61  1  0  0  0  0
 33 60  1  0  0  0  0
 34 63  1  0  0  0  0
 34 33  1  0  0  0  0
 35  1  1  0  0  0  0
 38  2  1  0  0  0  0
 39  2  1  0  0  0  0
 42  7  1  0  0  0  0
 44  7  1  0  0  0  0
 46 19  1  0  0  0  0
 47 20  1  0  0  0  0
 48 23  1  0  0  0  0
 49 23  1  0  0  0  0
 51 24  1  0  0  0  0
 53 29  1  0  0  0  0
 54 29  1  0  0  0  0
 55 30  1  0  0  0  0
 58 32  1  0  0  0  0
 59 32  1  0  0  0  0
 62 34  1  0  0  0  0
M  RAD  1   8   2
M  END
$$$$
