
     RDKit          3D

 63 66  0  0  0  0  0  0  0  0999 V2000
   -0.4582   -0.6598   -0.3336 C   0  0  0  0  0  0  0  0  0  0  0  0
    1.0438   -0.4538   -0.5338 C   0  0  0  0  0  0  0  0  0  0  0  0
    1.8365   -0.1595    0.7554 C   0  0  0  0  0  0  0  0  0  0  0  0
    1.9622   -1.3175    1.6968 C   0  0  0  0  0  0  0  0  0  0  0  0
    3.0650   -2.0665    1.7562 N   0  0  0  0  0  0  0  0  0  0  0  0
    2.8641   -3.0200    2.6834 N   0  0  0  0  0  0  0  0  0  0  0  0
    3.8968   -3.9897    2.9875 C   0  0  0  0  0  0  0  0  0  0  0  0
    1.6305   -2.9105    3.2442 C   0  0  0  0  0  0  0  0  0  0  0  0
    0.9530   -3.6879    4.2584 C   0  0  0  0  0  0  0  0  0  0  0  0
    1.3613   -4.6569    4.8814 O   0  0  0  0  0  0  0  0  0  0  0  0
   -0.3369   -3.1719    4.4646 N   0  0  0  0  0  0  0  0  0  0  0  0
   -0.9112   -3.6585    5.1505 H   0  0  0  0  0  0  0  0  0  0  0  0
   -0.9051   -2.0937    3.8162 C   0  0  0  0  0  0  0  0  0  0  0  0
   -0.2606   -1.4014    2.9192 N   0  0  0  0  0  0  0  0  0  0  0  0
    1.0044   -1.8142    2.6317 C   0  0  0  0  0  0  0  0  0  0  0  0
   -2.3150   -1.7202    4.1074 C   0  0  0  0  0  0  0  0  0  0  0  0
   -2.8282   -0.6383    3.3751 C   0  0  0  0  0  0  0  0  0  0  0  0
   -4.1534   -0.2507    3.4995 C   0  0  0  0  0  0  0  0  0  0  0  0
   -5.0107   -0.9000    4.3905 C   0  0  0  0  0  0  0  0  0  0  0  0
   -4.5163   -1.9524    5.1528 C   0  0  0  0  0  0  0  0  0  0  0  0
   -3.1814   -2.3784    5.0180 C   0  0  0  0  0  0  0  0  0  0  0  0
   -2.6764   -3.4252    5.7221 O   0  0  0  0  0  0  0  0  0  0  0  0
   -3.4248   -4.0792    6.7519 C   0  0  0  0  0  0  0  0  0  0  0  0
   -3.4462   -3.2831    8.0457 C   0  0  0  0  0  0  0  0  0  0  0  0
   -4.7698    1.0740    2.4753 S   0  0  0  0  0  0  0  0  0  0  0  0
   -5.9141    1.6921    3.1527 O   0  0  0  0  0  0  0  0  0  0  0  0
   -3.6105    1.8805    2.0708 O   0  0  0  0  0  0  0  0  0  0  0  0
   -5.3972    0.2168    1.1616 N   0  0  0  0  0  0  0  0  0  0  0  0
   -6.6311    0.7440    0.5582 C   0  0  0  0  0  0  0  0  0  0  0  0
   -6.3104    1.7930   -0.5158 C   0  0  0  0  0  0  0  0  0  0  0  0
   -5.3704    1.3134   -1.5222 N   0  0  0  0  0  0  0  0  0  0  0  0
   -5.9481    0.4363   -2.5202 C   0  0  0  0  0  0  0  0  0  0  0  0
   -4.1479    0.8140   -0.9021 C   0  0  0  0  0  0  0  0  0  0  0  0
   -4.4144   -0.2527    0.1707 C   0  0  0  0  0  0  0  0  0  0  0  0
   -0.9613   -0.8331   -1.2988 H   0  0  0  0  0  0  0  0  0  0  0  0
   -0.9209    0.2248    0.1344 H   0  0  0  0  0  0  0  0  0  0  0  0
   -0.6711   -1.5183    0.3203 H   0  0  0  0  0  0  0  0  0  0  0  0
    1.2021    0.3908   -1.2264 H   0  0  0  0  0  0  0  0  0  0  0  0
    1.4844   -1.3392   -1.0240 H   0  0  0  0  0  0  0  0  0  0  0  0
    1.3585    0.6805    1.2873 H   0  0  0  0  0  0  0  0  0  0  0  0
    2.8551    0.1583    0.4864 H   0  0  0  0  0  0  0  0  0  0  0  0
    3.5078   -4.6663    3.7582 H   0  0  0  0  0  0  0  0  0  0  0  0
    4.7981   -3.4773    3.3562 H   0  0  0  0  0  0  0  0  0  0  0  0
    4.1568   -4.5577    2.0818 H   0  0  0  0  0  0  0  0  0  0  0  0
   -2.1532   -0.1133    2.7013 H   0  0  0  0  0  0  0  0  0  0  0  0
   -6.0460   -0.5709    4.4899 H   0  0  0  0  0  0  0  0  0  0  0  0
   -5.1803   -2.4488    5.8580 H   0  0  0  0  0  0  0  0  0  0  0  0
   -2.9053   -5.0374    6.8940 H   0  0  0  0  0  0  0  0  0  0  0  0
   -4.4394   -4.3084    6.3872 H   0  0  0  0  0  0  0  0  0  0  0  0
   -2.4202   -3.0880    8.3923 H   0  0  0  0  0  0  0  0  0  0  0  0
   -3.9719   -3.8548    8.8263 H   0  0  0  0  0  0  0  0  0  0  0  0
   -3.9578   -2.3168    7.9260 H   0  0  0  0  0  0  0  0  0  0  0  0
   -7.2594    1.1631    1.3542 H   0  0  0  0  0  0  0  0  0  0  0  0
   -7.1664   -0.1169    0.1229 H   0  0  0  0  0  0  0  0  0  0  0  0
   -7.2369    2.1257   -1.0120 H   0  0  0  0  0  0  0  0  0  0  0  0
   -5.8695    2.6731   -0.0153 H   0  0  0  0  0  0  0  0  0  0  0  0
   -5.1975    0.2168   -3.2965 H   0  0  0  0  0  0  0  0  0  0  0  0
   -6.7957    0.9419   -3.0104 H   0  0  0  0  0  0  0  0  0  0  0  0
   -6.3239   -0.5409   -2.1421 H   0  0  0  0  0  0  0  0  0  0  0  0
   -3.4823    0.4074   -1.6804 H   0  0  0  0  0  0  0  0  0  0  0  0
   -3.6263    1.6555   -0.4193 H   0  0  0  0  0  0  0  0  0  0  0  0
   -4.8293   -1.1712   -0.2779 H   0  0  0  0  0  0  0  0  0  0  0  0
   -3.4834   -0.5407    0.6785 H   0  0  0  0  0  0  0  0  0  0  0  0
  1  2  1  0
  1 35  1  0
  1 36  1  0
  1 37  1  0
  2  3  1  0
  2 38  1  0
  2 39  1  0
  3  4  1  0
  3 40  1  0
  3 41  1  0
  4  5  2  0
  4 15  1  0
  5  6  1  0
  6  7  1  0
  6  8  1  0
  7 42  1  0
  7 43  1  0
  7 44  1  0
  8  9  1  0
  8 15  2  0
  9 10  2  0
  9 11  1  0
 11 12  1  0
 11 13  1  0
 13 14  2  0
 13 16  1  0
 14 15  1  0
 16 17  2  0
 16 21  1  0
 17 18  1  0
 17 45  1  0
 18 19  2  0
 25 18  1  0
 19 20  1  0
 19 46  1  0
 20 21  2  0
 20 47  1  0
 21 22  1  0
 22 23  1  0
 23 24  1  0
 23 48  1  0
 23 49  1  0
 24 50  1  0
 24 51  1  0
 24 52  1  0
 25 26  2  0
 25 27  2  0
 25 28  1  0
 28 29  1  0
 28 34  1  0
 29 30  1  0
 29 53  1  0
 29 54  1  0
 30 31  1  0
 30 55  1  0
 30 56  1  0
 31 32  1  0
 31 33  1  0
 32 57  1  0
 32 58  1  0
 32 59  1  0
 33 34  1  0
 33 60  1  0
 33 61  1  0
 34 62  1  0
 34 63  1  0
M  END

