63
rmsd228.gzmat
C          0.00000        0.00000        0.00000
C          1.52760        0.00000        0.00000
C          2.09000        0.00000        1.43220
C          1.77740        1.26950        2.12330
N          1.09210        1.31560        3.30730
N          0.96980        2.60500        3.67000
C          0.28800        2.97890        4.89530
C          1.56360        3.43760        2.75220
C          1.69800        4.87280        2.68110
O          1.28410        5.70230        3.46140
N          2.41220        5.30040        1.53670
H          2.51410        6.30490        1.39380
C          2.89460        4.41470        0.55860
N          2.76260        3.10570        0.63450
C          2.10180        2.60170        1.72660
C          3.60590        4.96440       -0.60610
C          4.61930        4.18920       -1.17930
C          5.25490        4.60520       -2.34560
C          4.91760        5.82340       -2.93660
C          3.92930        6.62380       -2.37550
C          3.27070        6.18900       -1.22080
O          2.30840        6.88340       -0.58130
C          1.69450        8.00720       -1.21470
C          0.77130        7.54330       -2.32470
S          6.45710        3.57270       -3.09360
O          7.09000        4.31160       -4.16590
O          7.23170        2.93230       -2.05620
N          5.45350        2.34150       -3.84450
C          5.68730        2.08770       -5.27560
C          6.85250        1.09840       -5.53150
N          6.74290       -0.16910       -4.78150
C          5.72550       -1.06980       -5.36050
C          6.49130        0.10280       -3.35200
C          5.31490        1.07800       -3.09760
H         -0.39850       -0.00300       -1.01940
H         -0.39450        0.88990        0.50670
H         -0.40390       -0.87370        0.52290
H          1.90770        0.89010       -0.54590
H          1.90840       -0.88250       -0.54610
H          3.19370       -0.13990        1.40030
H          1.68970       -0.86710        1.99960
H          0.30600        4.08370        5.01740
H          0.77980        2.51560        5.77330
H         -0.76630        2.63850        4.87520
H          4.89220        3.23950       -0.68730
H          5.42910        6.16520       -3.84750
H          3.67680        7.57310       -2.83630
H          2.46180        8.72420       -1.55030
H          1.13950        8.43600       -0.35250
H          1.31720        7.04400       -3.13530
H          0.21740        8.38190       -2.76510
H          0.03100        6.82020       -1.94980
H          5.87880        3.04420       -5.81390
H          4.74180        1.67940       -5.69990
H          6.93380        0.87920       -6.61530
H          7.82340        1.56450       -5.24160
H          5.75060       -2.02950       -4.81780
H          5.99080       -1.28520       -6.40870
H          4.69740       -0.68210       -5.33490
H          6.32010       -0.85410       -2.82010
H          7.43540        0.52350       -2.92600
H          4.35360        0.61000       -3.41170
H          5.21840        1.27710       -2.00650
