
     RDKit          3D

 63 66  0  0  0  0  0  0  0  0999 V2000
   -1.2765    0.3690    0.9019 C   0  0  0  0  0  0  0  0  0  0  0  0
    0.0318    0.2204    0.1283 C   0  0  0  0  0  0  0  0  0  0  0  0
    1.2598    0.0168    1.0340 C   0  0  0  0  0  0  0  0  0  0  0  0
    1.5161    1.1738    1.9473 C   0  0  0  0  0  0  0  0  0  0  0  0
    1.4751    1.0672    3.2755 N   0  0  0  0  0  0  0  0  0  0  0  0
    1.7270    2.2843    3.7919 N   0  0  0  0  0  0  0  0  0  0  0  0
    1.7588    2.4905    5.2255 C   0  0  0  0  0  0  0  0  0  0  0  0
    1.9311    3.2027    2.8110 C   0  0  0  0  0  0  0  0  0  0  0  0
    2.2183    4.6185    2.8558 C   0  0  0  0  0  0  0  0  0  0  0  0
    2.3526    5.3453    3.8298 O   0  0  0  0  0  0  0  0  0  0  0  0
    2.3322    5.1152    1.5489 N   0  0  0  0  0  0  0  0  0  0  0  0
    2.5186    6.1129    1.4668 H   0  0  0  0  0  0  0  0  0  0  0  0
    2.1908    4.3998    0.3762 C   0  0  0  0  0  0  0  0  0  0  0  0
    1.9311    3.1215    0.3671 N   0  0  0  0  0  0  0  0  0  0  0  0
    1.8026    2.5266    1.5875 C   0  0  0  0  0  0  0  0  0  0  0  0
    2.3358    5.1067   -0.9251 C   0  0  0  0  0  0  0  0  0  0  0  0
    2.2748    4.3132   -2.0819 C   0  0  0  0  0  0  0  0  0  0  0  0
    2.3582    4.8811   -3.3455 C   0  0  0  0  0  0  0  0  0  0  0  0
    2.5337    6.2569   -3.5077 C   0  0  0  0  0  0  0  0  0  0  0  0
    2.6159    7.0623   -2.3780 C   0  0  0  0  0  0  0  0  0  0  0  0
    2.5160    6.5056   -1.0898 C   0  0  0  0  0  0  0  0  0  0  0  0
    2.5888    7.2717    0.0275 O   0  0  0  0  0  0  0  0  0  0  0  0
    2.7649    8.6867   -0.0492 C   0  0  0  0  0  0  0  0  0  0  0  0
    2.7957    9.2230    1.3666 C   0  0  0  0  0  0  0  0  0  0  0  0
    2.2388    3.8393   -4.7905 S   0  0  0  0  0  0  0  0  0  0  0  0
    3.0383    4.4418   -5.8618 O   0  0  0  0  0  0  0  0  0  0  0  0
    2.4892    2.4604   -4.3510 O   0  0  0  0  0  0  0  0  0  0  0  0
    0.6212    4.0529   -5.2272 N   0  0  0  0  0  0  0  0  0  0  0  0
    0.3256    4.1142   -6.6670 C   0  0  0  0  0  0  0  0  0  0  0  0
    0.0958    2.7086   -7.2390 C   0  0  0  0  0  0  0  0  0  0  0  0
   -0.9094    1.9498   -6.5042 N   0  0  0  0  0  0  0  0  0  0  0  0
   -2.2797    2.3173   -6.7981 C   0  0  0  0  0  0  0  0  0  0  0  0
   -0.5826    1.8849   -5.0841 C   0  0  0  0  0  0  0  0  0  0  0  0
   -0.3589    3.2700   -4.4574 C   0  0  0  0  0  0  0  0  0  0  0  0
   -2.1321    0.5037    0.2211 H   0  0  0  0  0  0  0  0  0  0  0  0
   -1.2453    1.2391    1.5773 H   0  0  0  0  0  0  0  0  0  0  0  0
   -1.4771   -0.5198    1.5230 H   0  0  0  0  0  0  0  0  0  0  0  0
    0.2020    1.1120   -0.4980 H   0  0  0  0  0  0  0  0  0  0  0  0
   -0.0368   -0.6368   -0.5631 H   0  0  0  0  0  0  0  0  0  0  0  0
    2.1477   -0.1410    0.3985 H   0  0  0  0  0  0  0  0  0  0  0  0
    1.1361   -0.8859    1.6528 H   0  0  0  0  0  0  0  0  0  0  0  0
    0.7896    2.2132    5.6664 H   0  0  0  0  0  0  0  0  0  0  0  0
    1.9665    3.5518    5.4093 H   0  0  0  0  0  0  0  0  0  0  0  0
    2.5456    1.8688    5.6786 H   0  0  0  0  0  0  0  0  0  0  0  0
    2.1666    3.2361   -1.9621 H   0  0  0  0  0  0  0  0  0  0  0  0
    2.6180    6.6828   -4.5084 H   0  0  0  0  0  0  0  0  0  0  0  0
    2.7621    8.1339   -2.5001 H   0  0  0  0  0  0  0  0  0  0  0  0
    1.9329    9.1269   -0.6262 H   0  0  0  0  0  0  0  0  0  0  0  0
    3.7055    8.9097   -0.5827 H   0  0  0  0  0  0  0  0  0  0  0  0
    1.8571    8.9922    1.8927 H   0  0  0  0  0  0  0  0  0  0  0  0
    2.9269   10.3153    1.3519 H   0  0  0  0  0  0  0  0  0  0  0  0
    3.6279    8.7811    1.9353 H   0  0  0  0  0  0  0  0  0  0  0  0
    1.1551    4.6231   -7.1736 H   0  0  0  0  0  0  0  0  0  0  0  0
   -0.5759    4.7400   -6.7814 H   0  0  0  0  0  0  0  0  0  0  0  0
   -0.1986    2.7719   -8.2994 H   0  0  0  0  0  0  0  0  0  0  0  0
    1.0525    2.1590   -7.1940 H   0  0  0  0  0  0  0  0  0  0  0  0
   -2.9653    1.6219   -6.2879 H   0  0  0  0  0  0  0  0  0  0  0  0
   -2.4616    2.2288   -7.8813 H   0  0  0  0  0  0  0  0  0  0  0  0
   -2.5759    3.3480   -6.4995 H   0  0  0  0  0  0  0  0  0  0  0  0
   -1.3862    1.3533   -4.5493 H   0  0  0  0  0  0  0  0  0  0  0  0
    0.3460    1.3053   -4.9610 H   0  0  0  0  0  0  0  0  0  0  0  0
   -1.2943    3.8548   -4.4422 H   0  0  0  0  0  0  0  0  0  0  0  0
   -0.0211    3.1815   -3.4147 H   0  0  0  0  0  0  0  0  0  0  0  0
  1  2  1  0
  1 35  1  0
  1 36  1  0
  1 37  1  0
  2  3  1  0
  2 38  1  0
  2 39  1  0
  3  4  1  0
  3 40  1  0
  3 41  1  0
  4  5  2  0
  4 15  1  0
  5  6  1  0
  6  7  1  0
  6  8  1  0
  7 42  1  0
  7 43  1  0
  7 44  1  0
  8  9  1  0
  8 15  2  0
  9 10  2  0
  9 11  1  0
 11 12  1  0
 11 13  1  0
 13 14  2  0
 13 16  1  0
 14 15  1  0
 16 17  2  0
 16 21  1  0
 17 18  1  0
 17 45  1  0
 18 19  2  0
 25 18  1  0
 19 20  1  0
 19 46  1  0
 20 21  2  0
 20 47  1  0
 21 22  1  0
 22 23  1  0
 23 24  1  0
 23 48  1  0
 23 49  1  0
 24 50  1  0
 24 51  1  0
 24 52  1  0
 25 26  2  0
 25 27  2  0
 25 28  1  0
 28 29  1  0
 28 34  1  0
 29 30  1  0
 29 53  1  0
 29 54  1  0
 30 31  1  0
 30 55  1  0
 30 56  1  0
 31 32  1  0
 31 33  1  0
 32 57  1  0
 32 58  1  0
 32 59  1  0
 33 34  1  0
 33 60  1  0
 33 61  1  0
 34 62  1  0
 34 63  1  0
M  END

