63
rmsd24.gzmat
C          0.00000        0.00000        0.00000
C          1.52760        0.00000        0.00000
C          2.09320        0.00000        1.43150
C          1.77170       -1.26800        2.12170
N          1.02480       -1.30940        3.26870
N          0.89090       -2.59690        3.63420
C          0.13530       -2.96650        4.81680
C          1.53200       -3.43260        2.75290
C          1.66080       -4.87010        2.69760
O          1.21310       -5.68940        3.47010
N          2.41180       -5.30610        1.58280
H          2.54330       -6.30860        1.45910
C          2.96410       -4.41480        0.63760
N          2.85300       -3.11210        0.70380
C          2.12560       -2.60040        1.75380
C          3.69380       -5.05110       -0.47020
C          4.91870       -5.67340       -0.25830
C          5.59360       -6.26080       -1.32780
C          5.05460       -6.21250       -2.61530
C          3.83640       -5.58670       -2.84950
C          3.15290       -5.00580       -1.77490
O          1.96810       -4.37820       -1.83300
C          1.26530       -4.31090       -3.07470
C          0.56120       -5.62700       -3.34790
S          7.11640       -7.07810       -1.04920
O          7.23340       -7.32270        0.37150
O          7.25650       -8.14150       -2.02060
N          8.30140       -5.85450       -1.48270
C          8.91290       -5.12430       -0.35690
C         10.08980       -5.89830        0.28920
N         11.12620       -6.32230       -0.67330
C         11.97110       -5.19290       -1.11200
C         10.50700       -7.02710       -1.81380
C          9.32500       -6.26140       -2.46190
H         -0.39830        0.00020       -1.01900
H         -0.40320        0.87570        0.52000
H         -0.39460       -0.88810        0.51010
H          1.90970        0.88150       -0.54670
H          1.90890       -0.88920       -0.54550
H          1.69770        0.87000        1.99860
H          3.19770        0.13260        1.39480
H          0.49310       -2.40360        5.70140
H          0.24510       -4.05490        5.01310
H         -0.94020       -2.73770        4.67950
H          5.33670       -5.70050        0.75980
H          5.58130       -6.67820       -3.45850
H          3.42920       -5.55110       -3.85390
H          1.93620       -3.99450       -3.88910
H          0.55330       -3.48760       -2.84820
H          1.26710       -6.44580       -3.53200
H         -0.09810       -5.55430       -4.22150
H         -0.05970       -5.92910       -2.49130
H          8.14720       -4.88780        0.41410
H          9.26980       -4.14500       -0.75030
H         10.55690       -5.28920        1.08840
H          9.70920       -6.82180        0.79220
H         12.75980       -5.57370       -1.78160
H         12.47640       -4.76290       -0.23110
H         11.43240       -4.38800       -1.63180
H         11.28150       -7.24770       -2.57580
H         10.16230       -8.01910       -1.43600
H          9.69710       -5.33680       -2.95890
H          8.86820       -6.88300       -3.26580
