
     RDKit          3D

 63 66  0  0  0  0  0  0  0  0999 V2000
    1.2136    0.7362    0.4939 C   0  0  0  0  0  0  0  0  0  0  0  0
    2.6566    0.2952    0.7295 C   0  0  0  0  0  0  0  0  0  0  0  0
    2.9204   -0.1985    2.1633 C   0  0  0  0  0  0  0  0  0  0  0  0
    2.1091   -1.3996    2.5365 C   0  0  0  0  0  0  0  0  0  0  0  0
    1.2585   -1.4028    3.5630 N   0  0  0  0  0  0  0  0  0  0  0  0
    0.6877   -2.6202    3.6181 N   0  0  0  0  0  0  0  0  0  0  0  0
   -0.2875   -2.9377    4.6414 C   0  0  0  0  0  0  0  0  0  0  0  0
    1.1518   -3.4269    2.6274 C   0  0  0  0  0  0  0  0  0  0  0  0
    0.8445   -4.7928    2.2677 C   0  0  0  0  0  0  0  0  0  0  0  0
    0.0654   -5.5706    2.7991 O   0  0  0  0  0  0  0  0  0  0  0  0
    1.5980   -5.1627    1.1433 N   0  0  0  0  0  0  0  0  0  0  0  0
    1.4481   -6.1089    0.7980 H   0  0  0  0  0  0  0  0  0  0  0  0
    2.4966   -4.3735    0.4538 C   0  0  0  0  0  0  0  0  0  0  0  0
    2.7561   -3.1442    0.8046 N   0  0  0  0  0  0  0  0  0  0  0  0
    2.0818   -2.6748    1.8928 C   0  0  0  0  0  0  0  0  0  0  0  0
    3.1898   -4.9345   -0.7382 C   0  0  0  0  0  0  0  0  0  0  0  0
    4.1187   -4.1000   -1.3720 C   0  0  0  0  0  0  0  0  0  0  0  0
    4.7867   -4.5082   -2.5202 C   0  0  0  0  0  0  0  0  0  0  0  0
    4.5655   -5.7692   -3.0705 C   0  0  0  0  0  0  0  0  0  0  0  0
    3.6587   -6.6263   -2.4502 C   0  0  0  0  0  0  0  0  0  0  0  0
    2.9713   -6.2267   -1.2931 C   0  0  0  0  0  0  0  0  0  0  0  0
    2.0801   -7.0383   -0.6706 O   0  0  0  0  0  0  0  0  0  0  0  0
    1.7968   -8.3479   -1.1645 C   0  0  0  0  0  0  0  0  0  0  0  0
    0.7729   -8.9754   -0.2422 C   0  0  0  0  0  0  0  0  0  0  0  0
    5.9984   -3.4204   -3.2582 S   0  0  0  0  0  0  0  0  0  0  0  0
    7.0716   -3.1705   -2.2929 O   0  0  0  0  0  0  0  0  0  0  0  0
    6.3109   -3.9795   -4.5825 O   0  0  0  0  0  0  0  0  0  0  0  0
    5.1220   -1.9899   -3.3818 N   0  0  0  0  0  0  0  0  0  0  0  0
    5.8196   -0.7337   -3.0720 C   0  0  0  0  0  0  0  0  0  0  0  0
    6.4703   -0.1484   -4.3318 C   0  0  0  0  0  0  0  0  0  0  0  0
    5.5388   -0.0114   -5.4458 N   0  0  0  0  0  0  0  0  0  0  0  0
    4.6435    1.1241   -5.3490 C   0  0  0  0  0  0  0  0  0  0  0  0
    4.8870   -1.2816   -5.7424 C   0  0  0  0  0  0  0  0  0  0  0  0
    4.1947   -1.9012   -4.5188 C   0  0  0  0  0  0  0  0  0  0  0  0
    1.0663    1.0930   -0.5379 H   0  0  0  0  0  0  0  0  0  0  0  0
    0.9280    1.5533    1.1771 H   0  0  0  0  0  0  0  0  0  0  0  0
    0.5097   -0.0941    0.6644 H   0  0  0  0  0  0  0  0  0  0  0  0
    3.3432    1.1332    0.5189 H   0  0  0  0  0  0  0  0  0  0  0  0
    2.9219   -0.5108    0.0251 H   0  0  0  0  0  0  0  0  0  0  0  0
    2.7024    0.5984    2.8917 H   0  0  0  0  0  0  0  0  0  0  0  0
    3.9914   -0.4455    2.2628 H   0  0  0  0  0  0  0  0  0  0  0  0
   -0.6188   -3.9712    4.4826 H   0  0  0  0  0  0  0  0  0  0  0  0
   -1.1442   -2.2510    4.5700 H   0  0  0  0  0  0  0  0  0  0  0  0
    0.1662   -2.8366    5.6388 H   0  0  0  0  0  0  0  0  0  0  0  0
    4.2853   -3.1113   -0.9471 H   0  0  0  0  0  0  0  0  0  0  0  0
    5.0973   -6.0651   -3.9756 H   0  0  0  0  0  0  0  0  0  0  0  0
    3.4850   -7.6121   -2.8773 H   0  0  0  0  0  0  0  0  0  0  0  0
    2.7294   -8.9382   -1.1892 H   0  0  0  0  0  0  0  0  0  0  0  0
    1.4135   -8.2729   -2.1972 H   0  0  0  0  0  0  0  0  0  0  0  0
    1.1629   -9.0486    0.7843 H   0  0  0  0  0  0  0  0  0  0  0  0
    0.5235   -9.9886   -0.5916 H   0  0  0  0  0  0  0  0  0  0  0  0
   -0.1513   -8.3784   -0.2188 H   0  0  0  0  0  0  0  0  0  0  0  0
    6.5628   -0.9317   -2.2898 H   0  0  0  0  0  0  0  0  0  0  0  0
    5.0664   -0.0436   -2.6549 H   0  0  0  0  0  0  0  0  0  0  0  0
    6.9187    0.8336   -4.1090 H   0  0  0  0  0  0  0  0  0  0  0  0
    7.2885   -0.8230   -4.6404 H   0  0  0  0  0  0  0  0  0  0  0  0
    4.0575    1.2117   -6.2780 H   0  0  0  0  0  0  0  0  0  0  0  0
    5.2317    2.0493   -5.2382 H   0  0  0  0  0  0  0  0  0  0  0  0
    3.9186    1.0938   -4.5051 H   0  0  0  0  0  0  0  0  0  0  0  0
    4.1597   -1.1362   -6.5577 H   0  0  0  0  0  0  0  0  0  0  0  0
    5.6494   -1.9963   -6.0926 H   0  0  0  0  0  0  0  0  0  0  0  0
    3.3355   -1.2913   -4.1918 H   0  0  0  0  0  0  0  0  0  0  0  0
    3.8096   -2.9050   -4.7503 H   0  0  0  0  0  0  0  0  0  0  0  0
  1  2  1  0
  1 35  1  0
  1 36  1  0
  1 37  1  0
  2  3  1  0
  2 38  1  0
  2 39  1  0
  3  4  1  0
  3 40  1  0
  3 41  1  0
  4  5  2  0
  4 15  1  0
  5  6  1  0
  6  7  1  0
  6  8  1  0
  7 42  1  0
  7 43  1  0
  7 44  1  0
  8  9  1  0
  8 15  2  0
  9 10  2  0
  9 11  1  0
 11 12  1  0
 11 13  1  0
 13 14  2  0
 13 16  1  0
 14 15  1  0
 16 17  2  0
 16 21  1  0
 17 18  1  0
 17 45  1  0
 18 19  2  0
 25 18  1  0
 19 20  1  0
 19 46  1  0
 20 21  2  0
 20 47  1  0
 21 22  1  0
 22 23  1  0
 23 24  1  0
 23 48  1  0
 23 49  1  0
 24 50  1  0
 24 51  1  0
 24 52  1  0
 25 26  2  0
 25 27  2  0
 25 28  1  0
 28 29  1  0
 28 34  1  0
 29 30  1  0
 29 53  1  0
 29 54  1  0
 30 31  1  0
 30 55  1  0
 30 56  1  0
 31 32  1  0
 31 33  1  0
 32 57  1  0
 32 58  1  0
 32 59  1  0
 33 34  1  0
 33 60  1  0
 33 61  1  0
 34 62  1  0
 34 63  1  0
M  END

