rmsd175.gzmat
 OpenBabel08211713433D

 63 66  0  0  1  0  0  0  0  0999 V2000
    0.0000    0.0000    0.0000 C   0  0  0  0  0  0  0  0  0  0  0  0
    1.5275    0.0000    0.0000 C   0  0  0  0  0  0  0  0  0  0  0  0
    2.0996    0.0000    1.4303 C   0  0  0  0  0  0  0  0  0  0  0  0
    2.0379   -1.3506    2.0294 C   0  0  0  0  0  0  0  0  0  0  0  0
    3.0764   -2.2404    1.9610 N   0  0  0  0  0  0  0  0  0  0  0  0
    2.7023   -3.3692    2.5894 N   0  0  0  0  0  0  0  0  0  0  0  0
    3.5872   -4.5169    2.6640 C   0  0  0  0  0  0  0  0  0  0  0  0
    1.4246   -3.2626    3.0842 C   0  0  1  0  0  0  0  0  0  0  0  0
    0.5824   -4.1698    3.8244 C   0  0  0  0  0  0  0  0  0  0  0  0
    0.8446   -5.2887    4.2088 O   0  0  0  0  0  0  0  0  0  0  0  0
   -0.6970   -3.6312    4.1029 N   0  0  0  0  0  0  0  0  0  0  0  0
   -1.3378   -4.2093    4.6460 H   0  0  0  0  0  0  0  0  0  0  0  0
   -1.0854   -2.3344    3.7276 C   0  0  0  0  0  0  0  0  0  0  0  0
   -0.2914   -1.5082    3.0752 N   0  0  0  0  0  0  0  0  0  0  0  0
    0.9596   -1.9569    2.7404 C   0  0  0  0  0  0  0  0  0  0  0  0
   -2.4518   -1.8686    4.0202 C   0  0  0  0  0  0  0  0  0  0  0  0
   -2.9551   -0.8215    3.2354 C   0  0  0  0  0  0  0  0  0  0  0  0
   -4.2395   -0.3290    3.4388 C   0  0  0  0  0  0  0  0  0  0  0  0
   -5.0361   -0.8398    4.4649 C   0  0  0  0  0  0  0  0  0  0  0  0
   -4.5538   -1.8570    5.2783 C   0  0  0  0  0  0  0  0  0  0  0  0
   -3.2759   -2.3772    5.0437 C   0  0  0  0  0  0  0  0  0  0  0  0
   -2.7692   -3.4290    5.7206 O   0  0  0  0  0  0  0  0  0  0  0  0
   -3.2325   -3.7215    7.0400 C   0  0  0  0  0  0  0  0  0  0  0  0
   -2.8420   -2.6166    8.0014 C   0  0  0  0  0  0  0  0  0  0  0  0
   -4.8689    0.9180    2.3786 S   0  0  0  0  0  0  0  0  0  0  0  0
   -6.0787    1.4544    2.9649 O   0  0  0  0  0  0  0  0  0  0  0  0
   -3.7846    1.7778    1.9668 O   0  0  0  0  0  0  0  0  0  0  0  0
   -5.3594   -0.0306    0.9829 N   0  0  0  0  0  0  0  0  0  0  0  0
   -6.6985    0.2447    0.4363 C   0  0  0  0  0  0  0  0  0  0  0  0
   -6.7176    1.4321   -0.5608 C   0  0  0  0  0  0  0  0  0  0  0  0
   -5.7107    1.3353   -1.6368 N   0  0  0  0  0  0  0  0  0  0  0  0
   -6.0927    0.3468   -2.6660 C   0  0  0  0  0  0  0  0  0  0  0  0
   -4.3792    1.0535   -1.0646 C   0  0  0  0  0  0  0  0  0  0  0  0
   -4.3611   -0.1543   -0.0947 C   0  0  0  0  0  0  0  0  0  0  0  0
   -0.3974   -0.0130   -1.0188 H   0  0  0  0  0  0  0  0  0  0  0  0
   -0.4028    0.8857    0.5089 H   0  0  0  0  0  0  0  0  0  0  0  0
   -0.3955   -0.8761    0.5308 H   0  0  0  0  0  0  0  0  0  0  0  0
    1.9040    0.8870   -0.5433 H   0  0  0  0  0  0  0  0  0  0  0  0
    1.9097   -0.8788   -0.5538 H   0  0  0  0  0  0  0  0  0  0  0  0
    1.5301    0.7171    2.0640 H   0  0  0  0  0  0  0  0  0  0  0  0
    3.1476    0.3689    1.4150 H   0  0  0  0  0  0  0  0  0  0  0  0
    3.1596   -5.2811    3.3481 H   0  0  0  0  0  0  0  0  0  0  0  0
    4.5860   -4.2176    3.0382 H   0  0  0  0  0  0  0  0  0  0  0  0
    3.7197   -4.9730    1.6627 H   0  0  0  0  0  0  0  0  0  0  0  0
   -2.2971   -0.3842    2.4605 H   0  0  0  0  0  0  0  0  0  0  0  0
   -6.0458   -0.4448    4.6423 H   0  0  0  0  0  0  0  0  0  0  0  0
   -5.1740   -2.2533    6.0761 H   0  0  0  0  0  0  0  0  0  0  0  0
   -2.6818   -4.6678    7.2307 H   0  0  0  0  0  0  0  0  0  0  0  0
   -4.3163   -3.9244    7.0204 H   0  0  0  0  0  0  0  0  0  0  0  0
   -1.7717   -2.3740    7.9176 H   0  0  0  0  0  0  0  0  0  0  0  0
   -3.0305   -2.9063    9.0432 H   0  0  0  0  0  0  0  0  0  0  0  0
   -3.3941   -1.6871    7.8125 H   0  0  0  0  0  0  0  0  0  0  0  0
   -7.4228    0.4351    1.2620 H   0  0  0  0  0  0  0  0  0  0  0  0
   -7.0472   -0.6838   -0.0712 H   0  0  0  0  0  0  0  0  0  0  0  0
   -7.7262    1.5343   -1.0101 H   0  0  0  0  0  0  0  0  0  0  0  0
   -6.5253    2.3898   -0.0228 H   0  0  0  0  0  0  0  0  0  0  0  0
   -5.3281    0.3421   -3.4604 H   0  0  0  0  0  0  0  0  0  0  0  0
   -7.0391    0.6665   -3.1326 H   0  0  0  0  0  0  0  0  0  0  0  0
   -6.2154   -0.6811   -2.2957 H   0  0  0  0  0  0  0  0  0  0  0  0
   -3.6514    0.8994   -1.8855 H   0  0  0  0  0  0  0  0  0  0  0  0
   -4.0473    1.9777   -0.5289 H   0  0  0  0  0  0  0  0  0  0  0  0
   -4.5855   -1.0939   -0.6504 H   0  0  0  0  0  0  0  0  0  0  0  0
   -3.3404   -0.2826    0.3295 H   0  0  0  0  0  0  0  0  0  0  0  0
  1  2  1  0  0  0  0
  1 36  1  0  0  0  0
  1 37  1  0  0  0  0
  2  3  1  0  0  0  0
  3  4  1  0  0  0  0
  3 40  1  0  0  0  0
  4 15  1  0  0  0  0
  5  4  2  0  0  0  0
  5  6  1  0  0  0  0
  6  7  1  0  0  0  0
  6  8  1  0  0  0  0
  7 43  1  0  0  0  0
  7 42  1  0  0  0  0
  8 15  1  1  0  0  0
  8  9  1  0  0  0  0
  9 11  1  0  0  0  0
  9 10  2  0  0  0  0
 11 12  1  0  0  0  0
 13 16  1  0  0  0  0
 13 11  1  0  0  0  0
 14 13  2  0  0  0  0
 15 14  2  0  0  0  0
 16 21  2  0  0  0  0
 17 18  2  0  0  0  0
 17 16  1  0  0  0  0
 18 19  1  0  0  0  0
 19 46  1  0  0  0  0
 19 20  2  0  0  0  0
 20 47  1  0  0  0  0
 21 20  1  0  0  0  0
 21 22  1  0  0  0  0
 22 23  1  0  0  0  0
 23 48  1  0  0  0  0
 23 24  1  0  0  0  0
 24 51  1  0  0  0  0
 25 26  2  0  0  0  0
 25 18  1  0  0  0  0
 27 25  2  0  0  0  0
 28 25  1  0  0  0  0
 29 28  1  0  0  0  0
 29 53  1  0  0  0  0
 30 56  1  0  0  0  0
 30 29  1  0  0  0  0
 31 33  1  0  0  0  0
 31 30  1  0  0  0  0
 32 59  1  0  0  0  0
 32 31  1  0  0  0  0
 33 61  1  0  0  0  0
 33 34  1  0  0  0  0
 34 63  1  0  0  0  0
 34 28  1  0  0  0  0
 35  1  1  0  0  0  0
 38  2  1  0  0  0  0
 39  2  1  0  0  0  0
 41  3  1  0  0  0  0
 44  7  1  0  0  0  0
 45 17  1  0  0  0  0
 49 23  1  0  0  0  0
 50 24  1  0  0  0  0
 52 24  1  0  0  0  0
 54 29  1  0  0  0  0
 55 30  1  0  0  0  0
 57 32  1  0  0  0  0
 58 32  1  0  0  0  0
 60 33  1  0  0  0  0
 62 34  1  0  0  0  0
M  RAD  1   8   2
M  END
$$$$
