rmsd53.gzmat
 OpenBabel08211713413D

 35 36  0  0  1  0  0  0  0  0999 V2000
    0.0000    0.0000    0.0000 C   0  0  0  0  0  0  0  0  0  0  0  0
    1.4215    0.0000    0.0000 O   0  0  0  0  0  0  0  0  0  0  0  0
    2.0450    0.0000    1.2090 C   0  0  0  0  0  0  0  0  0  0  0  0
    3.3582   -0.4719    1.1483 C   0  0  0  0  0  0  0  0  0  0  0  0
    4.1437   -0.4855    2.2986 C   0  0  0  0  0  0  0  0  0  0  0  0
    3.6204   -0.0407    3.5086 C   0  0  0  0  0  0  0  0  0  0  0  0
    2.3100    0.4333    3.5803 C   0  0  0  0  0  0  0  0  0  0  0  0
    1.5247    0.4670    2.4332 C   0  0  0  0  0  0  0  0  0  0  0  0
    0.2430    0.9394    2.3688 O   0  0  0  0  0  0  0  0  0  0  0  0
   -0.3630    1.3881    3.5693 C   0  0  0  0  0  0  0  0  0  0  0  0
   -0.8228    0.1834    4.4159 C   0  0  2  0  0  0  0  0  0  0  0  0
   -0.1251   -0.6844    4.2795 H   0  0  0  0  0  0  0  0  0  0  0  0
   -2.2401   -0.2357    4.1485 C   0  0  0  0  0  0  0  0  0  0  0  0
   -2.7568   -0.2113    2.8487 C   0  0  0  0  0  0  0  0  0  0  0  0
   -4.0629   -0.6099    2.6021 C   0  0  0  0  0  0  0  0  0  0  0  0
   -4.8402   -1.0411    3.6838 C   0  0  0  0  0  0  0  0  0  0  0  0
   -4.3420   -1.0962    4.9861 C   0  0  0  0  0  0  0  0  0  0  0  0
   -3.0265   -0.6953    5.2051 C   0  0  0  0  0  0  0  0  0  0  0  0
   -6.1105   -1.4052    3.3716 O   0  0  0  0  0  0  0  0  0  0  0  0
   -0.6291    0.5105    5.7763 O   0  0  0  0  0  0  0  0  0  0  0  0
   -0.2338   -0.2965   -1.0307 H   0  0  0  0  0  0  0  0  0  0  0  0
   -0.3685    1.0118    0.2031 H   0  0  0  0  0  0  0  0  0  0  0  0
   -0.4064   -0.7265    0.7095 H   0  0  0  0  0  0  0  0  0  0  0  0
    3.7523   -0.8246    0.1967 H   0  0  0  0  0  0  0  0  0  0  0  0
    5.1673   -0.8512    2.2465 H   0  0  0  0  0  0  0  0  0  0  0  0
    4.2328   -0.0615    4.4078 H   0  0  0  0  0  0  0  0  0  0  0  0
    1.9167    0.7698    4.5388 H   0  0  0  0  0  0  0  0  0  0  0  0
   -1.2042    1.9920    3.1780 H   0  0  0  0  0  0  0  0  0  0  0  0
    0.3086    2.0512    4.1435 H   0  0  0  0  0  0  0  0  0  0  0  0
   -2.1285    0.1186    2.0181 H   0  0  0  0  0  0  0  0  0  0  0  0
   -4.4879   -0.5974    1.6018 H   0  0  0  0  0  0  0  0  0  0  0  0
   -4.9565   -1.4481    5.8067 H   0  0  0  0  0  0  0  0  0  0  0  0
   -2.6058   -0.7538    6.2123 H   0  0  0  0  0  0  0  0  0  0  0  0
   -6.6176   -1.7161    4.1597 H   0  0  0  0  0  0  0  0  0  0  0  0
   -1.2693    1.1890    6.0720 H   0  0  0  0  0  0  0  0  0  0  0  0
  1 22  1  0  0  0  0
  1 23  1  0  0  0  0
  2  1  1  0  0  0  0
  2  3  1  0  0  0  0
  3  8  1  0  0  0  0
  4  3  2  0  0  0  0
  4  5  1  0  0  0  0
  5  6  2  0  0  0  0
  6  7  1  0  0  0  0
  6 26  1  0  0  0  0
  7 27  1  0  0  0  0
  8  7  2  0  0  0  0
  9  8  1  0  0  0  0
  9 10  1  0  0  0  0
 10 29  1  0  0  0  0
 10 11  1  0  0  0  0
 11 12  1  6  0  0  0
 11 20  1  0  0  0  0
 13 11  1  0  0  0  0
 13 18  2  0  0  0  0
 14 13  1  0  0  0  0
 15 14  2  0  0  0  0
 15 16  1  0  0  0  0
 16 17  2  0  0  0  0
 17 18  1  0  0  0  0
 17 32  1  0  0  0  0
 18 33  1  0  0  0  0
 19 16  1  0  0  0  0
 19 34  1  0  0  0  0
 20 35  1  0  0  0  0
 21  1  1  0  0  0  0
 24  4  1  0  0  0  0
 25  5  1  0  0  0  0
 28 10  1  0  0  0  0
 30 14  1  0  0  0  0
 31 15  1  0  0  0  0
M  END
$$$$
