rmsd217.gzmat
 OpenBabel08211713413D

 35 36  0  0  1  0  0  0  0  0999 V2000
    0.0000    0.0000    0.0000 C   0  0  0  0  0  0  0  0  0  0  0  0
    1.4207    0.0000    0.0000 O   0  0  0  0  0  0  0  0  0  0  0  0
    2.0635    0.0000    1.1977 C   0  0  0  0  0  0  0  0  0  0  0  0
    3.4445   -0.1726    1.0636 C   0  0  0  0  0  0  0  0  0  0  0  0
    4.2553   -0.1828    2.1957 C   0  0  0  0  0  0  0  0  0  0  0  0
    3.6962   -0.0253    3.4605 C   0  0  0  0  0  0  0  0  0  0  0  0
    2.3204    0.1510    3.6059 C   0  0  0  0  0  0  0  0  0  0  0  0
    1.5037    0.1701    2.4804 C   0  0  0  0  0  0  0  0  0  0  0  0
    0.1497    0.3585    2.4992 O   0  0  0  0  0  0  0  0  0  0  0  0
   -0.5020    0.4131    3.7563 C   0  0  0  0  0  0  0  0  0  0  0  0
   -0.5396   -0.9846    4.4034 C   0  0  2  0  0  0  0  0  0  0  0  0
    0.1585   -1.6796    3.8757 H   0  0  0  0  0  0  0  0  0  0  0  0
   -1.9371   -1.5279    4.4567 C   0  0  0  0  0  0  0  0  0  0  0  0
   -2.7644   -1.2155    5.5402 C   0  0  0  0  0  0  0  0  0  0  0  0
   -4.0625   -1.7029    5.5948 C   0  0  0  0  0  0  0  0  0  0  0  0
   -4.5156   -2.5009    4.5369 C   0  0  0  0  0  0  0  0  0  0  0  0
   -3.7116   -2.8175    3.4405 C   0  0  0  0  0  0  0  0  0  0  0  0
   -2.4100   -2.3233    3.4129 C   0  0  0  0  0  0  0  0  0  0  0  0
   -5.7940   -2.9425    4.6539 O   0  0  0  0  0  0  0  0  0  0  0  0
   -0.0297   -0.7725    5.7109 O   0  0  0  0  0  0  0  0  0  0  0  0
   -0.2291   -0.1072   -1.0687 H   0  0  0  0  0  0  0  0  0  0  0  0
   -0.3831    0.9522    0.3833 H   0  0  0  0  0  0  0  0  0  0  0  0
   -0.3982   -0.8462    0.5674 H   0  0  0  0  0  0  0  0  0  0  0  0
    3.8688   -0.2980    0.0692 H   0  0  0  0  0  0  0  0  0  0  0  0
    5.3298   -0.3171    2.0863 H   0  0  0  0  0  0  0  0  0  0  0  0
    4.3311   -0.0389    4.3437 H   0  0  0  0  0  0  0  0  0  0  0  0
    1.8971    0.2670    4.6050 H   0  0  0  0  0  0  0  0  0  0  0  0
   -1.5058    0.7736    3.4581 H   0  0  0  0  0  0  0  0  0  0  0  0
   -0.0346    1.1595    4.4254 H   0  0  0  0  0  0  0  0  0  0  0  0
   -2.3837   -0.5797    6.3441 H   0  0  0  0  0  0  0  0  0  0  0  0
   -4.7250   -1.4780    6.4266 H   0  0  0  0  0  0  0  0  0  0  0  0
   -4.0869   -3.4314    2.6298 H   0  0  0  0  0  0  0  0  0  0  0  0
   -1.7635   -2.5587    2.5662 H   0  0  0  0  0  0  0  0  0  0  0  0
   -6.0696   -3.5037    3.8895 H   0  0  0  0  0  0  0  0  0  0  0  0
   -0.0603   -1.5994    6.2322 H   0  0  0  0  0  0  0  0  0  0  0  0
  1 22  1  0  0  0  0
  1 23  1  0  0  0  0
  2  1  1  0  0  0  0
  2  3  1  0  0  0  0
  3  8  1  0  0  0  0
  4  3  2  0  0  0  0
  4  5  1  0  0  0  0
  5  6  2  0  0  0  0
  6  7  1  0  0  0  0
  6 26  1  0  0  0  0
  7 27  1  0  0  0  0
  8  9  1  0  0  0  0
  8  7  2  0  0  0  0
  9 10  1  0  0  0  0
 10 11  1  0  0  0  0
 10 29  1  0  0  0  0
 11 12  1  6  0  0  0
 11 13  1  0  0  0  0
 11 20  1  0  0  0  0
 13 14  2  0  0  0  0
 14 15  1  0  0  0  0
 14 30  1  0  0  0  0
 15 31  1  0  0  0  0
 16 19  1  0  0  0  0
 16 15  2  0  0  0  0
 17 16  1  0  0  0  0
 18 17  2  0  0  0  0
 18 13  1  0  0  0  0
 20 35  1  0  0  0  0
 21  1  1  0  0  0  0
 24  4  1  0  0  0  0
 25  5  1  0  0  0  0
 28 10  1  0  0  0  0
 32 17  1  0  0  0  0
 33 18  1  0  0  0  0
 34 19  1  0  0  0  0
M  END
$$$$
