rmsd245.gzmat
 OpenBabel08211713413D

 35 36  0  0  1  0  0  0  0  0999 V2000
    0.0000    0.0000    0.0000 C   0  0  0  0  0  0  0  0  0  0  0  0
    1.4212    0.0000    0.0000 O   0  0  0  0  0  0  0  0  0  0  0  0
    2.0286    0.0000    1.2184 C   0  0  0  0  0  0  0  0  0  0  0  0
    1.3915    0.0234    2.4495 C   0  0  0  0  0  0  0  0  0  0  0  0
    2.1555    0.0307    3.6235 C   0  0  0  0  0  0  0  0  0  0  0  0
    3.5401    0.0168    3.5611 C   0  0  0  0  0  0  0  0  0  0  0  0
    4.1938   -0.0072    2.3230 C   0  0  0  0  0  0  0  0  0  0  0  0
    3.4490   -0.0215    1.1556 C   0  0  0  0  0  0  0  0  0  0  0  0
    3.9409   -0.0628   -0.1152 O   0  0  0  0  0  0  0  0  0  0  0  0
    5.3486   -0.0746   -0.2850 C   0  0  0  0  0  0  0  0  0  0  0  0
    5.9233    1.3382   -0.0745 C   0  0  2  0  0  0  0  0  0  0  0  0
    5.1134    2.0491    0.2197 H   0  0  0  0  0  0  0  0  0  0  0  0
    6.6765    1.8084   -1.2852 C   0  0  0  0  0  0  0  0  0  0  0  0
    8.0230    1.4630   -1.4408 C   0  0  0  0  0  0  0  0  0  0  0  0
    8.7315    1.8838   -2.5576 C   0  0  0  0  0  0  0  0  0  0  0  0
    8.0588    2.6498   -3.5174 C   0  0  0  0  0  0  0  0  0  0  0  0
    6.7135    3.0004   -3.3880 C   0  0  0  0  0  0  0  0  0  0  0  0
    6.0262    2.5710   -2.2554 C   0  0  0  0  0  0  0  0  0  0  0  0
    8.8098    3.0264   -4.5841 O   0  0  0  0  0  0  0  0  0  0  0  0
    6.8022    1.1997    1.0327 O   0  0  0  0  0  0  0  0  0  0  0  0
   -0.2262    0.0101   -1.0754 H   0  0  0  0  0  0  0  0  0  0  0  0
   -0.3958    0.8994    0.4819 H   0  0  0  0  0  0  0  0  0  0  0  0
   -0.3930   -0.9094    0.4646 H   0  0  0  0  0  0  0  0  0  0  0  0
    0.3087    0.0368    2.5211 H   0  0  0  0  0  0  0  0  0  0  0  0
    1.6504    0.0491    4.5866 H   0  0  0  0  0  0  0  0  0  0  0  0
    4.1318    0.0261    4.4740 H   0  0  0  0  0  0  0  0  0  0  0  0
    5.2847   -0.0054    2.2940 H   0  0  0  0  0  0  0  0  0  0  0  0
    5.4281   -0.4105   -1.3385 H   0  0  0  0  0  0  0  0  0  0  0  0
    5.8391   -0.8174    0.3700 H   0  0  0  0  0  0  0  0  0  0  0  0
    8.5150    0.8559   -0.6763 H   0  0  0  0  0  0  0  0  0  0  0  0
    9.7792    1.6326   -2.7010 H   0  0  0  0  0  0  0  0  0  0  0  0
    6.2135    3.5913   -4.1467 H   0  0  0  0  0  0  0  0  0  0  0  0
    4.9731    2.8301   -2.1331 H   0  0  0  0  0  0  0  0  0  0  0  0
    8.2960    3.5615   -5.2354 H   0  0  0  0  0  0  0  0  0  0  0  0
    7.2476    2.0467    1.2292 H   0  0  0  0  0  0  0  0  0  0  0  0
  1  2  1  0  0  0  0
  1 23  1  0  0  0  0
  1 22  1  0  0  0  0
  2  3  1  0  0  0  0
  3  4  1  0  0  0  0
  4 24  1  0  0  0  0
  4  5  2  0  0  0  0
  5 25  1  0  0  0  0
  6  5  1  0  0  0  0
  6 26  1  0  0  0  0
  7  6  2  0  0  0  0
  8  3  2  0  0  0  0
  8  7  1  0  0  0  0
  9  8  1  0  0  0  0
 10  9  1  0  0  0  0
 10 11  1  0  0  0  0
 10 29  1  0  0  0  0
 11 12  1  1  0  0  0
 11 20  1  0  0  0  0
 13 11  1  0  0  0  0
 14 13  1  0  0  0  0
 14 30  1  0  0  0  0
 15 14  2  0  0  0  0
 16 17  2  0  0  0  0
 16 15  1  0  0  0  0
 17 18  1  0  0  0  0
 18 33  1  0  0  0  0
 18 13  2  0  0  0  0
 19 16  1  0  0  0  0
 20 35  1  0  0  0  0
 21  1  1  0  0  0  0
 27  7  1  0  0  0  0
 28 10  1  0  0  0  0
 31 15  1  0  0  0  0
 32 17  1  0  0  0  0
 34 19  1  0  0  0  0
M  END
$$$$
