35

C         -0.08830       -0.06130        0.28180
O          1.30670       -0.00450        0.09450
C          2.11820       -0.02750        1.18320
C          1.66740       -0.09800        2.50700
C          2.58190       -0.09270        3.56750
C          3.95070       -0.01930        3.31760
C          4.40720        0.03860        1.99630
C          3.51020        0.03280        0.92920
O          3.99220        0.14560       -0.34690
C          3.80050       -0.96360       -1.22260
C          4.52850       -2.23750       -0.77530
H          4.20970       -2.44950        0.26070
C          6.04730       -2.17100       -0.81410
C          6.76770       -0.96530       -0.85310
C          8.16180       -0.95800       -0.87980
C          8.87360       -2.16410       -0.86780
C          8.16840       -3.37490       -0.83030
C          6.77430       -3.37120       -0.80290
O         10.23020       -2.10570       -0.89510
O          4.03620       -3.33440       -1.53460
H         -0.53960       -0.02980       -0.71850
H         -0.45630        0.79860        0.86950
H         -0.39680       -0.99440        0.78640
H          0.60010       -0.14750        2.72100
H          2.20990       -0.14400        4.59320
H          4.66600       -0.01350        4.14250
H          5.47300        0.08540        1.76580
H          4.17950       -0.63120       -2.20170
H          2.73230       -1.20350       -1.32190
H          6.23180       -0.01620       -0.84680
H          8.72000       -0.02030       -0.91080
H          8.71530       -4.32330       -0.82240
H          6.23100       -4.31800       -0.78030
H         10.58900       -3.00250       -0.87770
H          4.44900       -3.28730       -2.40870
