35
rmsd223.gzmat
C          0.00000        0.00000        0.00000
O          1.42060        0.00000        0.00000
C          2.05960        0.00000        1.19980
C          3.43270        0.23140        1.07690
C          4.24080        0.22910        2.21130
C          3.68670       -0.00180        3.46640
C          2.31720       -0.23170        3.60090
C          1.50230       -0.22940        2.47450
O          0.14980       -0.42720        2.48390
C         -0.47990       -0.72310        3.71820
C         -0.16660       -2.16920        4.14630
H          0.62850       -2.60630        3.49420
C         -1.40430       -3.01720        4.17610
C         -2.25560       -2.95600        5.28470
C         -3.41010       -3.72420        5.32650
C         -3.69530       -4.54990        4.23190
C         -2.86260       -4.62580        3.11400
C         -1.70750       -3.84790        3.09820
O         -4.84080       -5.27060        4.33740
O          0.37270       -2.03410        5.45340
H         -0.23070        0.16140       -1.06100
H         -0.40160        0.81560        0.60990
H         -0.38020       -0.97070        0.33610
H          3.85330        0.41100        0.08930
H          5.30910        0.41060        2.11080
H          4.31990       -0.00550        4.35060
H          1.90050       -0.41870        4.59160
H         -1.54510       -0.57950        3.45030
H         -0.20250        0.00340        4.50450
H         -2.00410       -2.29500        6.11850
H         -4.08730       -3.69680        6.17630
H         -3.10530       -5.27300        2.27900
H         -1.04250       -3.89010        2.23450
H         -5.00360       -5.83730        3.54530
H          0.55740       -2.91160        5.84210
