
     RDKit          3D

 35 36  0  0  0  0  0  0  0  0999 V2000
   -1.4026   -0.1686    1.1117 C   0  0  0  0  0  0  0  0  0  0  0  0
   -0.1147    0.2997    0.7354 O   0  0  0  0  0  0  0  0  0  0  0  0
    0.9494   -0.1422    1.4634 C   0  0  0  0  0  0  0  0  0  0  0  0
    1.9184   -0.9253    0.8353 C   0  0  0  0  0  0  0  0  0  0  0  0
    3.0617   -1.3485    1.5217 C   0  0  0  0  0  0  0  0  0  0  0  0
    3.2324   -0.9848    2.8563 C   0  0  0  0  0  0  0  0  0  0  0  0
    2.2704   -0.1996    3.5032 C   0  0  0  0  0  0  0  0  0  0  0  0
    1.1262    0.2278    2.8195 C   0  0  0  0  0  0  0  0  0  0  0  0
    0.1547    1.0151    3.3508 O   0  0  0  0  0  0  0  0  0  0  0  0
    0.1074    1.2704    4.7369 C   0  0  0  0  0  0  0  0  0  0  0  0
   -0.2780    0.0449    5.5890 C   0  0  2  0  0  0  0  0  0  0  0  0
    0.6024   -0.6151    5.6963 H   0  0  0  0  0  0  0  0  0  0  0  0
   -1.3876   -0.7628    4.9530 C   0  0  0  0  0  0  0  0  0  0  0  0
   -2.7152   -0.3087    4.9922 C   0  0  0  0  0  0  0  0  0  0  0  0
   -3.7348   -1.0134    4.3589 C   0  0  0  0  0  0  0  0  0  0  0  0
   -3.4412   -2.2003    3.6692 C   0  0  0  0  0  0  0  0  0  0  0  0
   -2.1213   -2.6679    3.6314 C   0  0  0  0  0  0  0  0  0  0  0  0
   -1.1081   -1.9500    4.2687 C   0  0  0  0  0  0  0  0  0  0  0  0
   -4.4677   -2.8511    3.0654 O   0  0  0  0  0  0  0  0  0  0  0  0
   -0.6384    0.6006    6.8422 O   0  0  0  0  0  0  0  0  0  0  0  0
   -2.1141    0.2645    0.3952 H   0  0  0  0  0  0  0  0  0  0  0  0
   -1.6751    0.1410    2.1308 H   0  0  0  0  0  0  0  0  0  0  0  0
   -1.4547   -1.2700    1.0493 H   0  0  0  0  0  0  0  0  0  0  0  0
    1.7522   -1.1862   -0.2119 H   0  0  0  0  0  0  0  0  0  0  0  0
    3.8101   -1.9599    1.0132 H   0  0  0  0  0  0  0  0  0  0  0  0
    4.1198   -1.3045    3.4074 H   0  0  0  0  0  0  0  0  0  0  0  0
    2.4265    0.0899    4.5422 H   0  0  0  0  0  0  0  0  0  0  0  0
   -0.6800    2.0252    4.8699 H   0  0  0  0  0  0  0  0  0  0  0  0
    1.0546    1.7023    5.1045 H   0  0  0  0  0  0  0  0  0  0  0  0
   -2.9452    0.6099    5.5367 H   0  0  0  0  0  0  0  0  0  0  0  0
   -4.7692   -0.6660    4.3853 H   0  0  0  0  0  0  0  0  0  0  0  0
   -1.8863   -3.5942    3.0982 H   0  0  0  0  0  0  0  0  0  0  0  0
   -0.0791   -2.3146    4.2180 H   0  0  0  0  0  0  0  0  0  0  0  0
   -4.1332   -3.6465    2.6309 H   0  0  0  0  0  0  0  0  0  0  0  0
   -0.9207   -0.1227    7.4169 H   0  0  0  0  0  0  0  0  0  0  0  0
  1  2  1  0
  1 21  1  0
  1 22  1  0
  1 23  1  0
  2  3  1  0
  3  4  2  0
  3  8  1  0
  4  5  1  0
  4 24  1  0
  5  6  2  0
  5 25  1  0
  6  7  1  0
  6 26  1  0
  7  8  2  0
  7 27  1  0
  8  9  1  0
  9 10  1  0
 10 11  1  0
 10 28  1  0
 10 29  1  0
 11 12  1  1
 11 13  1  0
 11 20  1  0
 13 14  2  0
 13 18  1  0
 14 15  1  0
 14 30  1  0
 15 16  2  0
 15 31  1  0
 16 17  1  0
 16 19  1  0
 17 18  2  0
 17 32  1  0
 18 33  1  0
 19 34  1  0
 20 35  1  0
M  END

