rmsd223.gzmat
 OpenBabel08211713413D

 35 36  0  0  1  0  0  0  0  0999 V2000
    0.0000    0.0000    0.0000 C   0  0  0  0  0  0  0  0  0  0  0  0
    1.4206    0.0000    0.0000 O   0  0  0  0  0  0  0  0  0  0  0  0
    2.0596    0.0000    1.1998 C   0  0  0  0  0  0  0  0  0  0  0  0
    3.4327    0.2314    1.0769 C   0  0  0  0  0  0  0  0  0  0  0  0
    4.2408    0.2291    2.2113 C   0  0  0  0  0  0  0  0  0  0  0  0
    3.6867   -0.0018    3.4664 C   0  0  0  0  0  0  0  0  0  0  0  0
    2.3172   -0.2317    3.6009 C   0  0  0  0  0  0  0  0  0  0  0  0
    1.5023   -0.2294    2.4745 C   0  0  0  0  0  0  0  0  0  0  0  0
    0.1498   -0.4272    2.4839 O   0  0  0  0  0  0  0  0  0  0  0  0
   -0.4799   -0.7231    3.7182 C   0  0  0  0  0  0  0  0  0  0  0  0
   -0.1666   -2.1692    4.1463 C   0  0  2  0  0  0  0  0  0  0  0  0
    0.6285   -2.6063    3.4942 H   0  0  0  0  0  0  0  0  0  0  0  0
   -1.4043   -3.0172    4.1761 C   0  0  0  0  0  0  0  0  0  0  0  0
   -2.2556   -2.9560    5.2847 C   0  0  0  0  0  0  0  0  0  0  0  0
   -3.4101   -3.7242    5.3265 C   0  0  0  0  0  0  0  0  0  0  0  0
   -3.6953   -4.5499    4.2319 C   0  0  0  0  0  0  0  0  0  0  0  0
   -2.8626   -4.6258    3.1140 C   0  0  0  0  0  0  0  0  0  0  0  0
   -1.7075   -3.8479    3.0982 C   0  0  0  0  0  0  0  0  0  0  0  0
   -4.8408   -5.2706    4.3374 O   0  0  0  0  0  0  0  0  0  0  0  0
    0.3727   -2.0341    5.4534 O   0  0  0  0  0  0  0  0  0  0  0  0
   -0.2307    0.1614   -1.0610 H   0  0  0  0  0  0  0  0  0  0  0  0
   -0.4016    0.8156    0.6099 H   0  0  0  0  0  0  0  0  0  0  0  0
   -0.3802   -0.9707    0.3361 H   0  0  0  0  0  0  0  0  0  0  0  0
    3.8533    0.4110    0.0893 H   0  0  0  0  0  0  0  0  0  0  0  0
    5.3091    0.4106    2.1108 H   0  0  0  0  0  0  0  0  0  0  0  0
    4.3199   -0.0055    4.3506 H   0  0  0  0  0  0  0  0  0  0  0  0
    1.9005   -0.4187    4.5916 H   0  0  0  0  0  0  0  0  0  0  0  0
   -1.5451   -0.5795    3.4503 H   0  0  0  0  0  0  0  0  0  0  0  0
   -0.2025    0.0034    4.5045 H   0  0  0  0  0  0  0  0  0  0  0  0
   -2.0041   -2.2950    6.1185 H   0  0  0  0  0  0  0  0  0  0  0  0
   -4.0873   -3.6968    6.1763 H   0  0  0  0  0  0  0  0  0  0  0  0
   -3.1053   -5.2730    2.2790 H   0  0  0  0  0  0  0  0  0  0  0  0
   -1.0425   -3.8901    2.2345 H   0  0  0  0  0  0  0  0  0  0  0  0
   -5.0036   -5.8373    3.5453 H   0  0  0  0  0  0  0  0  0  0  0  0
    0.5574   -2.9116    5.8421 H   0  0  0  0  0  0  0  0  0  0  0  0
  1 23  1  0  0  0  0
  1 22  1  0  0  0  0
  2  1  1  0  0  0  0
  2  3  1  0  0  0  0
  3  8  1  0  0  0  0
  4  3  2  0  0  0  0
  4  5  1  0  0  0  0
  5  6  2  0  0  0  0
  6  7  1  0  0  0  0
  6 26  1  0  0  0  0
  7 27  1  0  0  0  0
  8  9  1  0  0  0  0
  8  7  2  0  0  0  0
  9 10  1  0  0  0  0
 10 11  1  0  0  0  0
 10 29  1  0  0  0  0
 11 12  1  6  0  0  0
 11 13  1  0  0  0  0
 11 20  1  0  0  0  0
 13 14  2  0  0  0  0
 14 15  1  0  0  0  0
 14 30  1  0  0  0  0
 15 31  1  0  0  0  0
 16 19  1  0  0  0  0
 16 15  2  0  0  0  0
 17 16  1  0  0  0  0
 18 17  2  0  0  0  0
 18 13  1  0  0  0  0
 20 35  1  0  0  0  0
 21  1  1  0  0  0  0
 24  4  1  0  0  0  0
 25  5  1  0  0  0  0
 28 10  1  0  0  0  0
 32 17  1  0  0  0  0
 33 18  1  0  0  0  0
 34 19  1  0  0  0  0
M  END
$$$$
