
     RDKit          3D

 35 36  0  0  0  0  0  0  0  0999 V2000
   -0.4912   -0.7454    0.4015 C   0  0  0  0  0  0  0  0  0  0  0  0
    0.5999   -1.5381    0.8529 O   0  0  0  0  0  0  0  0  0  0  0  0
    1.5983   -0.9092    1.5425 C   0  0  0  0  0  0  0  0  0  0  0  0
    2.8957   -0.9671    1.0262 C   0  0  0  0  0  0  0  0  0  0  0  0
    3.9718   -0.4177    1.7265 C   0  0  0  0  0  0  0  0  0  0  0  0
    3.7450    0.2115    2.9517 C   0  0  0  0  0  0  0  0  0  0  0  0
    2.4515    0.2841    3.4756 C   0  0  0  0  0  0  0  0  0  0  0  0
    1.3700   -0.2780    2.7863 C   0  0  0  0  0  0  0  0  0  0  0  0
    0.0799   -0.2205    3.2346 O   0  0  0  0  0  0  0  0  0  0  0  0
   -0.1837   -0.4070    4.6141 C   0  0  0  0  0  0  0  0  0  0  0  0
   -0.0976   -1.8893    5.0045 C   0  0  2  0  0  0  0  0  0  0  0  0
    0.8718   -2.2666    4.6215 H   0  0  0  0  0  0  0  0  0  0  0  0
   -1.2158   -2.7086    4.3921 C   0  0  0  0  0  0  0  0  0  0  0  0
   -2.4096   -2.9259    5.0970 C   0  0  0  0  0  0  0  0  0  0  0  0
   -3.4657   -3.6350    4.5285 C   0  0  0  0  0  0  0  0  0  0  0  0
   -3.3483   -4.1346    3.2244 C   0  0  0  0  0  0  0  0  0  0  0  0
   -2.1641   -3.9147    2.5075 C   0  0  0  0  0  0  0  0  0  0  0  0
   -1.1091   -3.2105    3.0891 C   0  0  0  0  0  0  0  0  0  0  0  0
   -4.4015   -4.8201    2.7080 O   0  0  0  0  0  0  0  0  0  0  0  0
   -0.1182   -1.8958    6.4196 O   0  0  0  0  0  0  0  0  0  0  0  0
   -1.1372   -1.4113   -0.1871 H   0  0  0  0  0  0  0  0  0  0  0  0
   -0.1341    0.0748   -0.2468 H   0  0  0  0  0  0  0  0  0  0  0  0
   -1.0641   -0.3266    1.2411 H   0  0  0  0  0  0  0  0  0  0  0  0
    3.0346   -1.4707    0.0676 H   0  0  0  0  0  0  0  0  0  0  0  0
    4.9808   -0.4785    1.3133 H   0  0  0  0  0  0  0  0  0  0  0  0
    4.5749    0.6529    3.5081 H   0  0  0  0  0  0  0  0  0  0  0  0
    2.2817    0.7827    4.4304 H   0  0  0  0  0  0  0  0  0  0  0  0
   -1.2018   -0.0325    4.7871 H   0  0  0  0  0  0  0  0  0  0  0  0
    0.5066    0.1642    5.2540 H   0  0  0  0  0  0  0  0  0  0  0  0
   -2.5059   -2.5293    6.1100 H   0  0  0  0  0  0  0  0  0  0  0  0
   -4.3931   -3.8108    5.0769 H   0  0  0  0  0  0  0  0  0  0  0  0
   -2.0655   -4.2995    1.4874 H   0  0  0  0  0  0  0  0  0  0  0  0
   -0.2063   -3.0338    2.5027 H   0  0  0  0  0  0  0  0  0  0  0  0
   -4.1860   -5.1068    1.8110 H   0  0  0  0  0  0  0  0  0  0  0  0
   -0.1379   -2.8165    6.7124 H   0  0  0  0  0  0  0  0  0  0  0  0
  1  2  1  0
  1 21  1  0
  1 22  1  0
  1 23  1  0
  2  3  1  0
  3  4  2  0
  3  8  1  0
  4  5  1  0
  4 24  1  0
  5  6  2  0
  5 25  1  0
  6  7  1  0
  6 26  1  0
  7  8  2  0
  7 27  1  0
  8  9  1  0
  9 10  1  0
 10 11  1  0
 10 28  1  0
 10 29  1  0
 11 12  1  1
 11 13  1  0
 11 20  1  0
 13 14  2  0
 13 18  1  0
 14 15  1  0
 14 30  1  0
 15 16  2  0
 15 31  1  0
 16 17  1  0
 16 19  1  0
 17 18  2  0
 17 32  1  0
 18 33  1  0
 19 34  1  0
 20 35  1  0
M  END

