35
rmsd217.gzmat
C          0.00000        0.00000        0.00000
O          1.42070        0.00000        0.00000
C          2.06350        0.00000        1.19770
C          3.44450       -0.17260        1.06360
C          4.25530       -0.18280        2.19570
C          3.69620       -0.02530        3.46050
C          2.32040        0.15100        3.60590
C          1.50370        0.17010        2.48040
O          0.14970        0.35850        2.49920
C         -0.50200        0.41310        3.75630
C         -0.53960       -0.98460        4.40340
H          0.15850       -1.67960        3.87570
C         -1.93710       -1.52790        4.45670
C         -2.76440       -1.21550        5.54020
C         -4.06250       -1.70290        5.59480
C         -4.51560       -2.50090        4.53690
C         -3.71160       -2.81750        3.44050
C         -2.41000       -2.32330        3.41290
O         -5.79400       -2.94250        4.65390
O         -0.02970       -0.77250        5.71090
H         -0.22910       -0.10720       -1.06870
H         -0.38310        0.95220        0.38330
H         -0.39820       -0.84620        0.56740
H          3.86880       -0.29800        0.06920
H          5.32980       -0.31710        2.08630
H          4.33110       -0.03890        4.34370
H          1.89710        0.26700        4.60500
H         -1.50580        0.77360        3.45810
H         -0.03460        1.15950        4.42540
H         -2.38370       -0.57970        6.34410
H         -4.72500       -1.47800        6.42660
H         -4.08690       -3.43140        2.62980
H         -1.76350       -2.55870        2.56620
H         -6.06960       -3.50370        3.88950
H         -0.06030       -1.59940        6.23220
