rmsd155.gzmat
 OpenBabel08211713413D

 35 36  0  0  1  0  0  0  0  0999 V2000
    0.0000    0.0000    0.0000 C   0  0  0  0  0  0  0  0  0  0  0  0
    1.4204    0.0000    0.0000 O   0  0  0  0  0  0  0  0  0  0  0  0
    2.0635    0.0000    1.1973 C   0  0  0  0  0  0  0  0  0  0  0  0
    3.4524    0.0765    1.0556 C   0  0  0  0  0  0  0  0  0  0  0  0
    4.2658    0.0648    2.1857 C   0  0  0  0  0  0  0  0  0  0  0  0
    3.7020   -0.0250    3.4548 C   0  0  0  0  0  0  0  0  0  0  0  0
    2.3177   -0.0987    3.6082 C   0  0  0  0  0  0  0  0  0  0  0  0
    1.4969   -0.0806    2.4861 C   0  0  0  0  0  0  0  0  0  0  0  0
    0.1316   -0.1495    2.5127 O   0  0  0  0  0  0  0  0  0  0  0  0
   -0.5256   -0.0512    3.7647 C   0  0  0  0  0  0  0  0  0  0  0  0
   -0.5173   -1.4211    4.4687 C   0  0  2  0  0  0  0  0  0  0  0  0
    0.1451   -2.1357    3.9217 H   0  0  0  0  0  0  0  0  0  0  0  0
   -1.9062   -1.9616    4.6478 C   0  0  0  0  0  0  0  0  0  0  0  0
   -2.6869   -1.5227    5.7227 C   0  0  0  0  0  0  0  0  0  0  0  0
   -3.9707   -2.0159    5.9058 C   0  0  0  0  0  0  0  0  0  0  0  0
   -4.4567   -2.9528    4.9857 C   0  0  0  0  0  0  0  0  0  0  0  0
   -3.7004   -3.3979    3.8999 C   0  0  0  0  0  0  0  0  0  0  0  0
   -2.4133   -2.8904    3.7404 C   0  0  0  0  0  0  0  0  0  0  0  0
   -5.7175   -3.3946    5.2252 O   0  0  0  0  0  0  0  0  0  0  0  0
    0.0800   -1.1606    5.7306 O   0  0  0  0  0  0  0  0  0  0  0  0
   -0.2296    0.0410   -1.0728 H   0  0  0  0  0  0  0  0  0  0  0  0
   -0.3931    0.8838    0.5129 H   0  0  0  0  0  0  0  0  0  0  0  0
   -0.3882   -0.9233    0.4432 H   0  0  0  0  0  0  0  0  0  0  0  0
    3.8808    0.1457    0.0575 H   0  0  0  0  0  0  0  0  0  0  0  0
    5.3463    0.1270    2.0714 H   0  0  0  0  0  0  0  0  0  0  0  0
    4.3403   -0.0381    4.3355 H   0  0  0  0  0  0  0  0  0  0  0  0
    1.8930   -0.1758    4.6106 H   0  0  0  0  0  0  0  0  0  0  0  0
   -1.5415    0.2569    3.4484 H   0  0  0  0  0  0  0  0  0  0  0  0
   -0.0900    0.7383    4.4041 H   0  0  0  0  0  0  0  0  0  0  0  0
   -2.2782   -0.7855    6.4183 H   0  0  0  0  0  0  0  0  0  0  0  0
   -4.5962   -1.6952    6.7349 H   0  0  0  0  0  0  0  0  0  0  0  0
   -4.0995   -4.1215    3.1988 H   0  0  0  0  0  0  0  0  0  0  0  0
   -1.8044   -3.2222    2.8982 H   0  0  0  0  0  0  0  0  0  0  0  0
   -6.0166   -4.0588    4.5586 H   0  0  0  0  0  0  0  0  0  0  0  0
    0.0556   -1.9578    6.2958 H   0  0  0  0  0  0  0  0  0  0  0  0
  1 23  1  0  0  0  0
  1 22  1  0  0  0  0
  2  1  1  0  0  0  0
  2  3  1  0  0  0  0
  3  8  1  0  0  0  0
  4  3  2  0  0  0  0
  4  5  1  0  0  0  0
  5  6  2  0  0  0  0
  6  7  1  0  0  0  0
  6 26  1  0  0  0  0
  7 27  1  0  0  0  0
  8  9  1  0  0  0  0
  8  7  2  0  0  0  0
  9 10  1  0  0  0  0
 10 29  1  0  0  0  0
 10 11  1  0  0  0  0
 11 12  1  6  0  0  0
 11 13  1  0  0  0  0
 11 20  1  0  0  0  0
 13 14  2  0  0  0  0
 14 15  1  0  0  0  0
 14 30  1  0  0  0  0
 15 31  1  0  0  0  0
 16 19  1  0  0  0  0
 16 15  2  0  0  0  0
 17 16  1  0  0  0  0
 18 17  2  0  0  0  0
 18 13  1  0  0  0  0
 20 35  1  0  0  0  0
 21  1  1  0  0  0  0
 24  4  1  0  0  0  0
 25  5  1  0  0  0  0
 28 10  1  0  0  0  0
 32 17  1  0  0  0  0
 33 18  1  0  0  0  0
 34 19  1  0  0  0  0
M  END
$$$$
