35
rmsd53.gzmat
C          0.00000        0.00000        0.00000
O          1.42150        0.00000        0.00000
C          2.04500        0.00000        1.20900
C          3.35820       -0.47190        1.14830
C          4.14370       -0.48550        2.29860
C          3.62040       -0.04070        3.50860
C          2.31000        0.43330        3.58030
C          1.52470        0.46700        2.43320
O          0.24300        0.93940        2.36880
C         -0.36300        1.38810        3.56930
C         -0.82280        0.18340        4.41590
H         -0.12510       -0.68440        4.27950
C         -2.24010       -0.23570        4.14850
C         -2.75680       -0.21130        2.84870
C         -4.06290       -0.60990        2.60210
C         -4.84020       -1.04110        3.68380
C         -4.34200       -1.09620        4.98610
C         -3.02650       -0.69530        5.20510
O         -6.11050       -1.40520        3.37160
O         -0.62910        0.51050        5.77630
H         -0.23380       -0.29650       -1.03070
H         -0.36850        1.01180        0.20310
H         -0.40640       -0.72650        0.70950
H          3.75230       -0.82460        0.19670
H          5.16730       -0.85120        2.24650
H          4.23280       -0.06150        4.40780
H          1.91670        0.76980        4.53880
H         -1.20420        1.99200        3.17800
H          0.30860        2.05120        4.14350
H         -2.12850        0.11860        2.01810
H         -4.48790       -0.59740        1.60180
H         -4.95650       -1.44810        5.80670
H         -2.60580       -0.75380        6.21230
H         -6.61760       -1.71610        4.15970
H         -1.26930        1.18900        6.07200
