rmsd133.gzmat
 OpenBabel08211713423D

 56 59  0  0  1  0  0  0  0  0999 V2000
    0.0000    0.0000    0.0000 C   0  0  0  0  0  0  0  0  0  0  0  0
    1.4016    0.0000    0.0000 C   0  0  0  0  0  0  0  0  0  0  0  0
    2.1075    0.0000    1.2207 C   0  0  0  0  0  0  0  0  0  0  0  0
    1.4067    0.0204    2.4186 C   0  0  0  0  0  0  0  0  0  0  0  0
    0.0114    0.0251    2.4187 C   0  0  0  0  0  0  0  0  0  0  0  0
   -0.6848    0.0141    1.2099 C   0  0  0  0  0  0  0  0  0  0  0  0
   -0.8711    0.0506    3.9285 S   0  0  0  0  0  0  0  0  0  0  0  0
   -0.5038    1.2071    4.7135 O   0  0  0  0  0  0  0  0  0  0  0  0
   -2.2588   -0.2406    3.6381 O   0  0  0  0  0  0  0  0  0  0  0  0
   -0.1861   -1.2901    4.8142 N   0  0  0  0  0  0  0  0  0  0  0  0
   -0.7567   -2.6315    4.6260 C   0  0  0  0  0  0  0  0  0  0  0  0
   -2.1130   -2.8283    5.3247 C   0  0  0  0  0  0  0  0  0  0  0  0
   -2.5164   -4.3136    5.2937 C   0  0  0  0  0  0  0  0  0  0  0  0
   -3.8750   -4.6291    5.7779 N   0  0  0  0  0  0  0  0  0  0  0  0
   -4.0753   -4.2157    7.1820 C   0  0  0  0  0  0  0  0  0  0  0  0
   -4.9214   -4.0518    4.9090 C   0  0  0  0  0  0  0  0  0  0  0  0
    2.1798   -0.0554   -1.1709 N   0  0  0  0  0  0  0  0  0  0  0  0
    1.8161    0.3962   -2.4292 C   0  0  0  0  0  0  0  0  0  0  0  0
    0.5933    0.9405   -2.6625 N   0  0  0  0  0  0  0  0  0  0  0  0
    0.3382    1.3840   -3.9246 C   0  0  0  0  0  0  0  0  0  0  0  0
   -0.9718    1.9747   -4.0900 C   0  0  1  0  0  0  0  0  0  0  0  0
   -1.9815    2.1386   -3.1035 C   0  0  0  0  0  0  0  0  0  0  0  0
   -3.0845    2.7499   -3.6245 N   0  0  0  0  0  0  0  0  0  0  0  0
   -2.8280    2.9974   -4.9348 C   0  0  0  0  0  0  0  0  0  0  0  0
   -3.5830    3.6079   -5.9677 C   0  0  0  0  0  0  0  0  0  0  0  0
   -3.0097    3.7094   -7.2054 C   0  0  0  0  0  0  0  0  0  0  0  0
   -1.6890    3.1974   -7.4086 C   0  0  0  0  0  0  0  0  0  0  0  0
   -0.9596    2.6195   -6.4648 N   0  0  0  0  0  0  0  0  0  0  0  0
   -1.5172    2.5221   -5.2517 N   0  0  0  0  0  0  0  0  0  0  0  0
    1.2932    1.2672   -4.9420 C   0  0  0  0  0  0  0  0  0  0  0  0
    2.5251    0.6846   -4.6130 C   0  0  0  0  0  0  0  0  0  0  0  0
    2.8061    0.2521   -3.3774 N   0  0  0  0  0  0  0  0  0  0  0  0
   -0.5561   -0.0126   -0.9395 H   0  0  0  0  0  0  0  0  0  0  0  0
    3.1938   -0.0018    1.2290 H   0  0  0  0  0  0  0  0  0  0  0  0
    1.9687    0.0316    3.3592 H   0  0  0  0  0  0  0  0  0  0  0  0
   -1.7841    0.0108    1.1953 H   0  0  0  0  0  0  0  0  0  0  0  0
    0.0147   -1.0879    5.7923 H   0  0  0  0  0  0  0  0  0  0  0  0
   -0.0130   -3.3648    5.0202 H   0  0  0  0  0  0  0  0  0  0  0  0
   -0.8513   -2.8467    3.5369 H   0  0  0  0  0  0  0  0  0  0  0  0
   -2.8890   -2.2105    4.8227 H   0  0  0  0  0  0  0  0  0  0  0  0
   -2.0702   -2.4663    6.3660 H   0  0  0  0  0  0  0  0  0  0  0  0
   -1.8059   -4.9133    5.9062 H   0  0  0  0  0  0  0  0  0  0  0  0
   -2.4368   -4.7064    4.2550 H   0  0  0  0  0  0  0  0  0  0  0  0
   -3.2783   -4.6474    7.8084 H   0  0  0  0  0  0  0  0  0  0  0  0
   -5.0324   -4.6358    7.5362 H   0  0  0  0  0  0  0  0  0  0  0  0
   -4.0937   -3.1276    7.3419 H   0  0  0  0  0  0  0  0  0  0  0  0
   -4.7706   -4.4047    3.8756 H   0  0  0  0  0  0  0  0  0  0  0  0
   -4.9502   -2.9512    4.8932 H   0  0  0  0  0  0  0  0  0  0  0  0
   -5.9037   -4.4238    5.2454 H   0  0  0  0  0  0  0  0  0  0  0  0
    3.1580   -0.3439   -1.0763 H   0  0  0  0  0  0  0  0  0  0  0  0
   -1.9263    1.8387   -2.0648 H   0  0  0  0  0  0  0  0  0  0  0  0
   -4.5866    3.9728   -5.7348 H   0  0  0  0  0  0  0  0  0  0  0  0
   -3.5306    4.1698   -8.0434 H   0  0  0  0  0  0  0  0  0  0  0  0
   -1.2064    3.2645   -8.3951 H   0  0  0  0  0  0  0  0  0  0  0  0
    1.0970    1.6149   -5.9525 H   0  0  0  0  0  0  0  0  0  0  0  0
    3.3241    0.5590   -5.3570 H   0  0  0  0  0  0  0  0  0  0  0  0
  1  2  2  0  0  0  0
  1  6  1  0  0  0  0
  2  3  1  0  0  0  0
  3 34  1  0  0  0  0
  3  4  2  0  0  0  0
  4  5  1  0  0  0  0
  4 35  1  0  0  0  0
  5  7  1  0  0  0  0
  6  5  2  0  0  0  0
  7  8  2  0  0  0  0
  7 10  1  0  0  0  0
  9  7  2  0  0  0  0
 10 37  1  0  0  0  0
 11 10  1  0  0  0  0
 11 38  1  0  0  0  0
 11 12  1  0  0  0  0
 12 41  1  0  0  0  0
 13 12  1  0  0  0  0
 13 14  1  0  0  0  0
 13 42  1  0  0  0  0
 14 15  1  0  0  0  0
 15 46  1  0  0  0  0
 15 45  1  0  0  0  0
 15 44  1  0  0  0  0
 16 49  1  0  0  0  0
 16 14  1  0  0  0  0
 17 50  1  0  0  0  0
 17  2  1  0  0  0  0
 18 17  1  0  0  0  0
 19 18  2  0  0  0  0
 20 19  2  0  0  0  0
 21 20  1  1  0  0  0
 21 22  1  0  0  0  0
 22 51  1  0  0  0  0
 23 22  2  0  0  0  0
 24 23  2  0  0  0  0
 25 52  1  0  0  0  0
 25 24  1  0  0  0  0
 26 25  2  0  0  0  0
 27 26  1  0  0  0  0
 27 28  2  0  0  0  0
 28 29  1  0  0  0  0
 29 24  1  0  0  0  0
 29 21  1  0  0  0  0
 30 31  1  0  0  0  0
 30 20  1  0  0  0  0
 31 32  2  0  0  0  0
 32 18  2  0  0  0  0
 33  1  1  0  0  0  0
 36  6  1  0  0  0  0
 39 11  1  0  0  0  0
 40 12  1  0  0  0  0
 43 13  1  0  0  0  0
 47 16  1  0  0  0  0
 48 16  1  0  0  0  0
 53 26  1  0  0  0  0
 54 27  1  0  0  0  0
 55 30  1  0  0  0  0
 56 31  1  0  0  0  0
M  RAD  2  21   2  30   2
M  END
$$$$
