56

C          0.10460        0.02910        0.10660
C          1.49920       -0.18490        0.10050
C          2.18000       -0.30200        1.33160
C          1.47190       -0.20930        2.52450
C          0.08910       -0.00700        2.50960
C         -0.59930        0.12080        1.30160
S         -0.79450        0.12130        4.04900
O         -0.00130        0.90020        5.00270
O         -2.17590        0.49980        3.71730
N         -0.73230       -1.45510        4.63950
C         -1.77480       -2.39880        4.24190
C         -3.08210       -2.27910        5.02270
C         -4.13760       -3.28250        4.53070
N         -5.42840       -3.25380        5.19650
C         -5.40780       -3.68810        6.57520
C         -6.18300       -2.03570        4.99370
N          2.11840       -0.26320       -1.14280
C          3.43060       -0.45440       -1.51660
N          3.61980       -0.46060       -2.84290
C          4.86910       -0.63970       -3.29560
C          5.00310       -0.63550       -4.74640
C          3.99970       -0.47030       -5.71100
N          4.47960       -0.52040       -6.97040
C          5.79020       -0.71680       -6.84670
C          6.81420       -0.85210       -7.80300
C          8.10010       -1.05010       -7.35150
C          8.33450       -1.10870       -5.95040
N          7.40410       -0.98660       -5.03290
N          6.16020       -0.79460       -5.48640
C          5.94320       -0.81520       -2.39960
C          5.62110       -0.79070       -1.04630
N          4.38190       -0.61360       -0.58650
H         -0.42770        0.12920       -0.84330
H          3.25480       -0.45910        1.32550
H          1.99460       -0.28990        3.47900
H         -1.67510        0.29900        1.31280
H         -0.53600       -1.40570        5.63920
H         -1.35580       -3.41540        4.33990
H         -1.95990       -2.24990        3.16540
H         -3.45230       -1.24860        4.91760
H         -2.87440       -2.44390        6.09520
H         -3.73330       -4.30780        4.61820
H         -4.30950       -3.11090        3.45250
H         -4.88040       -4.65220        6.65970
H         -6.43900       -3.83740        6.93600
H         -4.91790       -2.97280        7.27530
H         -6.21670       -1.78780        3.92080
H         -5.77390       -1.14960        5.52930
H         -7.22020       -2.17680        5.34020
H          1.51280       -0.15680       -1.94910
H          2.94530       -0.31740       -5.48960
H          6.55310       -0.79530       -8.86030
H          8.93640       -1.16200       -8.04270
H          9.34370       -1.26470       -5.56000
H          6.95860       -0.96030       -2.75710
H          6.40370       -0.92080       -0.29020
