rmsd248.gzmat
 OpenBabel08211713423D

 56 58  0  0  1  0  0  0  0  0999 V2000
    0.0000    0.0000    0.0000 C   0  0  0  0  0  0  0  0  0  0  0  0
    1.4121    0.0000    0.0000 C   0  0  0  0  0  0  0  0  0  0  0  0
    2.1077    0.0000    1.2170 C   0  0  0  0  0  0  0  0  0  0  0  0
    1.4006    0.0238    2.4134 C   0  0  0  0  0  0  0  0  0  0  0  0
    0.0060    0.0439    2.4136 C   0  0  0  0  0  0  0  0  0  0  0  0
   -0.6892    0.0208    1.2043 C   0  0  0  0  0  0  0  0  0  0  0  0
   -0.8651    0.1004    3.9265 S   0  0  0  0  0  0  0  0  0  0  0  0
   -2.1281   -0.5932    3.8007 O   0  0  0  0  0  0  0  0  0  0  0  0
    0.0624   -0.2119    4.9926 O   0  0  0  0  0  0  0  0  0  0  0  0
   -1.3151    1.7809    4.0644 N   0  0  0  0  0  0  0  0  0  0  0  0
   -0.3697    2.7233    4.6773 C   0  0  0  0  0  0  0  0  0  0  0  0
   -0.2729    2.6029    6.2077 C   0  0  0  0  0  0  0  0  0  0  0  0
    0.6377    3.7127    6.7644 C   0  0  0  0  0  0  0  0  0  0  0  0
    0.9691    3.6201    8.2001 N   0  0  0  0  0  0  0  0  0  0  0  0
   -0.2362    3.6755    9.0525 C   0  0  0  0  0  0  0  0  0  0  0  0
    1.7691    2.4153    8.5042 C   0  0  0  0  0  0  0  0  0  0  0  0
    2.0242   -0.0340   -1.2646 N   0  0  0  0  0  0  0  0  0  0  0  0
    3.3642    0.1554   -1.5613 C   0  0  0  0  0  0  0  0  0  0  0  0
    4.2631    0.5081   -0.6063 N   0  0  0  0  0  0  0  0  0  0  0  0
    5.5574    0.6680   -0.9941 C   0  0  0  0  0  0  0  0  0  0  0  0
    6.4516    1.0445    0.0788 C   0  0  1  0  0  0  0  0  0  0  0  0
    6.1083    1.5410    1.3639 C   0  0  0  0  0  0  0  0  0  0  0  0
    7.2237    1.7612    2.1198 N   0  0  0  0  0  0  0  0  0  0  0  0
    8.2975    1.4141    1.3651 C   0  0  0  0  0  0  0  0  0  0  0  0
    9.6927    1.4042    1.6163 C   0  0  0  0  0  0  0  0  0  0  0  0
   10.5194    0.9727    0.6162 C   0  0  0  0  0  0  0  0  0  0  0  0
    9.9529    0.5551   -0.6303 C   0  0  0  0  0  0  0  0  0  0  0  0
    8.6545    0.5521   -0.8963 N   0  0  0  0  0  0  0  0  0  0  0  0
    7.8437    0.9731    0.0827 N   0  0  0  0  0  0  0  0  0  0  0  0
    5.9474    0.4859   -2.3257 C   0  0  0  0  0  0  0  0  0  0  0  0
    4.9511    0.1332   -3.2482 C   0  0  0  0  0  0  0  0  0  0  0  0
    3.6709   -0.0327   -2.8928 N   0  0  0  0  0  0  0  0  0  0  0  0
   -0.5507   -0.0106   -0.9364 H   0  0  0  0  0  0  0  0  0  0  0  0
    3.1993   -0.0251    1.2428 H   0  0  0  0  0  0  0  0  0  0  0  0
    1.9621    0.0159    3.3582 H   0  0  0  0  0  0  0  0  0  0  0  0
   -1.7858    0.0149    1.1889 H   0  0  0  0  0  0  0  0  0  0  0  0
   -2.2757    1.9412    4.3586 H   0  0  0  0  0  0  0  0  0  0  0  0
   -0.6977    3.7527    4.3962 H   0  0  0  0  0  0  0  0  0  0  0  0
    0.6374    2.5883    4.2198 H   0  0  0  0  0  0  0  0  0  0  0  0
    0.1321    1.6053    6.4858 H   0  0  0  0  0  0  0  0  0  0  0  0
   -1.2734    2.6580    6.6684 H   0  0  0  0  0  0  0  0  0  0  0  0
    0.1704    4.7091    6.5987 H   0  0  0  0  0  0  0  0  0  0  0  0
    1.6010    3.7282    6.2060 H   0  0  0  0  0  0  0  0  0  0  0  0
   -0.8184    4.5772    8.8030 H   0  0  0  0  0  0  0  0  0  0  0  0
    0.0831    3.7713   10.1045 H   0  0  0  0  0  0  0  0  0  0  0  0
   -0.8968    2.8001    8.9682 H   0  0  0  0  0  0  0  0  0  0  0  0
    2.6644    2.4005    7.8618 H   0  0  0  0  0  0  0  0  0  0  0  0
    1.2343    1.4625    8.3665 H   0  0  0  0  0  0  0  0  0  0  0  0
    2.1134    2.4756    9.5498 H   0  0  0  0  0  0  0  0  0  0  0  0
    1.4232   -0.2213   -2.0741 H   0  0  0  0  0  0  0  0  0  0  0  0
    5.1124    1.7353    1.7391 H   0  0  0  0  0  0  0  0  0  0  0  0
   10.0489    1.7355    2.5948 H   0  0  0  0  0  0  0  0  0  0  0  0
   11.6004    0.9364    0.7417 H   0  0  0  0  0  0  0  0  0  0  0  0
   10.5977    0.2047   -1.4500 H   0  0  0  0  0  0  0  0  0  0  0  0
    6.9806    0.6068   -2.6381 H   0  0  0  0  0  0  0  0  0  0  0  0
    5.1772   -0.0262   -4.3119 H   0  0  0  0  0  0  0  0  0  0  0  0
  1  2  2  0  0  0  0
  1  6  1  0  0  0  0
  2  3  1  0  0  0  0
  3 34  1  0  0  0  0
  3  4  2  0  0  0  0
  4  5  1  0  0  0  0
  4 35  1  0  0  0  0
  5  7  1  0  0  0  0
  6  5  2  0  0  0  0
  7 10  1  0  0  0  0
  7  9  2  0  0  0  0
  8  7  2  0  0  0  0
 10 37  1  0  0  0  0
 10 11  1  0  0  0  0
 12 40  1  0  0  0  0
 12 41  1  0  0  0  0
 12 13  1  0  0  0  0
 13 14  1  0  0  0  0
 14 16  1  0  0  0  0
 14 15  1  0  0  0  0
 15 45  1  0  0  0  0
 16 49  1  0  0  0  0
 17  2  1  0  0  0  0
 18 17  1  0  0  0  0
 18 19  2  0  0  0  0
 20 19  2  0  0  0  0
 21 20  1  1  0  0  0
 21 29  1  0  0  0  0
 21 22  1  0  0  0  0
 22 51  1  0  0  0  0
 22 23  2  0  0  0  0
 24 25  1  0  0  0  0
 24 23  2  0  0  0  0
 25 52  1  0  0  0  0
 26 53  1  0  0  0  0
 26 25  2  0  0  0  0
 27 26  1  0  0  0  0
 28 27  2  0  0  0  0
 28 29  1  0  0  0  0
 29 24  1  0  0  0  0
 30 20  1  0  0  0  0
 31 32  2  0  0  0  0
 31 30  1  0  0  0  0
 32 18  2  0  0  0  0
 33  1  1  0  0  0  0
 36  6  1  0  0  0  0
 38 11  1  0  0  0  0
 39 11  1  0  0  0  0
 42 13  1  0  0  0  0
 43 13  1  0  0  0  0
 44 15  1  0  0  0  0
 46 15  1  0  0  0  0
 47 16  1  0  0  0  0
 48 16  1  0  0  0  0
 50 17  1  0  0  0  0
 54 27  1  0  0  0  0
 55 30  1  0  0  0  0
 56 31  1  0  0  0  0
M  RAD  4  11   2  12   2  21   2  30   2
M  END
$$$$
