56
rmsd94.gzmat
C          0.00000        0.00000        0.00000
C          1.40200        0.00000        0.00000
C          2.10990        0.00000        1.21770
C          1.40940        0.06480        2.41570
C          0.01570        0.12150        2.41310
C         -0.68400        0.06580        1.20760
S         -0.86400        0.28760        3.91460
O         -2.21550       -0.18380        3.70560
O         -0.05600       -0.19350        5.01330
N         -0.92520        2.01660        4.14240
C         -2.08040        2.76090        3.62100
C         -3.35370        2.59810        4.46910
C         -4.45600        3.54440        3.95890
N         -5.73350        3.51180        4.69880
C         -6.39560        2.19420        4.60650
C         -5.56830        3.91480        6.11050
N          2.16790       -0.05060       -1.18180
C          1.79730        0.48680       -2.40300
N          0.58430        1.07830       -2.56690
C          0.29920        1.59180       -3.79400
C         -1.00290        2.21680       -3.87660
C         -1.92910        2.43120       -2.82060
N         -3.05790        3.05010       -3.27350
C         -2.90060        3.24980       -4.60760
C         -3.72620        3.83370       -5.60130
C         -3.25140        3.87630       -6.88340
C         -1.95660        3.33800       -7.16890
N         -1.16190        2.78540       -6.26360
N         -1.62530        2.74140       -5.00830
C          1.21790        1.50860       -4.84700
C          2.44570        0.88260       -4.58750
N          2.75490        0.37480       -3.38740
H         -0.55620       -0.05030       -0.93800
H          3.19560       -0.03180        1.22560
H          1.97000        0.07260        3.35870
H         -1.78190        0.06340        1.19470
H         -0.64280        2.33180        5.06800
H         -2.27920        2.45350        2.56850
H         -1.78580        3.83690        3.57680
H         -3.13850        2.79790        5.53230
H         -3.70880        1.54600        4.42320
H         -4.68580        3.31510        2.89330
H         -4.09430        4.59690        3.97710
H         -6.56360        1.94860        3.54500
H         -7.38440        2.25820        5.09100
H         -5.83550        1.36490        5.06510
H         -5.08020        4.90140        6.15390
H         -4.98650        3.21030        6.72260
H         -6.56850        4.02480        6.56410
H          3.13530       -0.37490       -1.11370
H         -1.79740        2.16050       -1.78110
H         -4.70350        4.22370       -5.30580
H         -3.83220        4.30790       -7.69710
H         -1.55040        3.36250       -8.19130
H          0.99720        1.91210       -5.83120
H          3.21850        0.78240       -5.36230
