
     RDKit          3D

 56 59  0  0  0  0  0  0  0  0999 V2000
    0.4407    0.6445    0.4553 C   0  0  0  0  0  0  0  0  0  0  0  0
    1.8330    0.5250    0.2841 C   0  0  0  0  0  0  0  0  0  0  0  0
    2.6332    0.1807    1.3986 C   0  0  0  0  0  0  0  0  0  0  0  0
    2.0647   -0.0449    2.6425 C   0  0  0  0  0  0  0  0  0  0  0  0
    0.6777    0.0674    2.7909 C   0  0  0  0  0  0  0  0  0  0  0  0
   -0.1278    0.4182    1.7080 C   0  0  0  0  0  0  0  0  0  0  0  0
   -0.0516   -0.2191    4.3885 S   0  0  0  0  0  0  0  0  0  0  0  0
    0.8278    0.3240    5.4267 O   0  0  0  0  0  0  0  0  0  0  0  0
   -1.4617    0.1842    4.2942 O   0  0  0  0  0  0  0  0  0  0  0  0
    0.0836   -1.8900    4.5564 N   0  0  0  0  0  0  0  0  0  0  0  0
   -0.9804   -2.7405    4.0267 C   0  0  0  0  0  0  0  0  0  0  0  0
   -2.2136   -2.8606    4.9199 C   0  0  0  0  0  0  0  0  0  0  0  0
   -3.2976   -3.7458    4.2839 C   0  0  0  0  0  0  0  0  0  0  0  0
   -4.5242   -3.9239    5.0415 N   0  0  0  0  0  0  0  0  0  0  0  0
   -4.3765   -4.6833    6.2626 C   0  0  0  0  0  0  0  0  0  0  0  0
   -5.3078   -2.7190    5.2102 C   0  0  0  0  0  0  0  0  0  0  0  0
    2.4920    0.7345   -0.9214 N   0  0  0  0  0  0  0  0  0  0  0  0
    2.0402    1.0411   -2.1866 C   0  0  0  0  0  0  0  0  0  0  0  0
    0.7391    1.1707   -2.4304 N   0  0  0  0  0  0  0  0  0  0  0  0
    0.3677    1.4701   -3.6917 C   0  0  0  0  0  0  0  0  0  0  0  0
   -1.0701    1.5890   -3.8942 C   0  0  0  0  0  0  0  0  0  0  0  0
   -2.1038    1.4061   -2.9643 C   0  0  0  0  0  0  0  0  0  0  0  0
   -3.3251    1.5946   -3.5040 N   0  0  0  0  0  0  0  0  0  0  0  0
   -3.1096    1.9005   -4.7810 C   0  0  0  0  0  0  0  0  0  0  0  0
   -3.9915    2.2027   -5.8355 C   0  0  0  0  0  0  0  0  0  0  0  0
   -3.4516    2.4834   -7.0709 C   0  0  0  0  0  0  0  0  0  0  0  0
   -2.0384    2.4555   -7.2245 C   0  0  0  0  0  0  0  0  0  0  0  0
   -1.1889    2.1781   -6.2634 N   0  0  0  0  0  0  0  0  0  0  0  0
   -1.7278    1.9078   -5.0690 N   0  0  0  0  0  0  0  0  0  0  0  0
    1.3243    1.6410   -4.7047 C   0  0  0  0  0  0  0  0  0  0  0  0
    2.6594    1.4770   -4.3256 C   0  0  0  0  0  0  0  0  0  0  0  0
    3.0354    1.1798   -3.0885 N   0  0  0  0  0  0  0  0  0  0  0  0
   -0.1717    0.9184   -0.3976 H   0  0  0  0  0  0  0  0  0  0  0  0
    3.7162    0.0965    1.2746 H   0  0  0  0  0  0  0  0  0  0  0  0
    2.6851   -0.3014    3.5024 H   0  0  0  0  0  0  0  0  0  0  0  0
   -1.2033    0.5228    1.8574 H   0  0  0  0  0  0  0  0  0  0  0  0
    0.3702   -2.0841    5.5159 H   0  0  0  0  0  0  0  0  0  0  0  0
   -0.5427   -3.7353    3.8337 H   0  0  0  0  0  0  0  0  0  0  0  0
   -1.2628   -2.3379    3.0400 H   0  0  0  0  0  0  0  0  0  0  0  0
   -2.6035   -1.8491    5.1061 H   0  0  0  0  0  0  0  0  0  0  0  0
   -1.9088   -3.2784    5.8961 H   0  0  0  0  0  0  0  0  0  0  0  0
   -2.8761   -4.7473    4.0801 H   0  0  0  0  0  0  0  0  0  0  0  0
   -3.5667   -3.3195    3.3004 H   0  0  0  0  0  0  0  0  0  0  0  0
   -3.8328   -5.6206    6.0612 H   0  0  0  0  0  0  0  0  0  0  0  0
   -5.3698   -4.9506    6.6597 H   0  0  0  0  0  0  0  0  0  0  0  0
   -3.8344   -4.1467    7.0751 H   0  0  0  0  0  0  0  0  0  0  0  0
   -5.4391   -2.2161    4.2389 H   0  0  0  0  0  0  0  0  0  0  0  0
   -4.8632   -1.9789    5.9130 H   0  0  0  0  0  0  0  0  0  0  0  0
   -6.3086   -2.9753    5.5955 H   0  0  0  0  0  0  0  0  0  0  0  0
    3.5029    0.6558   -0.9003 H   0  0  0  0  0  0  0  0  0  0  0  0
   -1.9668    1.1387   -1.9186 H   0  0  0  0  0  0  0  0  0  0  0  0
   -5.0637    2.2034   -5.6364 H   0  0  0  0  0  0  0  0  0  0  0  0
   -4.0820    2.7250   -7.9275 H   0  0  0  0  0  0  0  0  0  0  0  0
   -1.5784    2.6733   -8.1922 H   0  0  0  0  0  0  0  0  0  0  0  0
    1.0325    1.8854   -5.7220 H   0  0  0  0  0  0  0  0  0  0  0  0
    3.4601    1.5930   -5.0654 H   0  0  0  0  0  0  0  0  0  0  0  0
  1  2  2  0
  1  6  1  0
  1 33  1  0
  2  3  1  0
  2 17  1  0
  3  4  2  0
  3 34  1  0
  4  5  1  0
  4 35  1  0
  5  6  2  0
  5  7  1  0
  6 36  1  0
  7  8  2  0
  7  9  2  0
  7 10  1  0
 10 11  1  0
 10 37  1  0
 11 12  1  0
 11 38  1  0
 11 39  1  0
 12 13  1  0
 12 40  1  0
 12 41  1  0
 13 14  1  0
 13 42  1  0
 13 43  1  0
 14 15  1  0
 14 16  1  0
 15 44  1  0
 15 45  1  0
 15 46  1  0
 16 47  1  0
 16 48  1  0
 16 49  1  0
 17 18  1  0
 17 50  1  0
 18 19  2  0
 18 32  1  0
 19 20  1  0
 20 21  1  0
 20 30  2  0
 21 22  2  0
 21 29  1  0
 22 23  1  0
 22 51  1  0
 23 24  2  0
 24 25  1  0
 24 29  1  0
 25 26  2  0
 25 52  1  0
 26 27  1  0
 26 53  1  0
 27 28  2  0
 27 54  1  0
 28 29  1  0
 30 31  1  0
 30 55  1  0
 31 32  2  0
 31 56  1  0
M  END

