rmsd94.gzmat
 OpenBabel08211713423D

 56 59  0  0  1  0  0  0  0  0999 V2000
    0.0000    0.0000    0.0000 C   0  0  0  0  0  0  0  0  0  0  0  0
    1.4020    0.0000    0.0000 C   0  0  0  0  0  0  0  0  0  0  0  0
    2.1099    0.0000    1.2177 C   0  0  0  0  0  0  0  0  0  0  0  0
    1.4094    0.0648    2.4157 C   0  0  0  0  0  0  0  0  0  0  0  0
    0.0157    0.1215    2.4131 C   0  0  0  0  0  0  0  0  0  0  0  0
   -0.6840    0.0658    1.2076 C   0  0  0  0  0  0  0  0  0  0  0  0
   -0.8640    0.2876    3.9146 S   0  0  0  0  0  0  0  0  0  0  0  0
   -2.2155   -0.1838    3.7056 O   0  0  0  0  0  0  0  0  0  0  0  0
   -0.0560   -0.1935    5.0133 O   0  0  0  0  0  0  0  0  0  0  0  0
   -0.9252    2.0166    4.1424 N   0  0  0  0  0  0  0  0  0  0  0  0
   -2.0804    2.7609    3.6210 C   0  0  0  0  0  0  0  0  0  0  0  0
   -3.3537    2.5981    4.4691 C   0  0  0  0  0  0  0  0  0  0  0  0
   -4.4560    3.5444    3.9589 C   0  0  0  0  0  0  0  0  0  0  0  0
   -5.7335    3.5118    4.6988 N   0  0  0  0  0  0  0  0  0  0  0  0
   -6.3956    2.1942    4.6065 C   0  0  0  0  0  0  0  0  0  0  0  0
   -5.5683    3.9148    6.1105 C   0  0  0  0  0  0  0  0  0  0  0  0
    2.1679   -0.0506   -1.1818 N   0  0  0  0  0  0  0  0  0  0  0  0
    1.7973    0.4868   -2.4030 C   0  0  0  0  0  0  0  0  0  0  0  0
    0.5843    1.0783   -2.5669 N   0  0  0  0  0  0  0  0  0  0  0  0
    0.2992    1.5918   -3.7940 C   0  0  0  0  0  0  0  0  0  0  0  0
   -1.0029    2.2168   -3.8766 C   0  0  1  0  0  0  0  0  0  0  0  0
   -1.9291    2.4312   -2.8206 C   0  0  0  0  0  0  0  0  0  0  0  0
   -3.0579    3.0501   -3.2735 N   0  0  0  0  0  0  0  0  0  0  0  0
   -2.9006    3.2498   -4.6076 C   0  0  0  0  0  0  0  0  0  0  0  0
   -3.7262    3.8337   -5.6013 C   0  0  0  0  0  0  0  0  0  0  0  0
   -3.2514    3.8763   -6.8834 C   0  0  0  0  0  0  0  0  0  0  0  0
   -1.9566    3.3380   -7.1689 C   0  0  0  0  0  0  0  0  0  0  0  0
   -1.1619    2.7854   -6.2636 N   0  0  0  0  0  0  0  0  0  0  0  0
   -1.6253    2.7414   -5.0083 N   0  0  0  0  0  0  0  0  0  0  0  0
    1.2179    1.5086   -4.8470 C   0  0  0  0  0  0  0  0  0  0  0  0
    2.4457    0.8826   -4.5875 C   0  0  0  0  0  0  0  0  0  0  0  0
    2.7549    0.3748   -3.3874 N   0  0  0  0  0  0  0  0  0  0  0  0
   -0.5562   -0.0503   -0.9380 H   0  0  0  0  0  0  0  0  0  0  0  0
    3.1956   -0.0318    1.2256 H   0  0  0  0  0  0  0  0  0  0  0  0
    1.9700    0.0726    3.3587 H   0  0  0  0  0  0  0  0  0  0  0  0
   -1.7819    0.0634    1.1947 H   0  0  0  0  0  0  0  0  0  0  0  0
   -0.6428    2.3318    5.0680 H   0  0  0  0  0  0  0  0  0  0  0  0
   -2.2792    2.4535    2.5685 H   0  0  0  0  0  0  0  0  0  0  0  0
   -1.7858    3.8369    3.5768 H   0  0  0  0  0  0  0  0  0  0  0  0
   -3.1385    2.7979    5.5323 H   0  0  0  0  0  0  0  0  0  0  0  0
   -3.7088    1.5460    4.4232 H   0  0  0  0  0  0  0  0  0  0  0  0
   -4.6858    3.3151    2.8933 H   0  0  0  0  0  0  0  0  0  0  0  0
   -4.0943    4.5969    3.9771 H   0  0  0  0  0  0  0  0  0  0  0  0
   -6.5636    1.9486    3.5450 H   0  0  0  0  0  0  0  0  0  0  0  0
   -7.3844    2.2582    5.0910 H   0  0  0  0  0  0  0  0  0  0  0  0
   -5.8355    1.3649    5.0651 H   0  0  0  0  0  0  0  0  0  0  0  0
   -5.0802    4.9014    6.1539 H   0  0  0  0  0  0  0  0  0  0  0  0
   -4.9865    3.2103    6.7226 H   0  0  0  0  0  0  0  0  0  0  0  0
   -6.5685    4.0248    6.5641 H   0  0  0  0  0  0  0  0  0  0  0  0
    3.1353   -0.3749   -1.1137 H   0  0  0  0  0  0  0  0  0  0  0  0
   -1.7974    2.1605   -1.7811 H   0  0  0  0  0  0  0  0  0  0  0  0
   -4.7035    4.2237   -5.3058 H   0  0  0  0  0  0  0  0  0  0  0  0
   -3.8322    4.3079   -7.6971 H   0  0  0  0  0  0  0  0  0  0  0  0
   -1.5504    3.3625   -8.1913 H   0  0  0  0  0  0  0  0  0  0  0  0
    0.9972    1.9121   -5.8312 H   0  0  0  0  0  0  0  0  0  0  0  0
    3.2185    0.7824   -5.3623 H   0  0  0  0  0  0  0  0  0  0  0  0
  1  2  2  0  0  0  0
  1  6  1  0  0  0  0
  2  3  1  0  0  0  0
  3 34  1  0  0  0  0
  3  4  2  0  0  0  0
  4 35  1  0  0  0  0
  5  4  1  0  0  0  0
  5  7  1  0  0  0  0
  6  5  2  0  0  0  0
  7 10  1  0  0  0  0
  7  9  2  0  0  0  0
  8  7  2  0  0  0  0
 10 37  1  0  0  0  0
 11 10  1  0  0  0  0
 11 12  1  0  0  0  0
 12 40  1  0  0  0  0
 13 43  1  0  0  0  0
 13 12  1  0  0  0  0
 13 14  1  0  0  0  0
 14 16  1  0  0  0  0
 15 14  1  0  0  0  0
 15 46  1  0  0  0  0
 15 45  1  0  0  0  0
 16 47  1  0  0  0  0
 16 49  1  0  0  0  0
 16 48  1  0  0  0  0
 17 50  1  0  0  0  0
 17  2  1  0  0  0  0
 18 17  1  0  0  0  0
 19 18  2  0  0  0  0
 20 19  2  0  0  0  0
 21 20  1  1  0  0  0
 21 22  1  0  0  0  0
 22 51  1  0  0  0  0
 23 22  2  0  0  0  0
 24 23  2  0  0  0  0
 25 52  1  0  0  0  0
 25 24  1  0  0  0  0
 26 25  2  0  0  0  0
 27 26  1  0  0  0  0
 27 28  2  0  0  0  0
 28 29  1  0  0  0  0
 29 24  1  0  0  0  0
 29 21  1  0  0  0  0
 30 31  1  0  0  0  0
 30 20  1  0  0  0  0
 31 32  2  0  0  0  0
 32 18  2  0  0  0  0
 33  1  1  0  0  0  0
 36  6  1  0  0  0  0
 38 11  1  0  0  0  0
 39 11  1  0  0  0  0
 41 12  1  0  0  0  0
 42 13  1  0  0  0  0
 44 15  1  0  0  0  0
 53 26  1  0  0  0  0
 54 27  1  0  0  0  0
 55 30  1  0  0  0  0
 56 31  1  0  0  0  0
M  RAD  2  21   2  30   2
M  END
$$$$
