56
rmsd126.gzmat
C          0.00000        0.00000        0.00000
C          1.41220        0.00000        0.00000
C          2.10860        0.00000        1.21590
C          1.40150       -0.01460        2.41300
C          0.00690       -0.02910        2.41390
C         -0.68890       -0.01550        1.20420
S         -0.86920       -0.05290        3.92530
O         -0.14100        0.70330        4.92080
O         -2.26470        0.21040        3.64650
N         -0.72540       -1.70730        4.46560
C         -1.81900       -2.64660        4.17960
C         -3.06770       -2.43220        5.05280
C         -4.08590       -3.55970        4.80180
N         -5.41200       -3.38720        5.42770
C         -5.31960       -3.26600        6.89710
C         -6.14940       -2.24230        4.85400
N          2.02590        0.03750       -1.26330
C          3.35010       -0.23400       -1.56870
N          3.62540       -0.15130       -2.91140
C          4.89230       -0.41810       -3.30520
C          5.11880       -0.29720       -4.72900
C          4.27110        0.30890       -5.69420
N          4.81470        0.23190       -6.94380
C          6.00030       -0.41970       -6.82810
C          6.98660       -0.80440       -7.77090
C          8.08210       -1.48150       -7.31100
C          8.19260       -1.76680       -5.91300
N          7.29130       -1.41670       -5.00620
N          6.21670       -0.75650       -5.45530
C          5.88690       -0.76430       -2.37400
C          5.51830       -0.81870       -1.02860
N          4.26520       -0.55910       -0.61020
H         -0.55020        0.00650       -0.93660
H          3.20050        0.01320        1.24000
H          1.96470       -0.00490        3.35440
H         -1.78690       -0.01150        1.19050
H         -0.37020       -1.80540        5.41520
H         -1.41810       -3.67680        4.33470
H         -2.09310       -2.58060        3.10190
H         -3.52890       -1.44820        4.81940
H         -2.79480       -2.39240        6.12050
H         -3.67720       -4.52950        5.16390
H         -4.25130       -3.68430        3.70780
H         -4.74600       -4.11670        7.29850
H         -6.33770       -3.32970        7.31810
H         -4.85550       -2.33380        7.25160
H         -6.23550       -2.37670        3.76360
H         -5.69080       -1.25910        5.04120
H         -7.17140       -2.23610        5.26790
H          1.42240        0.21140       -2.07510
H          3.31420        0.77970       -5.50990
H          6.83160       -0.54910       -8.82200
H          8.87540       -1.81070       -7.98000
H          9.06410       -2.30980       -5.51820
H          6.90380       -0.98370       -2.68720
H          6.23480       -1.07660       -0.23660
