56

C         -0.09570       -0.01130       -0.23610
C          1.29760        0.19170       -0.23290
C          1.96850        0.32990        1.00460
C          1.27420        0.27330        2.20300
C         -0.11150        0.08050        2.18080
C         -0.79010       -0.06890        0.97160
S         -1.00180        0.00190        3.71930
O         -2.37420       -0.41640        3.40030
O         -0.19710       -0.71910        4.70870
N         -0.97000        1.60410        4.24080
C         -2.02310        2.51220        3.79120
C         -3.33820        2.40420        4.56070
C         -4.40290        3.36820        4.01300
N         -5.70180        3.34680        4.66310
C         -6.43470        2.10930        4.50260
C         -5.70650        3.83930        6.02220
N          2.08110        0.26300       -1.38020
C          1.77380        0.17250       -2.72000
N          2.83630        0.28820       -3.52800
C          2.62750        0.21100       -4.85020
C          3.82490        0.34400       -5.66970
C          5.14760        0.54030       -5.24960
N          6.01190        0.61950       -6.28190
C          5.27260        0.47720       -7.37960
C          5.61110        0.47150       -8.74590
C          4.59870        0.29850       -9.66330
C          3.26680        0.13470       -9.19330
N          2.91700        0.13510       -7.92840
N          3.91100        0.30390       -7.04910
C          1.33020        0.01490       -5.36590
C          0.30820       -0.08960       -4.42760
N          0.50580       -0.01400       -3.11080
H         -0.61030       -0.12520       -1.18600
H          3.05190        0.47800        1.01310
H          1.79550        0.37050        3.15640
H         -1.86740       -0.24030        0.98440
H         -0.78690        1.60040        5.24430
H         -2.19180        2.31540        2.71980
H         -1.62200        3.53890        3.85110
H         -3.14680        2.61840        5.62750
H         -3.69060        1.36430        4.49550
H         -4.55780        3.14790        2.94110
H         -4.01620        4.40280        4.06150
H         -6.45010        1.81580        3.44080
H         -7.47860        2.24840        4.82930
H         -6.01940        1.25330        5.08060
H         -5.19490        4.81420        6.07250
H         -5.21530        3.16200        6.75840
H         -6.74460        3.98740        6.36310
H          3.07450        0.40340       -1.23380
H          5.46320        0.62210       -4.21140
H          6.65680        0.60340       -9.02610
H          4.79700        0.28470      -10.73570
H          2.44080       -0.00460       -9.89600
H          1.15160       -0.04920       -6.43550
H         -0.72680       -0.24270       -4.75350
