rmsd50.gzmat
 OpenBabel08211713423D

 56 59  0  0  1  0  0  0  0  0999 V2000
    0.0000    0.0000    0.0000 C   0  0  0  0  0  0  0  0  0  0  0  0
    1.4115    0.0000    0.0000 C   0  0  0  0  0  0  0  0  0  0  0  0
    2.1096    0.0000    1.2146 C   0  0  0  0  0  0  0  0  0  0  0  0
    1.4037    0.0260    2.4123 C   0  0  0  0  0  0  0  0  0  0  0  0
    0.0097    0.0565    2.4136 C   0  0  0  0  0  0  0  0  0  0  0  0
   -0.6871    0.0332    1.2047 C   0  0  0  0  0  0  0  0  0  0  0  0
   -0.8741    0.1288    3.9205 S   0  0  0  0  0  0  0  0  0  0  0  0
   -2.2859    0.1872    3.6050 O   0  0  0  0  0  0  0  0  0  0  0  0
   -0.3624   -0.8439    4.8593 O   0  0  0  0  0  0  0  0  0  0  0  0
   -0.3855    1.6625    4.5991 N   0  0  0  0  0  0  0  0  0  0  0  0
   -1.0925    2.8814    4.1800 C   0  0  0  0  0  0  0  0  0  0  0  0
   -2.4865    3.0656    4.8029 C   0  0  0  0  0  0  0  0  0  0  0  0
   -2.3958    3.4160    6.2994 C   0  0  0  0  0  0  0  0  0  0  0  0
   -3.6779    3.5097    7.0257 N   0  0  0  0  0  0  0  0  0  0  0  0
   -4.5397    4.5874    6.4999 C   0  0  0  0  0  0  0  0  0  0  0  0
   -4.3990    2.2206    7.0455 C   0  0  0  0  0  0  0  0  0  0  0  0
    2.0294   -0.0432   -1.2623 N   0  0  0  0  0  0  0  0  0  0  0  0
    3.3213    0.3502   -1.5722 C   0  0  0  0  0  0  0  0  0  0  0  0
    3.5994    0.2971   -2.9150 N   0  0  0  0  0  0  0  0  0  0  0  0
    4.8353    0.6819   -3.3111 C   0  0  0  0  0  0  0  0  0  0  0  0
    5.0603    0.5969   -4.7376 C   0  0  1  0  0  0  0  0  0  0  0  0
    4.2284   -0.0165   -5.7122 C   0  0  0  0  0  0  0  0  0  0  0  0
    4.7622    0.1061   -6.9622 N   0  0  0  0  0  0  0  0  0  0  0  0
    5.9270    0.7931   -6.8376 C   0  0  0  0  0  0  0  0  0  0  0  0
    6.8985    1.2251   -7.7749 C   0  0  0  0  0  0  0  0  0  0  0  0
    7.9775    1.9211   -7.3039 C   0  0  0  0  0  0  0  0  0  0  0  0
    8.0836    2.1830   -5.9010 C   0  0  0  0  0  0  0  0  0  0  0  0
    7.1943    1.7908   -4.9997 N   0  0  0  0  0  0  0  0  0  0  0  0
    6.1383    1.1082   -5.4591 N   0  0  0  0  0  0  0  0  0  0  0  0
    5.7947    1.1161   -2.3797 C   0  0  0  0  0  0  0  0  0  0  0  0
    5.4253    1.1326   -1.0330 C   0  0  0  0  0  0  0  0  0  0  0  0
    4.2029    0.7564   -0.6129 N   0  0  0  0  0  0  0  0  0  0  0  0
   -0.5505   -0.0137   -0.9364 H   0  0  0  0  0  0  0  0  0  0  0  0
    3.2015   -0.0162    1.2354 H   0  0  0  0  0  0  0  0  0  0  0  0
    1.9680    0.0223    3.3524 H   0  0  0  0  0  0  0  0  0  0  0  0
   -1.7857    0.0436    1.1910 H   0  0  0  0  0  0  0  0  0  0  0  0
   -0.2214    1.6386    5.6043 H   0  0  0  0  0  0  0  0  0  0  0  0
   -1.1750    2.8955    3.0685 H   0  0  0  0  0  0  0  0  0  0  0  0
   -0.4401    3.7481    4.4459 H   0  0  0  0  0  0  0  0  0  0  0  0
   -3.0965    2.1484    4.6556 H   0  0  0  0  0  0  0  0  0  0  0  0
   -3.0300    3.8593    4.2603 H   0  0  0  0  0  0  0  0  0  0  0  0
   -1.8704    4.3883    6.4292 H   0  0  0  0  0  0  0  0  0  0  0  0
   -1.7785    2.6593    6.8340 H   0  0  0  0  0  0  0  0  0  0  0  0
   -3.9932    5.5434    6.5490 H   0  0  0  0  0  0  0  0  0  0  0  0
   -5.4234    4.6836    7.1539 H   0  0  0  0  0  0  0  0  0  0  0  0
   -4.8884    4.4353    5.4684 H   0  0  0  0  0  0  0  0  0  0  0  0
   -3.7449    1.4462    7.4797 H   0  0  0  0  0  0  0  0  0  0  0  0
   -4.7385    1.8675    6.0597 H   0  0  0  0  0  0  0  0  0  0  0  0
   -5.2780    2.3159    7.7045 H   0  0  0  0  0  0  0  0  0  0  0  0
    1.4375   -0.2653   -2.0702 H   0  0  0  0  0  0  0  0  0  0  0  0
    3.2888   -0.5234   -5.5340 H   0  0  0  0  0  0  0  0  0  0  0  0
    6.7471    0.9879   -8.8307 H   0  0  0  0  0  0  0  0  0  0  0  0
    8.7604    2.2831   -7.9683 H   0  0  0  0  0  0  0  0  0  0  0  0
    8.9404    2.7425   -5.4971 H   0  0  0  0  0  0  0  0  0  0  0  0
    6.7864    1.4306   -2.6919 H   0  0  0  0  0  0  0  0  0  0  0  0
    6.1161    1.4556   -0.2419 H   0  0  0  0  0  0  0  0  0  0  0  0
  1  2  2  0  0  0  0
  1  6  1  0  0  0  0
  2  3  1  0  0  0  0
  3 34  1  0  0  0  0
  3  4  2  0  0  0  0
  4  5  1  0  0  0  0
  4 35  1  0  0  0  0
  5  7  1  0  0  0  0
  6  5  2  0  0  0  0
  7 10  1  0  0  0  0
  7  9  2  0  0  0  0
  8  7  2  0  0  0  0
 10 37  1  0  0  0  0
 11 39  1  0  0  0  0
 11 10  1  0  0  0  0
 11 12  1  0  0  0  0
 12 13  1  0  0  0  0
 13 42  1  0  0  0  0
 13 43  1  0  0  0  0
 13 14  1  0  0  0  0
 14 16  1  0  0  0  0
 15 44  1  0  0  0  0
 15 14  1  0  0  0  0
 15 45  1  0  0  0  0
 16 47  1  0  0  0  0
 16 49  1  0  0  0  0
 17  2  1  0  0  0  0
 18 17  1  0  0  0  0
 18 32  2  0  0  0  0
 19 18  2  0  0  0  0
 20 19  2  0  0  0  0
 20 30  1  0  0  0  0
 21 20  1  6  0  0  0
 22 51  1  0  0  0  0
 22 21  1  0  0  0  0
 23 24  2  0  0  0  0
 23 22  2  0  0  0  0
 24 29  1  0  0  0  0
 25 26  2  0  0  0  0
 25 24  1  0  0  0  0
 26 27  1  0  0  0  0
 27 54  1  0  0  0  0
 27 28  2  0  0  0  0
 29 28  1  0  0  0  0
 29 21  1  0  0  0  0
 30 31  1  0  0  0  0
 31 32  2  0  0  0  0
 31 56  1  0  0  0  0
 33  1  1  0  0  0  0
 36  6  1  0  0  0  0
 38 11  1  0  0  0  0
 40 12  1  0  0  0  0
 41 12  1  0  0  0  0
 46 15  1  0  0  0  0
 48 16  1  0  0  0  0
 50 17  1  0  0  0  0
 52 25  1  0  0  0  0
 53 26  1  0  0  0  0
 55 30  1  0  0  0  0
M  RAD  2  21   2  30   2
M  END
$$$$
