
     RDKit          3D

 56 59  0  0  0  0  0  0  0  0999 V2000
    0.1046    0.0291    0.1066 C   0  0  0  0  0  0  0  0  0  0  0  0
    1.4992   -0.1849    0.1005 C   0  0  0  0  0  0  0  0  0  0  0  0
    2.1800   -0.3020    1.3316 C   0  0  0  0  0  0  0  0  0  0  0  0
    1.4719   -0.2093    2.5245 C   0  0  0  0  0  0  0  0  0  0  0  0
    0.0891   -0.0070    2.5096 C   0  0  0  0  0  0  0  0  0  0  0  0
   -0.5993    0.1208    1.3016 C   0  0  0  0  0  0  0  0  0  0  0  0
   -0.7945    0.1213    4.0490 S   0  0  0  0  0  0  0  0  0  0  0  0
   -0.0013    0.9002    5.0027 O   0  0  0  0  0  0  0  0  0  0  0  0
   -2.1759    0.4998    3.7173 O   0  0  0  0  0  0  0  0  0  0  0  0
   -0.7323   -1.4551    4.6395 N   0  0  0  0  0  0  0  0  0  0  0  0
   -1.7748   -2.3988    4.2419 C   0  0  0  0  0  0  0  0  0  0  0  0
   -3.0821   -2.2791    5.0227 C   0  0  0  0  0  0  0  0  0  0  0  0
   -4.1376   -3.2825    4.5307 C   0  0  0  0  0  0  0  0  0  0  0  0
   -5.4284   -3.2538    5.1965 N   0  0  0  0  0  0  0  0  0  0  0  0
   -5.4078   -3.6881    6.5752 C   0  0  0  0  0  0  0  0  0  0  0  0
   -6.1830   -2.0357    4.9937 C   0  0  0  0  0  0  0  0  0  0  0  0
    2.1184   -0.2632   -1.1428 N   0  0  0  0  0  0  0  0  0  0  0  0
    3.4306   -0.4544   -1.5166 C   0  0  0  0  0  0  0  0  0  0  0  0
    3.6198   -0.4606   -2.8429 N   0  0  0  0  0  0  0  0  0  0  0  0
    4.8691   -0.6397   -3.2956 C   0  0  0  0  0  0  0  0  0  0  0  0
    5.0031   -0.6355   -4.7464 C   0  0  0  0  0  0  0  0  0  0  0  0
    3.9997   -0.4703   -5.7110 C   0  0  0  0  0  0  0  0  0  0  0  0
    4.4796   -0.5204   -6.9704 N   0  0  0  0  0  0  0  0  0  0  0  0
    5.7902   -0.7168   -6.8467 C   0  0  0  0  0  0  0  0  0  0  0  0
    6.8142   -0.8521   -7.8030 C   0  0  0  0  0  0  0  0  0  0  0  0
    8.1001   -1.0501   -7.3515 C   0  0  0  0  0  0  0  0  0  0  0  0
    8.3345   -1.1087   -5.9504 C   0  0  0  0  0  0  0  0  0  0  0  0
    7.4041   -0.9866   -5.0329 N   0  0  0  0  0  0  0  0  0  0  0  0
    6.1602   -0.7946   -5.4864 N   0  0  0  0  0  0  0  0  0  0  0  0
    5.9432   -0.8152   -2.3996 C   0  0  0  0  0  0  0  0  0  0  0  0
    5.6211   -0.7907   -1.0463 C   0  0  0  0  0  0  0  0  0  0  0  0
    4.3819   -0.6136   -0.5865 N   0  0  0  0  0  0  0  0  0  0  0  0
   -0.4277    0.1292   -0.8433 H   0  0  0  0  0  0  0  0  0  0  0  0
    3.2548   -0.4591    1.3255 H   0  0  0  0  0  0  0  0  0  0  0  0
    1.9946   -0.2899    3.4790 H   0  0  0  0  0  0  0  0  0  0  0  0
   -1.6751    0.2990    1.3128 H   0  0  0  0  0  0  0  0  0  0  0  0
   -0.5360   -1.4057    5.6392 H   0  0  0  0  0  0  0  0  0  0  0  0
   -1.3558   -3.4154    4.3399 H   0  0  0  0  0  0  0  0  0  0  0  0
   -1.9599   -2.2499    3.1654 H   0  0  0  0  0  0  0  0  0  0  0  0
   -3.4523   -1.2486    4.9176 H   0  0  0  0  0  0  0  0  0  0  0  0
   -2.8744   -2.4439    6.0952 H   0  0  0  0  0  0  0  0  0  0  0  0
   -3.7333   -4.3078    4.6182 H   0  0  0  0  0  0  0  0  0  0  0  0
   -4.3095   -3.1109    3.4525 H   0  0  0  0  0  0  0  0  0  0  0  0
   -4.8804   -4.6522    6.6597 H   0  0  0  0  0  0  0  0  0  0  0  0
   -6.4390   -3.8374    6.9360 H   0  0  0  0  0  0  0  0  0  0  0  0
   -4.9179   -2.9728    7.2753 H   0  0  0  0  0  0  0  0  0  0  0  0
   -6.2167   -1.7878    3.9208 H   0  0  0  0  0  0  0  0  0  0  0  0
   -5.7739   -1.1496    5.5293 H   0  0  0  0  0  0  0  0  0  0  0  0
   -7.2202   -2.1768    5.3402 H   0  0  0  0  0  0  0  0  0  0  0  0
    1.5128   -0.1568   -1.9491 H   0  0  0  0  0  0  0  0  0  0  0  0
    2.9453   -0.3174   -5.4896 H   0  0  0  0  0  0  0  0  0  0  0  0
    6.5531   -0.7953   -8.8603 H   0  0  0  0  0  0  0  0  0  0  0  0
    8.9364   -1.1620   -8.0427 H   0  0  0  0  0  0  0  0  0  0  0  0
    9.3437   -1.2647   -5.5600 H   0  0  0  0  0  0  0  0  0  0  0  0
    6.9586   -0.9603   -2.7571 H   0  0  0  0  0  0  0  0  0  0  0  0
    6.4037   -0.9208   -0.2902 H   0  0  0  0  0  0  0  0  0  0  0  0
  1  2  2  0
  1  6  1  0
  1 33  1  0
  2  3  1  0
  2 17  1  0
  3  4  2  0
  3 34  1  0
  4  5  1  0
  4 35  1  0
  5  6  2  0
  5  7  1  0
  6 36  1  0
  7  8  2  0
  7  9  2  0
  7 10  1  0
 10 11  1  0
 10 37  1  0
 11 12  1  0
 11 38  1  0
 11 39  1  0
 12 13  1  0
 12 40  1  0
 12 41  1  0
 13 14  1  0
 13 42  1  0
 13 43  1  0
 14 15  1  0
 14 16  1  0
 15 44  1  0
 15 45  1  0
 15 46  1  0
 16 47  1  0
 16 48  1  0
 16 49  1  0
 17 18  1  0
 17 50  1  0
 18 19  2  0
 18 32  1  0
 19 20  1  0
 20 21  1  0
 20 30  2  0
 21 22  2  0
 21 29  1  0
 22 23  1  0
 22 51  1  0
 23 24  2  0
 24 25  1  0
 24 29  1  0
 25 26  2  0
 25 52  1  0
 26 27  1  0
 26 53  1  0
 27 28  2  0
 27 54  1  0
 28 29  1  0
 30 31  1  0
 30 55  1  0
 31 32  2  0
 31 56  1  0
M  END

