56
rmsd13.gzmat
C          0.00000        0.00000        0.00000
C          1.40960        0.00000        0.00000
C          2.11280        0.00000        1.21150
C          1.40960        0.04180        2.41080
C          0.01600        0.07790        2.41220
C         -0.68500        0.04170        1.20700
S         -0.85930        0.18770        3.92960
O         -2.27550        0.24590        3.61670
O         -0.36370       -0.79800        4.86400
N         -0.34320        1.73310        4.54830
C         -0.86510        2.93970        3.88250
C         -2.29940        3.32330        4.29920
C         -2.38010        3.81940        5.75560
N         -2.09320        2.71570        6.70940
C         -1.75490        3.25440        8.04460
C         -3.22900        1.77460        6.80850
N          2.03790       -0.04780       -1.26030
C          3.30530        0.41830       -1.56090
N          4.09950        0.97160       -0.60590
C          5.32310        1.42130       -0.99440
C          6.10060        2.00920        0.07490
C          5.67920        2.29560        1.40080
N          6.69200        2.84870        2.13030
C          7.77610        2.93190        1.31740
C          9.09650        3.40910        1.51250
C          9.96260        3.34720        0.45590
C          9.50880        2.81140       -0.79090
N          8.28190        2.35870       -1.00530
N          7.43270        2.41760        0.02810
C          5.74820        1.31710       -2.32430
C          4.86580        0.72910       -3.24190
N          3.65460        0.28150       -2.88770
H         -0.55120       -0.01960       -0.93550
H          3.20370       -0.03220        1.22530
H          1.97310        0.04720        3.35190
H         -1.78330        0.05080        1.19830
H         -0.47450        1.82430        5.57010
H         -0.80950        2.82530        2.77720
H         -0.16450        3.77040        4.14080
H         -2.98260        2.45980        4.14500
H         -2.67660        4.11590        3.62760
H         -3.37360        4.28340        5.93430
H         -1.62490        4.62110        5.90890
H         -0.85520        3.88610        7.96510
H         -1.50010        2.41330        8.71220
H         -2.55530        3.84220        8.51680
H         -3.43030        1.33650        5.81130
H         -4.15960        2.22010        7.18580
H         -2.94570        0.93640        7.46750
H          1.47820       -0.35560       -2.05980
H          4.69650        2.12020        1.82010
H          9.36950        3.80560        2.49310
H         10.99040        3.69730        0.53540
H         10.18590        2.75170       -1.65570
H          6.72290        1.67550       -2.64230
H          5.12760        0.61090       -4.30260
