rmsd13.gzmat
 OpenBabel08211713423D

 56 59  0  0  1  0  0  0  0  0999 V2000
    0.0000    0.0000    0.0000 C   0  0  0  0  0  0  0  0  0  0  0  0
    1.4096    0.0000    0.0000 C   0  0  0  0  0  0  0  0  0  0  0  0
    2.1128    0.0000    1.2115 C   0  0  0  0  0  0  0  0  0  0  0  0
    1.4096    0.0418    2.4108 C   0  0  0  0  0  0  0  0  0  0  0  0
    0.0160    0.0779    2.4122 C   0  0  0  0  0  0  0  0  0  0  0  0
   -0.6850    0.0417    1.2070 C   0  0  0  0  0  0  0  0  0  0  0  0
   -0.8593    0.1877    3.9296 S   0  0  0  0  0  0  0  0  0  0  0  0
   -2.2755    0.2459    3.6167 O   0  0  0  0  0  0  0  0  0  0  0  0
   -0.3637   -0.7980    4.8640 O   0  0  0  0  0  0  0  0  0  0  0  0
   -0.3432    1.7331    4.5483 N   0  0  0  0  0  0  0  0  0  0  0  0
   -0.8651    2.9397    3.8825 C   0  0  0  0  0  0  0  0  0  0  0  0
   -2.2994    3.3233    4.2992 C   0  0  0  0  0  0  0  0  0  0  0  0
   -2.3801    3.8194    5.7556 C   0  0  0  0  0  0  0  0  0  0  0  0
   -2.0932    2.7157    6.7094 N   0  0  0  0  0  0  0  0  0  0  0  0
   -1.7549    3.2544    8.0446 C   0  0  0  0  0  0  0  0  0  0  0  0
   -3.2290    1.7746    6.8085 C   0  0  0  0  0  0  0  0  0  0  0  0
    2.0379   -0.0478   -1.2603 N   0  0  0  0  0  0  0  0  0  0  0  0
    3.3053    0.4183   -1.5609 C   0  0  0  0  0  0  0  0  0  0  0  0
    4.0995    0.9716   -0.6059 N   0  0  0  0  0  0  0  0  0  0  0  0
    5.3231    1.4213   -0.9944 C   0  0  0  0  0  0  0  0  0  0  0  0
    6.1006    2.0092    0.0749 C   0  0  1  0  0  0  0  0  0  0  0  0
    5.6792    2.2956    1.4008 C   0  0  0  0  0  0  0  0  0  0  0  0
    6.6920    2.8487    2.1303 N   0  0  0  0  0  0  0  0  0  0  0  0
    7.7761    2.9319    1.3174 C   0  0  0  0  0  0  0  0  0  0  0  0
    9.0965    3.4091    1.5125 C   0  0  0  0  0  0  0  0  0  0  0  0
    9.9626    3.3472    0.4559 C   0  0  0  0  0  0  0  0  0  0  0  0
    9.5088    2.8114   -0.7909 C   0  0  0  0  0  0  0  0  0  0  0  0
    8.2819    2.3587   -1.0053 N   0  0  0  0  0  0  0  0  0  0  0  0
    7.4327    2.4176    0.0281 N   0  0  0  0  0  0  0  0  0  0  0  0
    5.7482    1.3171   -2.3243 C   0  0  0  0  0  0  0  0  0  0  0  0
    4.8658    0.7291   -3.2419 C   0  0  0  0  0  0  0  0  0  0  0  0
    3.6546    0.2815   -2.8877 N   0  0  0  0  0  0  0  0  0  0  0  0
   -0.5512   -0.0196   -0.9355 H   0  0  0  0  0  0  0  0  0  0  0  0
    3.2037   -0.0322    1.2253 H   0  0  0  0  0  0  0  0  0  0  0  0
    1.9731    0.0472    3.3519 H   0  0  0  0  0  0  0  0  0  0  0  0
   -1.7833    0.0508    1.1983 H   0  0  0  0  0  0  0  0  0  0  0  0
   -0.4745    1.8243    5.5701 H   0  0  0  0  0  0  0  0  0  0  0  0
   -0.8095    2.8253    2.7772 H   0  0  0  0  0  0  0  0  0  0  0  0
   -0.1645    3.7704    4.1408 H   0  0  0  0  0  0  0  0  0  0  0  0
   -2.9826    2.4598    4.1450 H   0  0  0  0  0  0  0  0  0  0  0  0
   -2.6766    4.1159    3.6276 H   0  0  0  0  0  0  0  0  0  0  0  0
   -3.3736    4.2834    5.9343 H   0  0  0  0  0  0  0  0  0  0  0  0
   -1.6249    4.6211    5.9089 H   0  0  0  0  0  0  0  0  0  0  0  0
   -0.8552    3.8861    7.9651 H   0  0  0  0  0  0  0  0  0  0  0  0
   -1.5001    2.4133    8.7122 H   0  0  0  0  0  0  0  0  0  0  0  0
   -2.5553    3.8422    8.5168 H   0  0  0  0  0  0  0  0  0  0  0  0
   -3.4303    1.3365    5.8113 H   0  0  0  0  0  0  0  0  0  0  0  0
   -4.1596    2.2201    7.1858 H   0  0  0  0  0  0  0  0  0  0  0  0
   -2.9457    0.9364    7.4675 H   0  0  0  0  0  0  0  0  0  0  0  0
    1.4782   -0.3556   -2.0598 H   0  0  0  0  0  0  0  0  0  0  0  0
    4.6965    2.1202    1.8201 H   0  0  0  0  0  0  0  0  0  0  0  0
    9.3695    3.8056    2.4931 H   0  0  0  0  0  0  0  0  0  0  0  0
   10.9904    3.6973    0.5354 H   0  0  0  0  0  0  0  0  0  0  0  0
   10.1859    2.7517   -1.6557 H   0  0  0  0  0  0  0  0  0  0  0  0
    6.7229    1.6755   -2.6423 H   0  0  0  0  0  0  0  0  0  0  0  0
    5.1276    0.6109   -4.3026 H   0  0  0  0  0  0  0  0  0  0  0  0
  1  2  2  0  0  0  0
  1  6  1  0  0  0  0
  2  3  1  0  0  0  0
  3 34  1  0  0  0  0
  3  4  2  0  0  0  0
  4  5  1  0  0  0  0
  4 35  1  0  0  0  0
  5  7  1  0  0  0  0
  6  5  2  0  0  0  0
  7 10  1  0  0  0  0
  7  9  2  0  0  0  0
  8  7  2  0  0  0  0
 10 37  1  0  0  0  0
 11 39  1  0  0  0  0
 11 12  1  0  0  0  0
 11 10  1  0  0  0  0
 12 13  1  0  0  0  0
 13 43  1  0  0  0  0
 13 42  1  0  0  0  0
 13 14  1  0  0  0  0
 14 16  1  0  0  0  0
 14 15  1  0  0  0  0
 15 46  1  0  0  0  0
 15 45  1  0  0  0  0
 16 48  1  0  0  0  0
 16 49  1  0  0  0  0
 17  2  1  0  0  0  0
 18 17  1  0  0  0  0
 18 19  2  0  0  0  0
 20 19  2  0  0  0  0
 21 20  1  1  0  0  0
 21 22  1  0  0  0  0
 22 51  1  0  0  0  0
 22 23  2  0  0  0  0
 24 25  1  0  0  0  0
 24 23  2  0  0  0  0
 25 52  1  0  0  0  0
 26 53  1  0  0  0  0
 26 25  2  0  0  0  0
 27 26  1  0  0  0  0
 28 27  2  0  0  0  0
 28 29  1  0  0  0  0
 29 21  1  0  0  0  0
 29 24  1  0  0  0  0
 30 20  1  0  0  0  0
 31 32  2  0  0  0  0
 31 30  1  0  0  0  0
 32 18  2  0  0  0  0
 33  1  1  0  0  0  0
 36  6  1  0  0  0  0
 38 11  1  0  0  0  0
 40 12  1  0  0  0  0
 41 12  1  0  0  0  0
 44 15  1  0  0  0  0
 47 16  1  0  0  0  0
 50 17  1  0  0  0  0
 54 27  1  0  0  0  0
 55 30  1  0  0  0  0
 56 31  1  0  0  0  0
M  RAD  2  21   2  30   2
M  END
$$$$
