56
rmsd92.gzmat
C          0.00000        0.00000        0.00000
C          1.41210        0.00000        0.00000
C          2.10780        0.00000        1.21670
C          1.40140        0.01920        2.41320
C          0.00670        0.04010        2.41410
C         -0.68890        0.01930        1.20470
S         -0.85740        0.09310        3.93130
O         -2.09110       -0.65560        3.83930
O          0.09030       -0.16100        4.99580
N         -1.37740        1.75660        4.03790
C         -0.42300        2.77050        4.50870
C         -0.16020        2.75580        6.02370
C         -1.36190        3.30250        6.81660
N         -1.36020        3.02680        8.26760
C         -1.50200        1.58440        8.55570
C         -0.16560        3.58220        8.93520
N          2.02730       -0.03660       -1.26190
C          3.36320        0.18310       -1.55910
N          3.66060        0.00540       -2.88700
C          4.94120        0.21550       -3.27380
C          5.18590       -0.01010       -4.68130
C          4.26430       -0.48330       -5.65410
N          4.84950       -0.57480       -6.88320
C          6.13910       -0.17120       -6.74710
C          7.21400       -0.04960       -7.66310
C          8.41370        0.40220       -7.18620
C          8.53580        0.73080       -5.79890
N          7.55080        0.62750       -4.91780
N          6.37590        0.18490       -5.38230
C          5.92310        0.61080       -2.34850
C          5.53040        0.76790       -1.01790
N          4.26570        0.55790       -0.60690
H         -0.55070       -0.00820       -0.93640
H          3.19940       -0.01620        1.24090
H          1.96460        0.00740        3.35660
H         -1.78560        0.01520        1.18940
H         -2.30390        1.88070        4.44100
H         -0.82130        3.76760        4.20250
H          0.53990        2.65020        3.96010
H          0.74210        3.35180        6.24730
H          0.08750        1.72520        6.35970
H         -2.31380        2.89510        6.40930
H         -1.42450        4.40670        6.69250
H         -2.42680        1.20960        8.08610
H         -1.60810        1.44760        9.64460
H         -0.66540        0.95950        8.20550
H         -0.11740        4.66680        8.74500
H          0.78730        3.12960        8.62250
H         -0.27350        3.44580       10.02490
H          1.43030       -0.23520       -2.07260
H          3.22800       -0.74850       -5.48740
H          7.04240       -0.31920       -8.70800
H          9.28110        0.52020       -7.83380
H          9.48930        1.09730       -5.39090
H          6.95090        0.78820       -2.65280
H          6.23690        1.07210       -0.23290
