56

C          0.16150       -0.17110        0.38650
C          1.53240       -0.49310        0.30170
C          2.25830       -0.71160        1.49210
C          1.61920       -0.61110        2.72270
C          0.25810       -0.30060        2.78540
C         -0.47410       -0.07240        1.61890
S         -0.53370       -0.15350        4.37280
O          0.30890        0.64250        5.27030
O         -1.92820        0.25550        4.11390
N         -0.44830       -1.71610        4.97120
C         -1.52210       -2.64880        4.61260
C         -2.78890       -2.50510        5.46400
C         -2.55170       -2.72800        6.96060
N         -1.60140       -1.79020        7.56630
C         -2.11240       -0.42660        7.63640
C         -1.13590       -2.25250        8.86160
N          2.08650       -0.56700       -0.97160
C          3.34950       -0.88340       -1.42060
N          4.31140       -1.21950       -0.56510
C          5.52320       -1.51820       -1.07480
C          6.52860       -1.88650       -0.08650
C          6.38930       -1.99850        1.30440
N          7.53570       -2.36710        1.91160
C          8.43140       -2.49950        0.93650
C          9.79200       -2.85940        0.95420
C         10.46460       -2.90850       -0.24650
C          9.75980       -2.59610       -1.44110
N          8.49300       -2.25710       -1.49280
N          7.85260       -2.21320       -0.31890
C          5.75670       -1.47140       -2.45820
C          4.66740       -1.10730       -3.25450
N          3.47050       -0.81400       -2.76400
H         -0.40630        0.00530       -0.53100
H          3.31420       -0.95290        1.42490
H          2.17790       -0.77350        3.64600
H         -1.53170        0.18370        1.69250
H         -0.37770       -1.64260        6.00100
H         -1.11030       -3.66740        4.71980
H         -1.76170       -2.52010        3.54550
H         -3.52770       -3.25130        5.12550
H         -3.23330       -1.51710        5.27590
H         -2.14540       -3.74370        7.10630
H         -3.52740       -2.70250        7.49790
H         -2.37750       -0.05440        6.63830
H         -1.33100        0.23870        8.03120
H         -3.00880       -0.34870        8.29030
H         -0.67110       -3.24610        8.76650
H         -1.95540       -2.32830        9.61140
H         -0.38050       -1.55700        9.25740
H          1.46560       -0.34860       -1.74320
H          5.47100       -1.81790        1.85930
H         10.26070       -3.08460        1.91280
H         11.51960       -3.18040       -0.29880
H         10.26460       -2.62620       -2.41040
H          6.73140       -1.70770       -2.87540
H          4.77600       -1.05270       -4.34410
