
     RDKit          3D

 56 59  0  0  0  0  0  0  0  0999 V2000
   -0.2889    0.7036   -0.0888 C   0  0  0  0  0  0  0  0  0  0  0  0
    1.1138    0.5969   -0.0352 C   0  0  0  0  0  0  0  0  0  0  0  0
    1.7281    0.2511    1.1912 C   0  0  0  0  0  0  0  0  0  0  0  0
    0.9705    0.0260    2.3299 C   0  0  0  0  0  0  0  0  0  0  0  0
   -0.4218    0.1481    2.2601 C   0  0  0  0  0  0  0  0  0  0  0  0
   -1.0480    0.4755    1.0581 C   0  0  0  0  0  0  0  0  0  0  0  0
   -1.3942   -0.1436    3.7215 S   0  0  0  0  0  0  0  0  0  0  0  0
   -2.8029   -0.1587    3.3031 O   0  0  0  0  0  0  0  0  0  0  0  0
   -0.8126   -1.2561    4.4767 O   0  0  0  0  0  0  0  0  0  0  0  0
   -1.0614    1.2175    4.6569 N   0  0  0  0  0  0  0  0  0  0  0  0
   -1.8738    2.4178    4.4687 C   0  0  0  0  0  0  0  0  0  0  0  0
   -3.2260    2.3984    5.1788 C   0  0  0  0  0  0  0  0  0  0  0  0
   -4.0316    3.6798    4.9102 C   0  0  0  0  0  0  0  0  0  0  0  0
   -5.3426    3.7706    5.5293 N   0  0  0  0  0  0  0  0  0  0  0  0
   -6.3073    2.8094    5.0397 C   0  0  0  0  0  0  0  0  0  0  0  0
   -5.3253    3.8768    6.9708 C   0  0  0  0  0  0  0  0  0  0  0  0
    1.9544    0.8019   -1.1228 N   0  0  0  0  0  0  0  0  0  0  0  0
    1.7123    1.1714   -2.4281 C   0  0  0  0  0  0  0  0  0  0  0  0
    0.4742    1.4220   -2.8445 N   0  0  0  0  0  0  0  0  0  0  0  0
    0.3104    1.7803   -4.1342 C   0  0  0  0  0  0  0  0  0  0  0  0
   -1.0673    2.0479   -4.5247 C   0  0  0  0  0  0  0  0  0  0  0  0
   -2.2256    2.0046   -3.7354 C   0  0  0  0  0  0  0  0  0  0  0  0
   -3.3383    2.3154   -4.4310 N   0  0  0  0  0  0  0  0  0  0  0  0
   -2.9276    2.5635   -5.6722 C   0  0  0  0  0  0  0  0  0  0  0  0
   -3.6273    2.9335   -6.8361 C   0  0  0  0  0  0  0  0  0  0  0  0
   -2.9052    3.1217   -7.9934 C   0  0  0  0  0  0  0  0  0  0  0  0
   -1.4961    2.9355   -7.9610 C   0  0  0  0  0  0  0  0  0  0  0  0
   -0.8135    2.5911   -6.8942 N   0  0  0  0  0  0  0  0  0  0  0  0
   -1.5282    2.4114   -5.7776 N   0  0  0  0  0  0  0  0  0  0  0  0
    1.4102    1.8805   -5.0008 C   0  0  0  0  0  0  0  0  0  0  0  0
    2.6604    1.5942   -4.4457 C   0  0  0  0  0  0  0  0  0  0  0  0
    2.8327    1.2431   -3.1780 N   0  0  0  0  0  0  0  0  0  0  0  0
   -0.7604    0.9593   -1.0321 H   0  0  0  0  0  0  0  0  0  0  0  0
    2.8164    0.1565    1.2370 H   0  0  0  0  0  0  0  0  0  0  0  0
    1.4462   -0.2492    3.2724 H   0  0  0  0  0  0  0  0  0  0  0  0
   -2.1366    0.5404    1.0261 H   0  0  0  0  0  0  0  0  0  0  0  0
   -0.9412    0.9102    5.6221 H   0  0  0  0  0  0  0  0  0  0  0  0
   -2.0156    2.5520    3.3837 H   0  0  0  0  0  0  0  0  0  0  0  0
   -1.2718    3.2801    4.8043 H   0  0  0  0  0  0  0  0  0  0  0  0
   -3.0584    2.2773    6.2640 H   0  0  0  0  0  0  0  0  0  0  0  0
   -3.7830    1.5145    4.8347 H   0  0  0  0  0  0  0  0  0  0  0  0
   -4.1651    3.7884    3.8185 H   0  0  0  0  0  0  0  0  0  0  0  0
   -3.4409    4.5556    5.2364 H   0  0  0  0  0  0  0  0  0  0  0  0
   -6.3204    2.8165    3.9382 H   0  0  0  0  0  0  0  0  0  0  0  0
   -7.3166    3.0813    5.3908 H   0  0  0  0  0  0  0  0  0  0  0  0
   -6.1157    1.7623    5.3656 H   0  0  0  0  0  0  0  0  0  0  0  0
   -4.6248    4.6685    7.2829 H   0  0  0  0  0  0  0  0  0  0  0  0
   -5.0316    2.9396    7.4974 H   0  0  0  0  0  0  0  0  0  0  0  0
   -6.3278    4.1523    7.3380 H   0  0  0  0  0  0  0  0  0  0  0  0
    2.9449    0.6589   -0.9582 H   0  0  0  0  0  0  0  0  0  0  0  0
   -2.2545    1.7541   -2.6769 H   0  0  0  0  0  0  0  0  0  0  0  0
   -4.7094    3.0565   -6.7786 H   0  0  0  0  0  0  0  0  0  0  0  0
   -3.3894    3.4086   -8.9277 H   0  0  0  0  0  0  0  0  0  0  0  0
   -0.8940    3.0775   -8.8625 H   0  0  0  0  0  0  0  0  0  0  0  0
    1.2855    2.1658   -6.0414 H   0  0  0  0  0  0  0  0  0  0  0  0
    3.5640    1.6543   -5.0635 H   0  0  0  0  0  0  0  0  0  0  0  0
  1  2  2  0
  1  6  1  0
  1 33  1  0
  2  3  1  0
  2 17  1  0
  3  4  2  0
  3 34  1  0
  4  5  1  0
  4 35  1  0
  5  6  2  0
  5  7  1  0
  6 36  1  0
  7  8  2  0
  7  9  2  0
  7 10  1  0
 10 11  1  0
 10 37  1  0
 11 12  1  0
 11 38  1  0
 11 39  1  0
 12 13  1  0
 12 40  1  0
 12 41  1  0
 13 14  1  0
 13 42  1  0
 13 43  1  0
 14 15  1  0
 14 16  1  0
 15 44  1  0
 15 45  1  0
 15 46  1  0
 16 47  1  0
 16 48  1  0
 16 49  1  0
 17 18  1  0
 17 50  1  0
 18 19  2  0
 18 32  1  0
 19 20  1  0
 20 21  1  0
 20 30  2  0
 21 22  2  0
 21 29  1  0
 22 23  1  0
 22 51  1  0
 23 24  2  0
 24 25  1  0
 24 29  1  0
 25 26  2  0
 25 52  1  0
 26 27  1  0
 26 53  1  0
 27 28  2  0
 27 54  1  0
 28 29  1  0
 30 31  1  0
 30 55  1  0
 31 32  2  0
 31 56  1  0
M  END

