rmsd162.gzmat
 OpenBabel08211713423D

 56 59  0  0  1  0  0  0  0  0999 V2000
    0.0000    0.0000    0.0000 C   0  0  0  0  0  0  0  0  0  0  0  0
    1.4011    0.0000    0.0000 C   0  0  0  0  0  0  0  0  0  0  0  0
    2.1013    0.0000    1.2276 C   0  0  0  0  0  0  0  0  0  0  0  0
    1.3977    0.0143    2.4232 C   0  0  0  0  0  0  0  0  0  0  0  0
    0.0026    0.0352    2.4190 C   0  0  0  0  0  0  0  0  0  0  0  0
   -0.6879    0.0150    1.2074 C   0  0  0  0  0  0  0  0  0  0  0  0
   -0.8829    0.0829    3.9234 S   0  0  0  0  0  0  0  0  0  0  0  0
   -2.2635   -0.2495    3.6430 O   0  0  0  0  0  0  0  0  0  0  0  0
   -0.1408   -0.5994    4.9604 O   0  0  0  0  0  0  0  0  0  0  0  0
   -0.8083    1.7640    4.3884 N   0  0  0  0  0  0  0  0  0  0  0  0
   -1.8111    2.6975    3.8580 C   0  0  0  0  0  0  0  0  0  0  0  0
   -3.2057    2.5423    4.4889 C   0  0  0  0  0  0  0  0  0  0  0  0
   -4.1483    3.6432    3.9684 C   0  0  0  0  0  0  0  0  0  0  0  0
   -5.5883    3.4396    4.2254 N   0  0  0  0  0  0  0  0  0  0  0  0
   -6.1215    2.2803    3.4796 C   0  0  0  0  0  0  0  0  0  0  0  0
   -5.8830    3.3124    5.6673 C   0  0  0  0  0  0  0  0  0  0  0  0
    2.1994    0.0161   -1.1541 N   0  0  0  0  0  0  0  0  0  0  0  0
    1.7903   -0.0210   -2.4785 C   0  0  0  0  0  0  0  0  0  0  0  0
    2.8204    0.1648   -3.3664 N   0  0  0  0  0  0  0  0  0  0  0  0
    2.5221    0.1296   -4.6866 C   0  0  0  0  0  0  0  0  0  0  0  0
    3.6524    0.3505   -5.5618 C   0  0  2  0  0  0  0  0  0  0  0  0
    5.0009    0.5995   -5.1885 C   0  0  0  0  0  0  0  0  0  0  0  0
    5.7932    0.7663   -6.2866 N   0  0  0  0  0  0  0  0  0  0  0  0
    4.9993    0.6333   -7.3805 C   0  0  0  0  0  0  0  0  0  0  0  0
    5.2560    0.7022   -8.7730 C   0  0  0  0  0  0  0  0  0  0  0  0
    4.2045    0.5159   -9.6275 C   0  0  0  0  0  0  0  0  0  0  0  0
    2.9029    0.2627   -9.0898 C   0  0  0  0  0  0  0  0  0  0  0  0
    2.6315    0.1923   -7.7942 N   0  0  0  0  0  0  0  0  0  0  0  0
    3.6593    0.3739   -6.9560 N   0  0  0  0  0  0  0  0  0  0  0  0
    1.2065   -0.0987   -5.1269 C   0  0  0  0  0  0  0  0  0  0  0  0
    0.2220   -0.2778   -4.1536 C   0  0  0  0  0  0  0  0  0  0  0  0
    0.4919   -0.2382   -2.8352 N   0  0  0  0  0  0  0  0  0  0  0  0
   -0.5654   -0.0163   -0.9345 H   0  0  0  0  0  0  0  0  0  0  0  0
    3.1877   -0.0142    1.2413 H   0  0  0  0  0  0  0  0  0  0  0  0
    1.9545    0.0039    3.3682 H   0  0  0  0  0  0  0  0  0  0  0  0
   -1.7863    0.0026    1.1865 H   0  0  0  0  0  0  0  0  0  0  0  0
   -0.6108    1.9208    5.3744 H   0  0  0  0  0  0  0  0  0  0  0  0
   -1.8768    2.5789    2.7522 H   0  0  0  0  0  0  0  0  0  0  0  0
   -1.4276    3.7311    4.0331 H   0  0  0  0  0  0  0  0  0  0  0  0
   -3.1431    2.5793    5.5893 H   0  0  0  0  0  0  0  0  0  0  0  0
   -3.6225    1.5402    4.2459 H   0  0  0  0  0  0  0  0  0  0  0  0
   -4.0249    3.7629    2.8683 H   0  0  0  0  0  0  0  0  0  0  0  0
   -3.8716    4.6238    4.4160 H   0  0  0  0  0  0  0  0  0  0  0  0
   -5.9094    2.4103    2.4060 H   0  0  0  0  0  0  0  0  0  0  0  0
   -7.2173    2.2572    3.5986 H   0  0  0  0  0  0  0  0  0  0  0  0
   -5.7150    1.3057    3.7931 H   0  0  0  0  0  0  0  0  0  0  0  0
   -5.4817    4.1893    6.2001 H   0  0  0  0  0  0  0  0  0  0  0  0
   -5.4808    2.4032    6.1383 H   0  0  0  0  0  0  0  0  0  0  0  0
   -6.9780    3.3186    5.8030 H   0  0  0  0  0  0  0  0  0  0  0  0
    3.2132    0.1152   -1.0214 H   0  0  0  0  0  0  0  0  0  0  0  0
    5.3930    0.6589   -4.1813 H   0  0  0  0  0  0  0  0  0  0  0  0
    6.2778    0.8995   -9.1060 H   0  0  0  0  0  0  0  0  0  0  0  0
    4.3298    0.5542  -10.7085 H   0  0  0  0  0  0  0  0  0  0  0  0
    2.0399    0.1098   -9.7547 H   0  0  0  0  0  0  0  0  0  0  0  0
    0.9598   -0.1362   -6.1845 H   0  0  0  0  0  0  0  0  0  0  0  0
   -0.8297   -0.4619   -4.4135 H   0  0  0  0  0  0  0  0  0  0  0  0
  1  2  2  0  0  0  0
  1  6  1  0  0  0  0
  2  3  1  0  0  0  0
  3 34  1  0  0  0  0
  3  4  2  0  0  0  0
  4 35  1  0  0  0  0
  5  4  1  0  0  0  0
  5  7  1  0  0  0  0
  6  5  2  0  0  0  0
  7 10  1  0  0  0  0
  7  9  2  0  0  0  0
  8  7  2  0  0  0  0
 10 37  1  0  0  0  0
 11 39  1  0  0  0  0
 11 10  1  0  0  0  0
 11 12  1  0  0  0  0
 12 40  1  0  0  0  0
 13 14  1  0  0  0  0
 13 43  1  0  0  0  0
 13 12  1  0  0  0  0
 14 16  1  0  0  0  0
 15 45  1  0  0  0  0
 15 46  1  0  0  0  0
 15 14  1  0  0  0  0
 16 49  1  0  0  0  0
 16 48  1  0  0  0  0
 16 47  1  0  0  0  0
 17 50  1  0  0  0  0
 17  2  1  0  0  0  0
 18 17  1  0  0  0  0
 19 18  2  0  0  0  0
 20 19  2  0  0  0  0
 21 22  1  0  0  0  0
 21 20  1  1  0  0  0
 22 51  1  0  0  0  0
 23 22  2  0  0  0  0
 24 29  1  0  0  0  0
 24 23  2  0  0  0  0
 25 24  1  0  0  0  0
 26 27  1  0  0  0  0
 26 25  2  0  0  0  0
 27 28  2  0  0  0  0
 28 29  1  0  0  0  0
 29 21  1  0  0  0  0
 30 20  1  0  0  0  0
 30 31  1  0  0  0  0
 31 32  2  0  0  0  0
 32 18  2  0  0  0  0
 33  1  1  0  0  0  0
 36  6  1  0  0  0  0
 38 11  1  0  0  0  0
 41 12  1  0  0  0  0
 42 13  1  0  0  0  0
 44 15  1  0  0  0  0
 52 25  1  0  0  0  0
 53 26  1  0  0  0  0
 54 27  1  0  0  0  0
 55 30  1  0  0  0  0
 56 31  1  0  0  0  0
M  RAD  2  21   2  30   2
M  END
$$$$
