
     RDKit          3D

 36 37  0  0  0  0  0  0  0  0999 V2000
    0.0562   -0.0375   -0.0714 C   0  0  0  0  0  0  0  0  0  0  0  0
    1.5410   -0.0613    0.1663 C   0  0  0  0  0  0  0  0  0  0  0  0
    1.9369   -0.0386    1.6517 C   0  0  0  0  0  0  0  0  0  0  0  0
    1.7156   -1.3568    2.3570 C   0  0  0  0  0  0  0  0  0  0  0  0
    1.8339   -2.4486    1.8523 O   0  0  0  0  0  0  0  0  0  0  0  0
    1.4060   -1.1955    3.6559 O   0  0  0  0  0  0  0  0  0  0  0  0
   -0.7497    1.0655    0.0043 C   0  0  0  0  0  0  0  0  0  0  0  0
   -2.1477    0.7101   -0.2603 C   0  0  0  0  0  0  0  0  0  0  0  0
   -2.1908   -0.6278   -0.5572 C   0  0  0  0  0  0  0  0  0  0  0  0
   -3.1948   -1.6844   -0.7177 C   0  0  0  0  0  0  0  0  0  0  0  0
   -2.8353   -2.6125   -1.6363 C   0  0  0  0  0  0  0  0  0  0  0  0
   -2.3545   -3.9249   -1.1594 C   0  0  0  0  0  0  0  0  0  0  0  0
   -1.1261   -3.7779   -0.5912 C   0  0  0  0  0  0  0  0  0  0  0  0
   -0.4123   -2.5048   -0.3898 C   0  0  0  0  0  0  0  0  0  0  0  0
   -0.8118   -1.1831   -0.4097 C   0  0  0  0  0  0  0  0  0  0  0  0
   -3.2569    1.7144   -0.2275 C   0  0  0  0  0  0  0  0  0  0  0  0
   -4.6499    1.1417   -0.4532 C   0  0  0  0  0  0  0  0  0  0  0  0
   -5.7193    2.2063   -0.4978 C   0  0  0  0  0  0  0  0  0  0  0  0
   -5.5324    3.3978   -0.4678 O   0  0  0  0  0  0  0  0  0  0  0  0
   -6.9535    1.6685   -0.5861 O   0  0  0  0  0  0  0  0  0  0  0  0
    1.9902    0.8230   -0.3130 H   0  0  0  0  0  0  0  0  0  0  0  0
    2.0000   -0.9416   -0.3070 H   0  0  0  0  0  0  0  0  0  0  0  0
    1.4098    0.7573    2.1962 H   0  0  0  0  0  0  0  0  0  0  0  0
    3.0178    0.1720    1.7462 H   0  0  0  0  0  0  0  0  0  0  0  0
    1.3220   -2.0874    4.0363 H   0  0  0  0  0  0  0  0  0  0  0  0
   -0.4144    2.0833    0.2171 H   0  0  0  0  0  0  0  0  0  0  0  0
   -3.7874   -1.9791    0.1602 H   0  0  0  0  0  0  0  0  0  0  0  0
   -2.2078   -2.2223   -2.4524 H   0  0  0  0  0  0  0  0  0  0  0  0
   -2.8309   -4.9033   -1.2784 H   0  0  0  0  0  0  0  0  0  0  0  0
   -0.5692   -4.6672   -0.2760 H   0  0  0  0  0  0  0  0  0  0  0  0
    0.6349   -2.6535   -0.1125 H   0  0  0  0  0  0  0  0  0  0  0  0
   -3.0614    2.4984   -0.9808 H   0  0  0  0  0  0  0  0  0  0  0  0
   -3.2338    2.2539    0.7362 H   0  0  0  0  0  0  0  0  0  0  0  0
   -4.9261    0.4150    0.3274 H   0  0  0  0  0  0  0  0  0  0  0  0
   -4.7030    0.5757   -1.3982 H   0  0  0  0  0  0  0  0  0  0  0  0
   -7.5787    2.4125   -0.6235 H   0  0  0  0  0  0  0  0  0  0  0  0
  1  2  1  0
  1  7  2  0
  1 15  1  0
  2  3  1  0
  2 21  1  0
  2 22  1  0
  3  4  1  0
  3 23  1  0
  3 24  1  0
  4  5  2  0
  4  6  1  0
  6 25  1  0
  7  8  1  0
  7 26  1  0
  8  9  2  0
  8 16  1  0
  9 10  1  0
  9 15  1  0
 10 11  2  0
 10 27  1  0
 11 12  1  0
 11 28  1  0
 12 13  2  0
 12 29  1  0
 13 14  1  0
 13 30  1  0
 14 15  2  0
 14 31  1  0
 16 17  1  0
 16 32  1  0
 16 33  1  0
 17 18  1  0
 17 34  1  0
 17 35  1  0
 18 19  2  0
 18 20  1  0
 20 36  1  0
M  END

