36
rmsd183.gzmat
C          0.00000        0.00000        0.00000
C          1.47930        0.00000        0.00000
C          1.99980        0.00000        1.44330
C          3.49130       -0.07020        1.45430
O          4.24920       -0.34500        0.56290
O          3.96020        0.22890        2.69600
C         -0.81890        1.06680       -0.19620
C         -2.22490        0.63350       -0.09160
C         -2.24020       -0.69480        0.16480
C         -3.15340       -1.76800        0.46790
C         -2.99000       -2.84830       -0.33130
C         -2.37480       -3.99850        0.32570
C         -1.10120       -3.72670        0.69220
C         -0.37920       -2.46590        0.45690
C         -0.82530       -1.21100        0.23780
C         -3.37390        1.55160       -0.24130
C         -3.68080        2.21180        1.11010
C         -4.70470        3.28530        0.94080
O         -4.99530        3.91590       -0.04050
O         -5.33310        3.52030        2.12490
H          1.87970        0.88080       -0.54930
H          1.87980       -0.87690       -0.55730
H          1.57930       -0.85550        2.01780
H          1.64700        0.90460        1.98790
H          4.94450        0.19510        2.76970
H         -0.54290        2.08190       -0.40230
H         -3.54900       -1.82040        1.47930
H         -2.85330       -2.77370       -1.40900
H         -2.88500       -4.93860        0.46780
H         -0.49620       -4.49590        1.17830
H          0.71330       -2.61580        0.46350
H         -4.26990        1.00860       -0.61530
H         -3.16600        2.32870       -1.01210
H         -2.75720        2.65030        1.55130
H         -4.02010        1.45260        1.84980
H         -6.01360        4.23420        2.08080
