rmsd142.gzmat
 OpenBabel08211713373D

 36 37  0  0  0  0  0  0  0  0999 V2000
    0.0000    0.0000    0.0000 C   0  0  0  0  0  0  0  0  0  0  0  0
    1.4795    0.0000    0.0000 C   0  0  0  0  0  0  0  0  0  0  0  0
    1.9929    0.0000    1.4465 C   0  0  0  0  0  0  0  0  0  0  0  0
    3.4531    0.3088    1.4773 C   0  0  0  0  0  0  0  0  0  0  0  0
    4.1341    0.8636    0.6560 O   0  0  0  0  0  0  0  0  0  0  0  0
    3.9972   -0.1229    2.6470 O   0  0  0  0  0  0  0  0  0  0  0  0
   -0.8196   -1.0826   -0.0397 C   0  0  0  0  0  0  0  0  0  0  0  0
   -2.2258   -0.6368   -0.0083 C   0  0  0  0  0  0  0  0  0  0  0  0
   -2.2400    0.7144    0.0437 C   0  0  0  0  0  0  0  0  0  0  0  0
   -3.1443    1.8353    0.0098 C   0  0  0  0  0  0  0  0  0  0  0  0
   -2.9912    2.6873    1.0505 C   0  0  0  0  0  0  0  0  0  0  0  0
   -2.3655    3.9583    0.6940 C   0  0  0  0  0  0  0  0  0  0  0  0
   -1.0986    3.7815    0.2535 C   0  0  0  0  0  0  0  0  0  0  0  0
   -0.3776    2.5030    0.1508 C   0  0  0  0  0  0  0  0  0  0  0  0
   -0.8238    1.2324    0.0688 C   0  0  0  0  0  0  0  0  0  0  0  0
   -3.3746   -1.5696   -0.0095 C   0  0  0  0  0  0  0  0  0  0  0  0
   -3.7487   -1.9650    1.4256 C   0  0  0  0  0  0  0  0  0  0  0  0
   -2.7054   -2.8579    2.0171 C   0  0  0  0  0  0  0  0  0  0  0  0
   -1.9570   -3.6281    1.4761 O   0  0  0  0  0  0  0  0  0  0  0  0
   -2.6947   -2.7229    3.3711 O   0  0  0  0  0  0  0  0  0  0  0  0
    1.8828    0.8764   -0.5564 H   0  0  0  0  0  0  0  0  0  0  0  0
    1.8778   -0.8829   -0.5462 H   0  0  0  0  0  0  0  0  0  0  0  0
    1.7815   -0.9768    1.9365 H   0  0  0  0  0  0  0  0  0  0  0  0
    1.4438    0.7477    2.0620 H   0  0  0  0  0  0  0  0  0  0  0  0
    4.9636    0.0614    2.7288 H   0  0  0  0  0  0  0  0  0  0  0  0
   -0.5486   -2.1220   -0.0808 H   0  0  0  0  0  0  0  0  0  0  0  0
   -3.5146    2.1431   -0.9660 H   0  0  0  0  0  0  0  0  0  0  0  0
   -2.8807    2.3565    2.0803 H   0  0  0  0  0  0  0  0  0  0  0  0
   -2.8644    4.9090    0.8024 H   0  0  0  0  0  0  0  0  0  0  0  0
   -0.4956    4.6484   -0.0297 H   0  0  0  0  0  0  0  0  0  0  0  0
    0.7156    2.6518    0.1463 H   0  0  0  0  0  0  0  0  0  0  0  0
   -3.1374   -2.4795   -0.6070 H   0  0  0  0  0  0  0  0  0  0  0  0
   -4.2531   -1.1035   -0.5069 H   0  0  0  0  0  0  0  0  0  0  0  0
   -4.7289   -2.4894    1.4438 H   0  0  0  0  0  0  0  0  0  0  0  0
   -3.8892   -1.0572    2.0557 H   0  0  0  0  0  0  0  0  0  0  0  0
   -2.0282   -3.2929    3.8241 H   0  0  0  0  0  0  0  0  0  0  0  0
  1 15  2  0  0  0  0
  2  1  1  0  0  0  0
  2  3  1  0  0  0  0
  3  4  1  0  0  0  0
  3 23  1  0  0  0  0
  3 24  1  0  0  0  0
  4  6  1  0  0  0  0
  5  4  2  0  0  0  0
  6 25  1  0  0  0  0
  7  8  2  0  0  0  0
  7  1  1  0  0  0  0
  8  9  1  0  0  0  0
  9 15  1  0  0  0  0
 10  9  2  0  0  0  0
 10 11  1  0  0  0  0
 11 28  1  0  0  0  0
 12 29  1  0  0  0  0
 12 11  2  0  0  0  0
 13 12  1  0  0  0  0
 14 13  2  0  0  0  0
 15 14  1  0  0  0  0
 16  8  1  0  0  0  0
 16 17  1  0  0  0  0
 17 34  1  0  0  0  0
 17 18  1  0  0  0  0
 17 35  1  0  0  0  0
 18 20  1  0  0  0  0
 19 18  2  0  0  0  0
 20 36  1  0  0  0  0
 21  2  1  0  0  0  0
 22  2  1  0  0  0  0
 26  7  1  0  0  0  0
 27 10  1  0  0  0  0
 30 13  1  0  0  0  0
 31 14  1  0  0  0  0
 32 16  1  0  0  0  0
 33 16  1  0  0  0  0
M  END
$$$$
