36
rmsd117.gzmat
C          0.00000        0.00000        0.00000
C          1.47950        0.00000        0.00000
C          2.00440        0.00000        1.44150
C          3.49260       -0.12410        1.44650
O          4.24010       -0.38340        0.54150
O          3.97260        0.09900        2.69980
C         -0.81490       -1.07200       -0.18440
C         -2.22370       -0.63930       -0.11020
C         -2.24330        0.69250        0.12490
C         -3.15810        1.80030        0.23960
C         -2.99630        2.50800        1.38220
C         -2.38210        3.82020        1.20040
C         -1.11570        3.71260        0.73630
C         -0.38960        2.46240        0.46310
C         -0.83050        1.20960        0.22270
C         -3.37010       -1.55870       -0.26910
C         -3.46950       -2.02570       -1.72630
C         -4.59760       -2.99080       -1.88380
O         -5.44580       -3.31310       -1.09590
O         -4.57380       -3.52950       -3.13410
H          1.88140        0.87330       -0.55850
H          1.87720       -0.88550       -0.54730
H          1.55760       -0.83970        2.02160
H          1.68480        0.91630        1.98460
H          4.95450        0.01820        2.77050
H         -0.53290       -2.09140       -0.35660
H         -3.55230        2.22160       -0.68250
H         -2.86530        2.03660        2.35460
H         -2.88520        4.74490        1.44000
H         -0.51870        4.61290        0.57010
H          0.70190        2.61670        0.46930
H         -4.32280       -1.07180        0.04050
H         -3.26810       -2.43290        0.41260
H         -2.51560       -2.49020       -2.06220
H         -3.61540       -1.15670       -2.40700
H         -5.29770       -4.17900       -3.30200
