
     RDKit          3D

 36 37  0  0  0  0  0  0  0  0999 V2000
    0.0793   -0.0145   -0.0224 C   0  0  0  0  0  0  0  0  0  0  0  0
    1.5671   -0.0267    0.1492 C   0  0  0  0  0  0  0  0  0  0  0  0
    1.9929   -0.0606    1.6214 C   0  0  0  0  0  0  0  0  0  0  0  0
    3.4900    0.0214    1.8044 C   0  0  0  0  0  0  0  0  0  0  0  0
    4.2944    0.2401    0.9324 O   0  0  0  0  0  0  0  0  0  0  0  0
    3.8474   -0.1684    3.0911 O   0  0  0  0  0  0  0  0  0  0  0  0
   -0.7200   -1.0579   -0.3920 C   0  0  0  0  0  0  0  0  0  0  0  0
   -2.1337   -0.6526   -0.4032 C   0  0  0  0  0  0  0  0  0  0  0  0
   -2.2027    0.6492    0.0199 C   0  0  0  0  0  0  0  0  0  0  0  0
   -3.1779    1.7442    0.0494 C   0  0  0  0  0  0  0  0  0  0  0  0
   -3.0014    2.5720    1.1070 C   0  0  0  0  0  0  0  0  0  0  0  0
   -2.3779    3.8902    0.8767 C   0  0  0  0  0  0  0  0  0  0  0  0
   -1.0589    3.7244    0.5815 C   0  0  0  0  0  0  0  0  0  0  0  0
   -0.3671    2.4338    0.4185 C   0  0  0  0  0  0  0  0  0  0  0  0
   -0.8077    1.1391    0.2353 C   0  0  0  0  0  0  0  0  0  0  0  0
   -3.2350   -1.5848   -0.7976 C   0  0  0  0  0  0  0  0  0  0  0  0
   -4.6281   -0.9694   -0.8079 C   0  0  0  0  0  0  0  0  0  0  0  0
   -5.7094   -1.9789   -1.1100 C   0  0  0  0  0  0  0  0  0  0  0  0
   -5.5528   -3.1700   -1.2192 O   0  0  0  0  0  0  0  0  0  0  0  0
   -6.9163   -1.3908   -1.2408 O   0  0  0  0  0  0  0  0  0  0  0  0
    2.0273    0.8541   -0.3272 H   0  0  0  0  0  0  0  0  0  0  0  0
    1.9923   -0.8999   -0.3685 H   0  0  0  0  0  0  0  0  0  0  0  0
    1.6273   -0.9706    2.1238 H   0  0  0  0  0  0  0  0  0  0  0  0
    1.5455    0.7773    2.1830 H   0  0  0  0  0  0  0  0  0  0  0  0
    4.8159   -0.0856    3.1265 H   0  0  0  0  0  0  0  0  0  0  0  0
   -0.3748   -2.0629   -0.6438 H   0  0  0  0  0  0  0  0  0  0  0  0
   -3.5473    2.1414   -0.9066 H   0  0  0  0  0  0  0  0  0  0  0  0
   -2.5881    2.0804    2.0014 H   0  0  0  0  0  0  0  0  0  0  0  0
   -2.8322    4.8806    0.9810 H   0  0  0  0  0  0  0  0  0  0  0  0
   -0.4165    4.6066    0.4848 H   0  0  0  0  0  0  0  0  0  0  0  0
    0.7231    2.5426    0.4011 H   0  0  0  0  0  0  0  0  0  0  0  0
   -3.2299   -2.4592   -0.1225 H   0  0  0  0  0  0  0  0  0  0  0  0
   -3.0131   -2.0113   -1.7922 H   0  0  0  0  0  0  0  0  0  0  0  0
   -4.7109   -0.1517   -1.5413 H   0  0  0  0  0  0  0  0  0  0  0  0
   -4.8684   -0.5051    0.1633 H   0  0  0  0  0  0  0  0  0  0  0  0
   -7.5551   -2.1025   -1.4177 H   0  0  0  0  0  0  0  0  0  0  0  0
  1  2  1  0
  1  7  2  0
  1 15  1  0
  2  3  1  0
  2 21  1  0
  2 22  1  0
  3  4  1  0
  3 23  1  0
  3 24  1  0
  4  5  2  0
  4  6  1  0
  6 25  1  0
  7  8  1  0
  7 26  1  0
  8  9  2  0
  8 16  1  0
  9 10  1  0
  9 15  1  0
 10 11  2  0
 10 27  1  0
 11 12  1  0
 11 28  1  0
 12 13  2  0
 12 29  1  0
 13 14  1  0
 13 30  1  0
 14 15  2  0
 14 31  1  0
 16 17  1  0
 16 32  1  0
 16 33  1  0
 17 18  1  0
 17 34  1  0
 17 35  1  0
 18 19  2  0
 18 20  1  0
 20 36  1  0
M  END

