36
rmsd68.gzmat
C          0.00000        0.00000        0.00000
C          1.48000        0.00000        0.00000
C          1.98950        0.00000        1.44910
C          3.47800        0.12840        1.46280
O          4.18400        0.83810        0.79700
O          4.01240       -0.70480        2.39460
C         -0.81700       -1.08650        0.01100
C         -2.22370       -0.64470        0.03030
C         -2.24110        0.70860        0.02850
C         -3.15690        1.81820       -0.05150
C         -2.97360        2.73760        0.92530
C         -2.36930        3.98670        0.46930
C         -1.10750        3.78680        0.02430
C         -0.38360        2.50600        0.00460
C         -0.82780        1.23150        0.01180
C         -3.37220       -1.57510        0.06590
C         -3.95670       -1.62520        1.48350
C         -4.94260       -2.73970        1.60230
O         -5.23600       -3.59210        0.80710
O         -5.53700       -2.70390        2.82670
H          1.88680        0.87800       -0.55050
H          1.87480       -0.88450       -0.54590
H          1.65810       -0.92020        1.97990
H          1.54160        0.84410        2.01960
H          4.99750       -0.66030        2.45520
H         -0.53750       -2.12130        0.00450
H         -3.57190        2.05240       -1.02980
H         -2.81690        2.47320        1.96880
H         -2.87730        4.93790        0.51190
H         -0.51500        4.63260       -0.33400
H          0.70910        2.65580       -0.02000
H         -3.07530       -2.59550       -0.26490
H         -4.15490       -1.26110       -0.66000
H         -4.43610       -0.65490        1.74520
H         -3.14910       -1.75310        2.23920
H         -6.20400       -3.41830        2.96680
