36

C         -0.01900        0.05290        0.17150
C          1.47850        0.01280        0.15610
C          2.08990        0.23820        1.54360
C          3.59880        0.30070        1.52270
O          4.28770        0.35670        0.53410
O          4.11710        0.30360        2.76860
C         -0.87240       -1.01730        0.10270
C         -2.26260       -0.56950        0.18800
C         -2.26360        0.79150        0.37770
C         -3.25010        1.86010        0.29210
C         -2.88120        2.93840        1.03700
C         -2.31540        4.12340        0.37500
C         -1.02770        3.85830        0.00960
C         -0.36910        2.54990        0.11350
C         -0.84400        1.26490        0.30740
C         -3.47390       -1.45040        0.12730
C         -3.80060       -2.12670        1.46650
C         -2.83320       -3.22610        1.84140
O         -2.07110       -3.78350        1.08890
O         -2.93540       -3.55940        3.14240
H          1.89040        0.76850       -0.53230
H          1.81700       -0.95950       -0.23290
H          1.77930       -0.54690        2.25150
H          1.72890        1.18350        1.98470
H          5.08270        0.36400        2.66750
H         -0.58280       -2.06370        0.00630
H         -3.85750        1.96630       -0.61770
H         -2.27430        2.66330        1.91230
H         -2.79060        5.09230        0.19190
H         -0.40900        4.65900       -0.40990
H          0.70910        2.60300       -0.07510
H         -3.33590       -2.23380       -0.63440
H         -4.34390       -0.84370       -0.16830
H         -4.79980       -2.59660        1.42730
H         -3.84010       -1.39450        2.28730
H         -2.31160       -4.29060        3.29290
