36
rmsd213.gzmat
C          0.00000        0.00000        0.00000
C          1.48210        0.00000        0.00000
C          2.02950        0.00000        1.43570
C          1.72230       -1.30410        2.10240
O          1.89900       -2.42160        1.69160
O          1.19510       -1.09310        3.33490
C         -0.81600        1.08000        0.12800
C         -2.22450        0.63900        0.11660
C         -2.24080       -0.70680       -0.01940
C         -3.14200       -1.83160       -0.03060
C         -3.04040       -2.60120       -1.13970
C         -2.40470       -3.89500       -0.90330
C         -1.12600       -3.75210       -0.48550
C         -0.39590       -2.48630       -0.31390
C         -0.83030       -1.22210       -0.12710
C         -3.34650        1.59300        0.23160
C         -4.70860        0.89800        0.15200
C         -5.80870        1.89970        0.25510
O         -5.74790        3.08800        0.43040
O         -7.01570        1.28410        0.12140
H          1.86810        0.89120       -0.54180
H          1.88370       -0.87510       -0.55840
H          1.60520        0.85170        2.01330
H          3.13040        0.15290        1.43140
H          0.94670       -1.92360        3.81060
H         -0.53540        2.10880        0.22920
H         -3.45640       -2.22010        0.93710
H         -2.98190       -2.19740       -2.14680
H         -2.90610       -4.83490       -1.07510
H         -0.51550       -4.63680       -0.28170
H          0.69820       -2.64320       -0.34760
H         -3.26710        2.37030       -0.56390
H         -3.26620        2.16410        1.18690
H         -4.81070        0.13340        0.95620
H         -4.80200        0.31470       -0.79370
H         -7.78480        1.89970        0.18650
