36

C         -0.02970       -0.04670       -0.07770
C          1.46690       -0.01070        0.00780
C          1.97710        0.02650        1.45350
C          3.48460        0.01350        1.55010
O          4.24850       -0.09240        0.62290
O          3.90370        0.12930        2.82740
C         -0.87250        1.02810       -0.18770
C         -2.27040        0.59350       -0.17590
C         -2.28690       -0.77720       -0.11340
C         -3.28060       -1.81190        0.15280
C         -2.93780       -2.99150       -0.43140
C         -2.36920       -4.07380        0.38690
C         -1.07110       -3.77400        0.67980
C         -0.40370       -2.50310        0.36630
C         -0.87260       -1.25150        0.00910
C         -3.45320        1.50830       -0.20320
C         -3.60630        2.30090        1.09900
C         -4.76310        3.27240        1.06730
O         -5.47150        3.49350        0.11710
O         -4.92320        3.89430        2.25410
H          1.84790        0.87520       -0.52320
H          1.91250       -0.87780       -0.50400
H          1.59760       -0.83040        2.03550
H          1.60400        0.91800        1.98380
H          4.87580        0.10510        2.80500
H         -0.55420        2.06840       -0.28700
H         -3.85960       -1.77930        1.08610
H         -2.35520       -2.86030       -1.35510
H         -2.84870       -5.00030        0.71810
H         -0.44710       -4.51350        1.19340
H          0.68180       -2.55080        0.50770
H         -4.37030        0.93000       -0.39000
H         -3.36490        2.22280       -1.03890
H         -2.69450        2.87890        1.32790
H         -3.74430        1.62980        1.96290
H         -5.67520        4.50240        2.15060
