rmsd68.gzmat
 OpenBabel08211713373D

 36 37  0  0  0  0  0  0  0  0999 V2000
    0.0000    0.0000    0.0000 C   0  0  0  0  0  0  0  0  0  0  0  0
    1.4800    0.0000    0.0000 C   0  0  0  0  0  0  0  0  0  0  0  0
    1.9895    0.0000    1.4491 C   0  0  0  0  0  0  0  0  0  0  0  0
    3.4780    0.1284    1.4628 C   0  0  0  0  0  0  0  0  0  0  0  0
    4.1840    0.8381    0.7970 O   0  0  0  0  0  0  0  0  0  0  0  0
    4.0124   -0.7048    2.3946 O   0  0  0  0  0  0  0  0  0  0  0  0
   -0.8170   -1.0865    0.0110 C   0  0  0  0  0  0  0  0  0  0  0  0
   -2.2237   -0.6447    0.0303 C   0  0  0  0  0  0  0  0  0  0  0  0
   -2.2411    0.7086    0.0285 C   0  0  0  0  0  0  0  0  0  0  0  0
   -3.1569    1.8182   -0.0515 C   0  0  0  0  0  0  0  0  0  0  0  0
   -2.9736    2.7376    0.9253 C   0  0  0  0  0  0  0  0  0  0  0  0
   -2.3693    3.9867    0.4693 C   0  0  0  0  0  0  0  0  0  0  0  0
   -1.1075    3.7868    0.0243 C   0  0  0  0  0  0  0  0  0  0  0  0
   -0.3836    2.5060    0.0046 C   0  0  0  0  0  0  0  0  0  0  0  0
   -0.8278    1.2315    0.0118 C   0  0  0  0  0  0  0  0  0  0  0  0
   -3.3722   -1.5751    0.0659 C   0  0  0  0  0  0  0  0  0  0  0  0
   -3.9567   -1.6252    1.4835 C   0  0  0  0  0  0  0  0  0  0  0  0
   -4.9426   -2.7397    1.6023 C   0  0  0  0  0  0  0  0  0  0  0  0
   -5.2360   -3.5921    0.8071 O   0  0  0  0  0  0  0  0  0  0  0  0
   -5.5370   -2.7039    2.8267 O   0  0  0  0  0  0  0  0  0  0  0  0
    1.8868    0.8780   -0.5505 H   0  0  0  0  0  0  0  0  0  0  0  0
    1.8748   -0.8845   -0.5459 H   0  0  0  0  0  0  0  0  0  0  0  0
    1.6581   -0.9202    1.9799 H   0  0  0  0  0  0  0  0  0  0  0  0
    1.5416    0.8441    2.0196 H   0  0  0  0  0  0  0  0  0  0  0  0
    4.9975   -0.6603    2.4552 H   0  0  0  0  0  0  0  0  0  0  0  0
   -0.5375   -2.1213    0.0045 H   0  0  0  0  0  0  0  0  0  0  0  0
   -3.5719    2.0524   -1.0298 H   0  0  0  0  0  0  0  0  0  0  0  0
   -2.8169    2.4732    1.9688 H   0  0  0  0  0  0  0  0  0  0  0  0
   -2.8773    4.9379    0.5119 H   0  0  0  0  0  0  0  0  0  0  0  0
   -0.5150    4.6326   -0.3340 H   0  0  0  0  0  0  0  0  0  0  0  0
    0.7091    2.6558   -0.0200 H   0  0  0  0  0  0  0  0  0  0  0  0
   -3.0753   -2.5955   -0.2649 H   0  0  0  0  0  0  0  0  0  0  0  0
   -4.1549   -1.2611   -0.6600 H   0  0  0  0  0  0  0  0  0  0  0  0
   -4.4361   -0.6549    1.7452 H   0  0  0  0  0  0  0  0  0  0  0  0
   -3.1491   -1.7531    2.2392 H   0  0  0  0  0  0  0  0  0  0  0  0
   -6.2040   -3.4183    2.9668 H   0  0  0  0  0  0  0  0  0  0  0  0
  1  2  1  0  0  0  0
  1  7  1  0  0  0  0
  1 15  2  0  0  0  0
  2  3  1  0  0  0  0
  3  4  1  0  0  0  0
  3 23  1  0  0  0  0
  3 24  1  0  0  0  0
  4  6  1  0  0  0  0
  5  4  2  0  0  0  0
  6 25  1  0  0  0  0
  7  8  2  0  0  0  0
  8 16  1  0  0  0  0
  9  8  1  0  0  0  0
 10  9  2  0  0  0  0
 10 11  1  0  0  0  0
 11 28  1  0  0  0  0
 12 29  1  0  0  0  0
 12 11  2  0  0  0  0
 13 12  1  0  0  0  0
 14 15  1  0  0  0  0
 14 13  2  0  0  0  0
 15  9  1  0  0  0  0
 16 17  1  0  0  0  0
 17 18  1  0  0  0  0
 17 34  1  0  0  0  0
 17 35  1  0  0  0  0
 18 20  1  0  0  0  0
 19 18  2  0  0  0  0
 20 36  1  0  0  0  0
 21  2  1  0  0  0  0
 22  2  1  0  0  0  0
 26  7  1  0  0  0  0
 27 10  1  0  0  0  0
 30 13  1  0  0  0  0
 31 14  1  0  0  0  0
 32 16  1  0  0  0  0
 33 16  1  0  0  0  0
M  END
$$$$
