rmsd213.gzmat
 OpenBabel08211713373D

 36 37  0  0  0  0  0  0  0  0999 V2000
    0.0000    0.0000    0.0000 C   0  0  0  0  0  0  0  0  0  0  0  0
    1.4821    0.0000    0.0000 C   0  0  0  0  0  0  0  0  0  0  0  0
    2.0295    0.0000    1.4357 C   0  0  0  0  0  0  0  0  0  0  0  0
    1.7223   -1.3041    2.1024 C   0  0  0  0  0  0  0  0  0  0  0  0
    1.8990   -2.4216    1.6916 O   0  0  0  0  0  0  0  0  0  0  0  0
    1.1951   -1.0931    3.3349 O   0  0  0  0  0  0  0  0  0  0  0  0
   -0.8160    1.0800    0.1280 C   0  0  0  0  0  0  0  0  0  0  0  0
   -2.2245    0.6390    0.1166 C   0  0  0  0  0  0  0  0  0  0  0  0
   -2.2408   -0.7068   -0.0194 C   0  0  0  0  0  0  0  0  0  0  0  0
   -3.1420   -1.8316   -0.0306 C   0  0  0  0  0  0  0  0  0  0  0  0
   -3.0404   -2.6012   -1.1397 C   0  0  0  0  0  0  0  0  0  0  0  0
   -2.4047   -3.8950   -0.9033 C   0  0  0  0  0  0  0  0  0  0  0  0
   -1.1260   -3.7521   -0.4855 C   0  0  0  0  0  0  0  0  0  0  0  0
   -0.3959   -2.4863   -0.3139 C   0  0  0  0  0  0  0  0  0  0  0  0
   -0.8303   -1.2221   -0.1271 C   0  0  0  0  0  0  0  0  0  0  0  0
   -3.3465    1.5930    0.2316 C   0  0  0  0  0  0  0  0  0  0  0  0
   -4.7086    0.8980    0.1520 C   0  0  0  0  0  0  0  0  0  0  0  0
   -5.8087    1.8997    0.2551 C   0  0  0  0  0  0  0  0  0  0  0  0
   -5.7479    3.0880    0.4304 O   0  0  0  0  0  0  0  0  0  0  0  0
   -7.0157    1.2841    0.1214 O   0  0  0  0  0  0  0  0  0  0  0  0
    1.8681    0.8912   -0.5418 H   0  0  0  0  0  0  0  0  0  0  0  0
    1.8837   -0.8751   -0.5584 H   0  0  0  0  0  0  0  0  0  0  0  0
    1.6052    0.8517    2.0133 H   0  0  0  0  0  0  0  0  0  0  0  0
    3.1304    0.1529    1.4314 H   0  0  0  0  0  0  0  0  0  0  0  0
    0.9467   -1.9236    3.8106 H   0  0  0  0  0  0  0  0  0  0  0  0
   -0.5354    2.1088    0.2292 H   0  0  0  0  0  0  0  0  0  0  0  0
   -3.4564   -2.2201    0.9371 H   0  0  0  0  0  0  0  0  0  0  0  0
   -2.9819   -2.1974   -2.1468 H   0  0  0  0  0  0  0  0  0  0  0  0
   -2.9061   -4.8349   -1.0751 H   0  0  0  0  0  0  0  0  0  0  0  0
   -0.5155   -4.6368   -0.2817 H   0  0  0  0  0  0  0  0  0  0  0  0
    0.6982   -2.6432   -0.3476 H   0  0  0  0  0  0  0  0  0  0  0  0
   -3.2671    2.3703   -0.5639 H   0  0  0  0  0  0  0  0  0  0  0  0
   -3.2662    2.1641    1.1869 H   0  0  0  0  0  0  0  0  0  0  0  0
   -4.8107    0.1334    0.9562 H   0  0  0  0  0  0  0  0  0  0  0  0
   -4.8020    0.3147   -0.7937 H   0  0  0  0  0  0  0  0  0  0  0  0
   -7.7848    1.8997    0.1865 H   0  0  0  0  0  0  0  0  0  0  0  0
  1  2  1  0  0  0  0
  1  7  1  0  0  0  0
  2  3  1  0  0  0  0
  3 23  1  0  0  0  0
  3  4  1  0  0  0  0
  4  6  1  0  0  0  0
  5  4  2  0  0  0  0
  6 25  1  0  0  0  0
  7 26  1  0  0  0  0
  8  7  2  0  0  0  0
  8 16  1  0  0  0  0
  9  8  1  0  0  0  0
 10  9  2  0  0  0  0
 10 27  1  0  0  0  0
 11 12  2  0  0  0  0
 11 10  1  0  0  0  0
 12 13  1  0  0  0  0
 13 14  2  0  0  0  0
 13 30  1  0  0  0  0
 14 15  1  0  0  0  0
 15  9  1  0  0  0  0
 15  1  2  0  0  0  0
 16 33  1  0  0  0  0
 17 16  1  0  0  0  0
 17 18  1  0  0  0  0
 17 34  1  0  0  0  0
 18 19  2  0  0  0  0
 20 36  1  0  0  0  0
 20 18  1  0  0  0  0
 21  2  1  0  0  0  0
 22  2  1  0  0  0  0
 24  3  1  0  0  0  0
 28 11  1  0  0  0  0
 29 12  1  0  0  0  0
 31 14  1  0  0  0  0
 32 16  1  0  0  0  0
 35 17  1  0  0  0  0
M  END
$$$$
