rmsd65.gzmat
 OpenBabel08211713373D

 36 37  0  0  0  0  0  0  0  0999 V2000
    0.0000    0.0000    0.0000 C   0  0  0  0  0  0  0  0  0  0  0  0
    1.4792    0.0000    0.0000 C   0  0  0  0  0  0  0  0  0  0  0  0
    2.0020    0.0000    1.4426 C   0  0  0  0  0  0  0  0  0  0  0  0
    3.4926   -0.0883    1.4480 C   0  0  0  0  0  0  0  0  0  0  0  0
    4.2503   -0.2561    0.5300 O   0  0  0  0  0  0  0  0  0  0  0  0
    3.9615    0.0507    2.7175 O   0  0  0  0  0  0  0  0  0  0  0  0
   -0.8196   -1.0684   -0.1819 C   0  0  0  0  0  0  0  0  0  0  0  0
   -2.2272   -0.6304   -0.1036 C   0  0  0  0  0  0  0  0  0  0  0  0
   -2.2402    0.7038    0.1220 C   0  0  0  0  0  0  0  0  0  0  0  0
   -3.1421    1.8218    0.2381 C   0  0  0  0  0  0  0  0  0  0  0  0
   -2.9985    2.5101    1.3951 C   0  0  0  0  0  0  0  0  0  0  0  0
   -2.3674    3.8179    1.2391 C   0  0  0  0  0  0  0  0  0  0  0  0
   -1.1001    3.7088    0.7775 C   0  0  0  0  0  0  0  0  0  0  0  0
   -0.3787    2.4601    0.4864 C   0  0  0  0  0  0  0  0  0  0  0  0
   -0.8245    1.2132    0.2252 C   0  0  0  0  0  0  0  0  0  0  0  0
   -3.3664   -1.5643   -0.2239 C   0  0  0  0  0  0  0  0  0  0  0  0
   -4.4281   -1.0262   -1.1892 C   0  0  0  0  0  0  0  0  0  0  0  0
   -5.5546   -1.9986   -1.3046 C   0  0  0  0  0  0  0  0  0  0  0  0
   -5.7035   -3.0613   -0.7623 O   0  0  0  0  0  0  0  0  0  0  0  0
   -6.4949   -1.5265   -2.1677 O   0  0  0  0  0  0  0  0  0  0  0  0
    1.8806    0.8736   -0.5587 H   0  0  0  0  0  0  0  0  0  0  0  0
    1.8802   -0.8829   -0.5483 H   0  0  0  0  0  0  0  0  0  0  0  0
    1.5707   -0.8527    2.0152 H   0  0  0  0  0  0  0  0  0  0  0  0
    1.6641    0.9061    1.9923 H   0  0  0  0  0  0  0  0  0  0  0  0
    4.9449   -0.0092    2.7884 H   0  0  0  0  0  0  0  0  0  0  0  0
   -0.5432   -2.0890   -0.3604 H   0  0  0  0  0  0  0  0  0  0  0  0
   -3.4980    2.2745   -0.6858 H   0  0  0  0  0  0  0  0  0  0  0  0
   -2.9032    2.0296    2.3661 H   0  0  0  0  0  0  0  0  0  0  0  0
   -2.8616    4.7427    1.4966 H   0  0  0  0  0  0  0  0  0  0  0  0
   -0.4968    4.6090    0.6315 H   0  0  0  0  0  0  0  0  0  0  0  0
    0.7139    2.6085    0.5013 H   0  0  0  0  0  0  0  0  0  0  0  0
   -3.8194   -1.7357    0.7818 H   0  0  0  0  0  0  0  0  0  0  0  0
   -3.0304   -2.5724   -0.5548 H   0  0  0  0  0  0  0  0  0  0  0  0
   -3.9860   -0.8286   -2.1912 H   0  0  0  0  0  0  0  0  0  0  0  0
   -4.8089   -0.0372   -0.8447 H   0  0  0  0  0  0  0  0  0  0  0  0
   -7.2696   -2.1288   -2.2788 H   0  0  0  0  0  0  0  0  0  0  0  0
  1 15  2  0  0  0  0
  2  1  1  0  0  0  0
  2  3  1  0  0  0  0
  3  4  1  0  0  0  0
  3 24  1  0  0  0  0
  3 23  1  0  0  0  0
  4  6  1  0  0  0  0
  5  4  2  0  0  0  0
  6 25  1  0  0  0  0
  7  8  2  0  0  0  0
  7  1  1  0  0  0  0
  8  9  1  0  0  0  0
  9 15  1  0  0  0  0
  9 10  2  0  0  0  0
 10 11  1  0  0  0  0
 11 28  1  0  0  0  0
 12 11  2  0  0  0  0
 12 29  1  0  0  0  0
 13 12  1  0  0  0  0
 14 31  1  0  0  0  0
 14 13  2  0  0  0  0
 15 14  1  0  0  0  0
 16  8  1  0  0  0  0
 16 32  1  0  0  0  0
 17 35  1  0  0  0  0
 17 16  1  0  0  0  0
 18 17  1  0  0  0  0
 18 19  2  0  0  0  0
 20 18  1  0  0  0  0
 21  2  1  0  0  0  0
 22  2  1  0  0  0  0
 26  7  1  0  0  0  0
 27 10  1  0  0  0  0
 30 13  1  0  0  0  0
 33 16  1  0  0  0  0
 34 17  1  0  0  0  0
 36 20  1  0  0  0  0
M  END
$$$$
