rmsd181.gzmat
 OpenBabel08211713373D

 36 37  0  0  0  0  0  0  0  0999 V2000
    0.0000    0.0000    0.0000 C   0  0  0  0  0  0  0  0  0  0  0  0
    1.4797    0.0000    0.0000 C   0  0  0  0  0  0  0  0  0  0  0  0
    1.9980    0.0000    1.4443 C   0  0  0  0  0  0  0  0  0  0  0  0
    3.4816   -0.1681    1.4592 C   0  0  0  0  0  0  0  0  0  0  0  0
    4.2164   -0.5308    0.5794 O   0  0  0  0  0  0  0  0  0  0  0  0
    3.9752    0.1486    2.6864 O   0  0  0  0  0  0  0  0  0  0  0  0
   -0.8191    1.0800   -0.0998 C   0  0  0  0  0  0  0  0  0  0  0  0
   -2.2258    0.6406   -0.0275 C   0  0  0  0  0  0  0  0  0  0  0  0
   -2.2405   -0.7042    0.1154 C   0  0  0  0  0  0  0  0  0  0  0  0
   -3.1446   -1.8062    0.3263 C   0  0  0  0  0  0  0  0  0  0  0  0
   -3.0144   -2.7944   -0.5896 C   0  0  0  0  0  0  0  0  0  0  0  0
   -2.3836   -4.0067   -0.0741 C   0  0  0  0  0  0  0  0  0  0  0  0
   -1.1077   -3.7756    0.3124 C   0  0  0  0  0  0  0  0  0  0  0  0
   -0.3833   -2.4983    0.2158 C   0  0  0  0  0  0  0  0  0  0  0  0
   -0.8258   -1.2264    0.1293 C   0  0  0  0  0  0  0  0  0  0  0  0
   -3.3750    1.5651   -0.1262 C   0  0  0  0  0  0  0  0  0  0  0  0
   -3.6603    1.8746   -1.6015 C   0  0  0  0  0  0  0  0  0  0  0  0
   -4.7619    2.8757   -1.7126 C   0  0  0  0  0  0  0  0  0  0  0  0
   -5.5509    3.2402   -0.8823 O   0  0  0  0  0  0  0  0  0  0  0  0
   -4.7990    3.3885   -2.9732 O   0  0  0  0  0  0  0  0  0  0  0  0
    1.8790    0.8815   -0.5482 H   0  0  0  0  0  0  0  0  0  0  0  0
    1.8844   -0.8762   -0.5554 H   0  0  0  0  0  0  0  0  0  0  0  0
    1.5222   -0.8146    2.0355 H   0  0  0  0  0  0  0  0  0  0  0  0
    1.7021    0.9362    1.9682 H   0  0  0  0  0  0  0  0  0  0  0  0
    4.9552    0.0462    2.7604 H   0  0  0  0  0  0  0  0  0  0  0  0
   -0.5425    2.1092   -0.2115 H   0  0  0  0  0  0  0  0  0  0  0  0
   -3.4976   -1.9717    1.3424 H   0  0  0  0  0  0  0  0  0  0  0  0
   -2.9242   -2.6100   -1.6577 H   0  0  0  0  0  0  0  0  0  0  0  0
   -2.8855   -4.9618   -0.0405 H   0  0  0  0  0  0  0  0  0  0  0  0
   -0.5008   -4.5968    0.7023 H   0  0  0  0  0  0  0  0  0  0  0  0
    0.7091   -2.6499    0.2076 H   0  0  0  0  0  0  0  0  0  0  0  0
   -3.1799    2.5049    0.4358 H   0  0  0  0  0  0  0  0  0  0  0  0
   -4.2823    1.1321    0.3530 H   0  0  0  0  0  0  0  0  0  0  0  0
   -3.9421    0.9458   -2.1471 H   0  0  0  0  0  0  0  0  0  0  0  0
   -2.7436    2.2373   -2.1164 H   0  0  0  0  0  0  0  0  0  0  0  0
   -5.5205    4.0476   -3.1141 H   0  0  0  0  0  0  0  0  0  0  0  0
  1 15  2  0  0  0  0
  2  1  1  0  0  0  0
  2  3  1  0  0  0  0
  3  4  1  0  0  0  0
  3 24  1  0  0  0  0
  3 23  1  0  0  0  0
  4  6  1  0  0  0  0
  5  4  2  0  0  0  0
  6 25  1  0  0  0  0
  7  8  2  0  0  0  0
  7  1  1  0  0  0  0
  8  9  1  0  0  0  0
  9 15  1  0  0  0  0
  9 10  2  0  0  0  0
 10 27  1  0  0  0  0
 11 12  2  0  0  0  0
 11 10  1  0  0  0  0
 12 29  1  0  0  0  0
 12 13  1  0  0  0  0
 13 30  1  0  0  0  0
 14 13  2  0  0  0  0
 15 14  1  0  0  0  0
 16  8  1  0  0  0  0
 16 33  1  0  0  0  0
 16 32  1  0  0  0  0
 17 16  1  0  0  0  0
 18 17  1  0  0  0  0
 18 19  2  0  0  0  0
 20 18  1  0  0  0  0
 21  2  1  0  0  0  0
 22  2  1  0  0  0  0
 26  7  1  0  0  0  0
 28 11  1  0  0  0  0
 31 14  1  0  0  0  0
 34 17  1  0  0  0  0
 35 17  1  0  0  0  0
 36 20  1  0  0  0  0
M  END
$$$$
