rmsd57.gzmat
 OpenBabel08211713413D

 33 35  0  0  0  0  0  0  0  0999 V2000
    0.0000    0.0000    0.0000 S   0  0  0  0  0  0  0  0  0  0  0  0
    1.7355    0.0000    0.0000 N   0  0  0  0  0  0  0  0  0  0  0  0
    2.1825    0.0000    1.2222 C   0  0  0  0  0  0  0  0  0  0  0  0
    1.0832   -0.0128    2.2496 C   0  0  0  0  0  0  0  0  0  0  0  0
   -0.1249   -0.0263    1.7317 N   0  0  0  0  0  0  0  0  0  0  0  0
    1.3478   -0.0292    3.6104 N   0  0  0  0  0  0  0  0  0  0  0  0
    0.3753    0.0929    4.6135 C   0  0  0  0  0  0  0  0  0  0  0  0
    0.7359    0.0111    5.7623 O   0  0  0  0  0  0  0  0  0  0  0  0
   -1.0902    0.3261    4.2214 C   0  0  0  0  0  0  0  0  0  0  0  0
   -1.4660    1.4344    3.9633 O   0  0  0  0  0  0  0  0  0  0  0  0
   -1.9317   -0.8825    4.2602 C   0  0  0  0  0  0  0  0  0  0  0  0
   -1.8786   -1.7570    5.3466 C   0  0  0  0  0  0  0  0  0  0  0  0
   -2.6869   -2.8906    5.3533 C   0  0  0  0  0  0  0  0  0  0  0  0
   -3.5343   -3.1516    4.2760 C   0  0  0  0  0  0  0  0  0  0  0  0
   -3.5853   -2.2745    3.1940 C   0  0  0  0  0  0  0  0  0  0  0  0
   -2.7900   -1.1305    3.1883 C   0  0  0  0  0  0  0  0  0  0  0  0
    3.5942    0.0092    1.5920 C   0  0  0  0  0  0  0  0  0  0  0  0
    4.1013    1.0738    2.3428 C   0  0  0  0  0  0  0  0  0  0  0  0
    5.4419    1.0744    2.7163 C   0  0  0  0  0  0  0  0  0  0  0  0
    6.2730    0.0196    2.3387 C   0  0  0  0  0  0  0  0  0  0  0  0
    5.7671   -1.0335    1.5787 C   0  0  0  0  0  0  0  0  0  0  0  0
    4.4268   -1.0401    1.1982 C   0  0  0  0  0  0  0  0  0  0  0  0
    2.3209   -0.1589    3.9031 H   0  0  0  0  0  0  0  0  0  0  0  0
   -1.2135   -1.5510    6.1894 H   0  0  0  0  0  0  0  0  0  0  0  0
   -2.6563   -3.5750    6.1989 H   0  0  0  0  0  0  0  0  0  0  0  0
   -4.1586   -4.0436    4.2819 H   0  0  0  0  0  0  0  0  0  0  0  0
   -4.2443   -2.4800    2.3534 H   0  0  0  0  0  0  0  0  0  0  0  0
   -2.8258   -0.4321    2.3492 H   0  0  0  0  0  0  0  0  0  0  0  0
    3.4534    1.9056    2.6198 H   0  0  0  0  0  0  0  0  0  0  0  0
    5.8417    1.9019    3.3018 H   0  0  0  0  0  0  0  0  0  0  0  0
    7.3210    0.0217    2.6354 H   0  0  0  0  0  0  0  0  0  0  0  0
    6.4182   -1.8527    1.2772 H   0  0  0  0  0  0  0  0  0  0  0  0
    4.0289   -1.8542    0.5922 H   0  0  0  0  0  0  0  0  0  0  0  0
  1  5  1  0  0  0  0
  2  1  1  0  0  0  0
  2  3  2  0  0  0  0
  3 17  1  0  0  0  0
  3  4  1  0  0  0  0
  4  6  1  0  0  0  0
  5  4  2  0  0  0  0
  6 23  1  0  0  0  0
  6  7  1  0  0  0  0
  7  8  2  0  0  0  0
  9 11  1  0  0  0  0
  9  7  1  0  0  0  0
 10  9  2  0  0  0  0
 11 12  2  0  0  0  0
 12 13  1  0  0  0  0
 12 24  1  0  0  0  0
 13 25  1  0  0  0  0
 14 26  1  0  0  0  0
 14 13  2  0  0  0  0
 15 14  1  0  0  0  0
 16 15  2  0  0  0  0
 16 11  1  0  0  0  0
 17 18  2  0  0  0  0
 18 29  1  0  0  0  0
 18 19  1  0  0  0  0
 19 30  1  0  0  0  0
 20 31  1  0  0  0  0
 20 19  2  0  0  0  0
 21 20  1  0  0  0  0
 22 21  2  0  0  0  0
 22 17  1  0  0  0  0
 27 15  1  0  0  0  0
 28 16  1  0  0  0  0
 32 21  1  0  0  0  0
 33 22  1  0  0  0  0
M  END
$$$$
