33
rmsd142.gzmat
S          0.00000        0.00000        0.00000
N          1.73480        0.00000        0.00000
C          2.18370        0.00000        1.22270
C          1.08490       -0.01230        2.24920
N         -0.12360       -0.00320        1.73110
N          1.34660       -0.03420        3.61000
C          0.36390       -0.00920        4.61190
O          0.73280       -0.01210        5.76050
C         -1.11620        0.05320        4.21330
O         -1.74250       -0.96240        4.10260
C         -1.65490        1.41590        4.05820
C         -1.27040        2.44300        4.92170
C         -1.80030        3.71870        4.74960
C         -2.70220        3.96650        3.71420
C         -3.08120        2.93940        2.85170
C         -2.56470        1.65740        3.02720
C          3.59820        0.01240        1.58070
C          4.44940       -0.97300        1.07550
C          5.79770       -0.96420        1.42590
C          6.29330        0.02760        2.27040
C          5.44320        1.01840        2.76250
C          4.09530        1.01680        2.41600
H          2.32530       -0.10570        3.90550
H         -0.56580        2.24720        5.73340
H         -1.50910        4.52320        5.42230
H         -3.11200        4.96640        3.58040
H         -3.78120        3.13580        2.04260
H         -2.85770        0.84190        2.36150
H          4.05740       -1.73850        0.40480
H          6.46370       -1.73260        1.03550
H          7.34750        0.03190        2.54340
H          5.83480        1.79720        3.41540
H          3.43660        1.80600        2.77860
