33
rmsd6.gzmat
S          0.00000        0.00000        0.00000
N          1.73580        0.00000        0.00000
C          2.18270        0.00000        1.22240
C          1.08350        0.01690        2.24850
N         -0.12490        0.02230        1.73140
N          1.35090        0.05120        3.60820
C          0.37740       -0.02970        4.61510
O          0.74260        0.07130        5.76050
C         -1.08920       -0.24570        4.22270
O         -1.49490       -1.36560        4.07830
C         -1.90050        0.97620        4.10280
C         -2.97140        0.96490        3.20570
C         -3.75100        2.10850        3.04780
C         -3.46480        3.25320        3.78980
C         -2.40150        3.25780        4.69320
C         -1.61520        2.12020        4.85110
C          3.59290       -0.01270        1.59690
C          4.43420        1.01920        1.17650
C          5.77340        1.01390        1.56080
C          6.26880       -0.02000        2.35310
C          5.42930       -1.05820        2.75670
C          4.09000       -1.05920        2.37830
H          2.32760        0.16400        3.89720
H         -3.18490        0.06090        2.63000
H         -4.58150        2.10620        2.34570
H         -4.07430        4.14700        3.66530
H         -2.18540        4.15220        5.27470
H         -0.78720        2.12390        5.56380
H          4.04290        1.81870        0.54710
H          6.43250        1.81810        1.23710
H          7.31520       -0.01960        2.65470
H          5.82160       -1.87150        3.36620
H          3.43670       -1.87990        2.67560
