33
rmsd145.gzmat
S          0.00000        0.00000        0.00000
N          1.73440        0.00000        0.00000
C          2.18360        0.00000        1.22290
C          1.08530        0.02100        2.24870
N         -0.12340        0.02440        1.73090
N          1.34430        0.06010        3.61050
C          0.36960       -0.08790        4.60850
O          0.71260        0.04600        5.75720
C         -1.06880       -0.43460        4.20320
O         -1.36350       -1.58480        4.03060
C         -1.99240        0.70630        4.10330
C         -1.88290        1.80960        4.95100
C         -2.76680        2.87560        4.80660
C         -3.75070        2.83890        3.81800
C         -3.86180        1.73270        2.97760
C         -2.98620        0.65930        3.12300
C          3.59800       -0.03160        1.57840
C          4.46890        0.92480        1.05150
C          5.81990        0.88650        1.38950
C          6.29840       -0.10580        2.24310
C          5.42820       -1.06670        2.75850
C          4.07710       -1.03430        2.42670
H          2.30790        0.24280        3.90580
H         -1.11530        1.83630        5.72780
H         -2.68780        3.73930        5.46380
H         -4.43570        3.67770        3.70370
H         -4.63050        1.70520        2.20880
H         -3.06280       -0.21420        2.47170
H          4.09080        1.68850        0.37160
H          6.50150        1.63060        0.98000
H          7.35520       -0.13520        2.50390
H          5.80700       -1.84840        3.41590
H          3.40050       -1.79840        2.81050
