rmsd142.gzmat
 OpenBabel08211713413D

 33 35  0  0  0  0  0  0  0  0999 V2000
    0.0000    0.0000    0.0000 S   0  0  0  0  0  0  0  0  0  0  0  0
    1.7348    0.0000    0.0000 N   0  0  0  0  0  0  0  0  0  0  0  0
    2.1837    0.0000    1.2227 C   0  0  0  0  0  0  0  0  0  0  0  0
    1.0849   -0.0123    2.2492 C   0  0  0  0  0  0  0  0  0  0  0  0
   -0.1236   -0.0032    1.7311 N   0  0  0  0  0  0  0  0  0  0  0  0
    1.3466   -0.0342    3.6100 N   0  0  0  0  0  0  0  0  0  0  0  0
    0.3639   -0.0092    4.6119 C   0  0  0  0  0  0  0  0  0  0  0  0
    0.7328   -0.0121    5.7605 O   0  0  0  0  0  0  0  0  0  0  0  0
   -1.1162    0.0532    4.2133 C   0  0  0  0  0  0  0  0  0  0  0  0
   -1.7425   -0.9624    4.1026 O   0  0  0  0  0  0  0  0  0  0  0  0
   -1.6549    1.4159    4.0582 C   0  0  0  0  0  0  0  0  0  0  0  0
   -1.2704    2.4430    4.9217 C   0  0  0  0  0  0  0  0  0  0  0  0
   -1.8003    3.7187    4.7496 C   0  0  0  0  0  0  0  0  0  0  0  0
   -2.7022    3.9665    3.7142 C   0  0  0  0  0  0  0  0  0  0  0  0
   -3.0812    2.9394    2.8517 C   0  0  0  0  0  0  0  0  0  0  0  0
   -2.5647    1.6574    3.0272 C   0  0  0  0  0  0  0  0  0  0  0  0
    3.5982    0.0124    1.5807 C   0  0  0  0  0  0  0  0  0  0  0  0
    4.4494   -0.9730    1.0755 C   0  0  0  0  0  0  0  0  0  0  0  0
    5.7977   -0.9642    1.4259 C   0  0  0  0  0  0  0  0  0  0  0  0
    6.2933    0.0276    2.2704 C   0  0  0  0  0  0  0  0  0  0  0  0
    5.4432    1.0184    2.7625 C   0  0  0  0  0  0  0  0  0  0  0  0
    4.0953    1.0168    2.4160 C   0  0  0  0  0  0  0  0  0  0  0  0
    2.3253   -0.1057    3.9055 H   0  0  0  0  0  0  0  0  0  0  0  0
   -0.5658    2.2472    5.7334 H   0  0  0  0  0  0  0  0  0  0  0  0
   -1.5091    4.5232    5.4223 H   0  0  0  0  0  0  0  0  0  0  0  0
   -3.1120    4.9664    3.5804 H   0  0  0  0  0  0  0  0  0  0  0  0
   -3.7812    3.1358    2.0426 H   0  0  0  0  0  0  0  0  0  0  0  0
   -2.8577    0.8419    2.3615 H   0  0  0  0  0  0  0  0  0  0  0  0
    4.0574   -1.7385    0.4048 H   0  0  0  0  0  0  0  0  0  0  0  0
    6.4637   -1.7326    1.0355 H   0  0  0  0  0  0  0  0  0  0  0  0
    7.3475    0.0319    2.5434 H   0  0  0  0  0  0  0  0  0  0  0  0
    5.8348    1.7972    3.4154 H   0  0  0  0  0  0  0  0  0  0  0  0
    3.4366    1.8060    2.7786 H   0  0  0  0  0  0  0  0  0  0  0  0
  1  5  1  0  0  0  0
  2  1  1  0  0  0  0
  2  3  2  0  0  0  0
  3 17  1  0  0  0  0
  3  4  1  0  0  0  0
  4  6  1  0  0  0  0
  5  4  2  0  0  0  0
  6 23  1  0  0  0  0
  6  7  1  0  0  0  0
  7  8  2  0  0  0  0
  9  7  1  0  0  0  0
 10  9  2  0  0  0  0
 11  9  1  0  0  0  0
 11 12  2  0  0  0  0
 12 24  1  0  0  0  0
 13 12  1  0  0  0  0
 13 25  1  0  0  0  0
 14 13  2  0  0  0  0
 15 16  2  0  0  0  0
 15 14  1  0  0  0  0
 16 11  1  0  0  0  0
 17 22  2  0  0  0  0
 18 19  2  0  0  0  0
 18 17  1  0  0  0  0
 19 20  1  0  0  0  0
 20 31  1  0  0  0  0
 20 21  2  0  0  0  0
 21 32  1  0  0  0  0
 22 21  1  0  0  0  0
 22 33  1  0  0  0  0
 26 14  1  0  0  0  0
 27 15  1  0  0  0  0
 28 16  1  0  0  0  0
 29 18  1  0  0  0  0
 30 19  1  0  0  0  0
M  END
$$$$
