33
rmsd35.gzmat
S          0.00000        0.00000        0.00000
N          1.73520        0.00000        0.00000
C          2.18340        0.00000        1.22280
C          1.08380        0.01670        2.24850
N         -0.12460        0.02340        1.73100
N          1.34660        0.04640        3.60960
C          0.37210       -0.06730        4.61180
O          0.73290        0.02210        5.75960
C         -1.09140       -0.29770        4.21400
O         -1.47970       -1.41760        4.03030
C         -1.92050        0.91610        4.14250
C         -2.97790        0.93800        3.23030
C         -3.76930        2.07900        3.12020
C         -3.50920        3.18650        3.92530
C         -2.46030        3.15650        4.84480
C         -1.66220        2.02170        4.95470
C          3.59580       -0.01440        1.58860
C          4.45390        0.96800        1.08960
C          5.79750        0.95970        1.45740
C          6.28180       -0.02760        2.31360
C          5.42600       -1.01740        2.79690
C          4.08290       -1.01710        2.43260
H          2.31950        0.17760        3.90350
H         -3.17130        0.06320        2.60500
H         -4.58930        2.10380        2.40630
H         -4.12700        4.07890        3.83780
H         -2.26450        4.02130        5.47570
H         -0.84530        1.99820        5.67990
H          4.07150        1.73070        0.41070
H          6.46920        1.72440        1.07000
H          7.33190       -0.02980        2.60210
H          5.80930       -1.79540        3.45670
H          3.41880       -1.80480        2.78990
