
     RDKit          3D

 33 35  0  0  0  0  0  0  0  0999 V2000
    0.7683    1.5386   -0.1006 S   0  0  0  0  0  0  0  0  0  0  0  0
    2.2944    0.8956   -0.0438 N   0  0  0  0  0  0  0  0  0  0  0  0
    2.6022    0.6496    1.2154 C   0  0  0  0  0  0  0  0  0  0  0  0
    1.5392    1.0482    2.1263 C   0  0  0  0  0  0  0  0  0  0  0  0
    0.4847    1.5602    1.5347 N   0  0  0  0  0  0  0  0  0  0  0  0
    1.6115    0.9476    3.5110 N   0  0  0  0  0  0  0  0  0  0  0  0
    0.5426    0.8478    4.3746 C   0  0  0  0  0  0  0  0  0  0  0  0
    0.6573    1.0082    5.5721 O   0  0  0  0  0  0  0  0  0  0  0  0
   -0.7748    0.3296    3.7666 C   0  0  0  0  0  0  0  0  0  0  0  0
   -0.7412   -0.7505    3.2122 O   0  0  0  0  0  0  0  0  0  0  0  0
   -2.0171    1.1048    3.9937 C   0  0  0  0  0  0  0  0  0  0  0  0
   -3.2211    0.5724    3.5024 C   0  0  0  0  0  0  0  0  0  0  0  0
   -4.4125    1.2751    3.6587 C   0  0  0  0  0  0  0  0  0  0  0  0
   -4.4105    2.5166    4.3068 C   0  0  0  0  0  0  0  0  0  0  0  0
   -3.2158    3.0513    4.7980 C   0  0  0  0  0  0  0  0  0  0  0  0
   -2.0198    2.3495    4.6440 C   0  0  0  0  0  0  0  0  0  0  0  0
    3.9016    0.0623    1.5942 C   0  0  0  0  0  0  0  0  0  0  0  0
    5.0511    0.3768    0.8483 C   0  0  0  0  0  0  0  0  0  0  0  0
    6.2838   -0.1786    1.1866 C   0  0  0  0  0  0  0  0  0  0  0  0
    6.3863   -1.0597    2.2688 C   0  0  0  0  0  0  0  0  0  0  0  0
    5.2462   -1.3906    3.0050 C   0  0  0  0  0  0  0  0  0  0  0  0
    4.0088   -0.8356    2.6720 C   0  0  0  0  0  0  0  0  0  0  0  0
    2.5218    1.0501    3.9532 H   0  0  0  0  0  0  0  0  0  0  0  0
   -3.1908   -0.3947    2.9975 H   0  0  0  0  0  0  0  0  0  0  0  0
   -5.3474    0.8597    3.2753 H   0  0  0  0  0  0  0  0  0  0  0  0
   -5.3454    3.0690    4.4296 H   0  0  0  0  0  0  0  0  0  0  0  0
   -3.2171    4.0181    5.3064 H   0  0  0  0  0  0  0  0  0  0  0  0
   -1.0917    2.7600    5.0426 H   0  0  0  0  0  0  0  0  0  0  0  0
    4.9591    1.0608    0.0030 H   0  0  0  0  0  0  0  0  0  0  0  0
    7.1717    0.0771    0.6037 H   0  0  0  0  0  0  0  0  0  0  0  0
    7.3539   -1.4925    2.5332 H   0  0  0  0  0  0  0  0  0  0  0  0
    5.3157   -2.0936    3.8383 H   0  0  0  0  0  0  0  0  0  0  0  0
    3.1162   -1.1285    3.2273 H   0  0  0  0  0  0  0  0  0  0  0  0
  1  2  1  0
  1  5  1  0
  2  3  2  0
  3  4  1  0
  3 17  1  0
  4  5  2  0
  4  6  1  0
  6  7  1  0
  6 23  1  0
  7  8  2  0
  7  9  1  0
  9 10  2  0
  9 11  1  0
 11 12  2  0
 11 16  1  0
 12 13  1  0
 12 24  1  0
 13 14  2  0
 13 25  1  0
 14 15  1  0
 14 26  1  0
 15 16  2  0
 15 27  1  0
 16 28  1  0
 17 18  2  0
 17 22  1  0
 18 19  1  0
 18 29  1  0
 19 20  2  0
 19 30  1  0
 20 21  1  0
 20 31  1  0
 21 22  2  0
 21 32  1  0
 22 33  1  0
M  END

