33

S          0.76830        1.53860       -0.10060
N          2.29440        0.89560       -0.04380
C          2.60220        0.64960        1.21540
C          1.53920        1.04820        2.12630
N          0.48470        1.56020        1.53470
N          1.61150        0.94760        3.51100
C          0.54260        0.84780        4.37460
O          0.65730        1.00820        5.57210
C         -0.77480        0.32960        3.76660
O         -0.74120       -0.75050        3.21220
C         -2.01710        1.10480        3.99370
C         -3.22110        0.57240        3.50240
C         -4.41250        1.27510        3.65870
C         -4.41050        2.51660        4.30680
C         -3.21580        3.05130        4.79800
C         -2.01980        2.34950        4.64400
C          3.90160        0.06230        1.59420
C          5.05110        0.37680        0.84830
C          6.28380       -0.17860        1.18660
C          6.38630       -1.05970        2.26880
C          5.24620       -1.39060        3.00500
C          4.00880       -0.83560        2.67200
H          2.52180        1.05010        3.95320
H         -3.19080       -0.39470        2.99750
H         -5.34740        0.85970        3.27530
H         -5.34540        3.06900        4.42960
H         -3.21710        4.01810        5.30640
H         -1.09170        2.76000        5.04260
H          4.95910        1.06080        0.00300
H          7.17170        0.07710        0.60370
H          7.35390       -1.49250        2.53320
H          5.31570       -2.09360        3.83830
H          3.11620       -1.12850        3.22730
