rmsd35.gzmat
 OpenBabel08211713413D

 33 35  0  0  0  0  0  0  0  0999 V2000
    0.0000    0.0000    0.0000 S   0  0  0  0  0  0  0  0  0  0  0  0
    1.7352    0.0000    0.0000 N   0  0  0  0  0  0  0  0  0  0  0  0
    2.1834    0.0000    1.2228 C   0  0  0  0  0  0  0  0  0  0  0  0
    1.0838    0.0167    2.2485 C   0  0  0  0  0  0  0  0  0  0  0  0
   -0.1246    0.0234    1.7310 N   0  0  0  0  0  0  0  0  0  0  0  0
    1.3466    0.0464    3.6096 N   0  0  0  0  0  0  0  0  0  0  0  0
    0.3721   -0.0673    4.6118 C   0  0  0  0  0  0  0  0  0  0  0  0
    0.7329    0.0221    5.7596 O   0  0  0  0  0  0  0  0  0  0  0  0
   -1.0914   -0.2977    4.2140 C   0  0  0  0  0  0  0  0  0  0  0  0
   -1.4797   -1.4176    4.0303 O   0  0  0  0  0  0  0  0  0  0  0  0
   -1.9205    0.9161    4.1425 C   0  0  0  0  0  0  0  0  0  0  0  0
   -2.9779    0.9380    3.2303 C   0  0  0  0  0  0  0  0  0  0  0  0
   -3.7693    2.0790    3.1202 C   0  0  0  0  0  0  0  0  0  0  0  0
   -3.5092    3.1865    3.9253 C   0  0  0  0  0  0  0  0  0  0  0  0
   -2.4603    3.1565    4.8448 C   0  0  0  0  0  0  0  0  0  0  0  0
   -1.6622    2.0217    4.9547 C   0  0  0  0  0  0  0  0  0  0  0  0
    3.5958   -0.0144    1.5886 C   0  0  0  0  0  0  0  0  0  0  0  0
    4.4539    0.9680    1.0896 C   0  0  0  0  0  0  0  0  0  0  0  0
    5.7975    0.9597    1.4574 C   0  0  0  0  0  0  0  0  0  0  0  0
    6.2818   -0.0276    2.3136 C   0  0  0  0  0  0  0  0  0  0  0  0
    5.4260   -1.0174    2.7969 C   0  0  0  0  0  0  0  0  0  0  0  0
    4.0829   -1.0171    2.4326 C   0  0  0  0  0  0  0  0  0  0  0  0
    2.3195    0.1776    3.9035 H   0  0  0  0  0  0  0  0  0  0  0  0
   -3.1713    0.0632    2.6050 H   0  0  0  0  0  0  0  0  0  0  0  0
   -4.5893    2.1038    2.4063 H   0  0  0  0  0  0  0  0  0  0  0  0
   -4.1270    4.0789    3.8378 H   0  0  0  0  0  0  0  0  0  0  0  0
   -2.2645    4.0213    5.4757 H   0  0  0  0  0  0  0  0  0  0  0  0
   -0.8453    1.9982    5.6799 H   0  0  0  0  0  0  0  0  0  0  0  0
    4.0715    1.7307    0.4107 H   0  0  0  0  0  0  0  0  0  0  0  0
    6.4692    1.7244    1.0700 H   0  0  0  0  0  0  0  0  0  0  0  0
    7.3319   -0.0298    2.6021 H   0  0  0  0  0  0  0  0  0  0  0  0
    5.8093   -1.7954    3.4567 H   0  0  0  0  0  0  0  0  0  0  0  0
    3.4188   -1.8048    2.7899 H   0  0  0  0  0  0  0  0  0  0  0  0
  1  5  1  0  0  0  0
  2  1  1  0  0  0  0
  2  3  2  0  0  0  0
  3 17  1  0  0  0  0
  3  4  1  0  0  0  0
  4  6  1  0  0  0  0
  5  4  2  0  0  0  0
  6 23  1  0  0  0  0
  6  7  1  0  0  0  0
  7  8  2  0  0  0  0
  9  7  1  0  0  0  0
 10  9  2  0  0  0  0
 11  9  1  0  0  0  0
 11 16  2  0  0  0  0
 12 11  1  0  0  0  0
 13 12  2  0  0  0  0
 13 14  1  0  0  0  0
 14 15  2  0  0  0  0
 15 16  1  0  0  0  0
 15 27  1  0  0  0  0
 16 28  1  0  0  0  0
 17 22  2  0  0  0  0
 18 19  2  0  0  0  0
 18 17  1  0  0  0  0
 19 20  1  0  0  0  0
 20 31  1  0  0  0  0
 20 21  2  0  0  0  0
 21 32  1  0  0  0  0
 22 33  1  0  0  0  0
 22 21  1  0  0  0  0
 24 12  1  0  0  0  0
 25 13  1  0  0  0  0
 26 14  1  0  0  0  0
 29 18  1  0  0  0  0
 30 19  1  0  0  0  0
M  END
$$$$
