rmsd124.gzmat
 OpenBabel08211713383D

 40 41  0  0  0  0  0  0  0  0999 V2000
    0.0000    0.0000    0.0000 C   0  0  0  0  0  0  0  0  0  0  0  0
    1.3975    0.0000    0.0000 C   0  0  0  0  0  0  0  0  0  0  0  0
    2.1056    0.0000    1.2036 C   0  0  0  0  0  0  0  0  0  0  0  0
    1.4258    0.0025    2.4220 C   0  0  0  0  0  0  0  0  0  0  0  0
    0.0290    0.0020    2.3910 C   0  0  0  0  0  0  0  0  0  0  0  0
   -0.7052    0.0055    1.2025 C   0  0  0  0  0  0  0  0  0  0  0  0
   -2.1914    0.0012    1.2336 C   0  0  0  0  0  0  0  0  0  0  0  0
   -0.6809   -0.1252    3.5745 O   0  0  0  0  0  0  0  0  0  0  0  0
   -0.7661    1.0083    4.3388 C   0  0  0  0  0  0  0  0  0  0  0  0
   -1.1038    0.7518    5.6955 C   0  0  0  0  0  0  0  0  0  0  0  0
   -1.3045    1.8459    6.5383 C   0  0  0  0  0  0  0  0  0  0  0  0
   -1.1503    3.1458    6.0432 C   0  0  0  0  0  0  0  0  0  0  0  0
   -0.8001    3.3783    4.7170 C   0  0  0  0  0  0  0  0  0  0  0  0
   -0.6068    2.2976    3.8551 C   0  0  0  0  0  0  0  0  0  0  0  0
   -1.3809    4.2549    6.9840 C   0  0  0  0  0  0  0  0  0  0  0  0
   -1.8164    4.1830    8.1065 O   0  0  0  0  0  0  0  0  0  0  0  0
   -1.0304    5.4470    6.4268 O   0  0  0  0  0  0  0  0  0  0  0  0
   -1.2270    6.5940    7.2460 C   0  0  0  0  0  0  0  0  0  0  0  0
   -1.1312   -0.5592    6.1845 N   0  0  0  0  0  0  0  0  0  0  0  0
    2.1519    0.0233    3.7185 C   0  0  0  0  0  0  0  0  0  0  0  0
    2.1243    0.0139   -1.3020 C   0  0  0  0  0  0  0  0  0  0  0  0
   -0.5416   -0.0038   -0.9427 H   0  0  0  0  0  0  0  0  0  0  0  0
    3.1930   -0.0008    1.1945 H   0  0  0  0  0  0  0  0  0  0  0  0
   -2.5759   -1.0274    1.3282 H   0  0  0  0  0  0  0  0  0  0  0  0
   -2.6337    0.4363    0.3276 H   0  0  0  0  0  0  0  0  0  0  0  0
   -2.5859    0.5643    2.0948 H   0  0  0  0  0  0  0  0  0  0  0  0
   -1.5707    1.6965    7.5866 H   0  0  0  0  0  0  0  0  0  0  0  0
   -0.6789    4.3969    4.3452 H   0  0  0  0  0  0  0  0  0  0  0  0
   -0.3378    2.4680    2.8134 H   0  0  0  0  0  0  0  0  0  0  0  0
   -0.8418    7.4087    6.6224 H   0  0  0  0  0  0  0  0  0  0  0  0
   -0.6583    6.5003    8.1773 H   0  0  0  0  0  0  0  0  0  0  0  0
   -2.2924    6.7217    7.4641 H   0  0  0  0  0  0  0  0  0  0  0  0
   -1.6967   -0.7289    6.9935 H   0  0  0  0  0  0  0  0  0  0  0  0
   -1.1726   -1.2904    5.4988 H   0  0  0  0  0  0  0  0  0  0  0  0
    1.6463   -0.5910    4.4830 H   0  0  0  0  0  0  0  0  0  0  0  0
    2.1997    1.0471    4.1266 H   0  0  0  0  0  0  0  0  0  0  0  0
    3.1819   -0.3460    3.6351 H   0  0  0  0  0  0  0  0  0  0  0  0
    1.7985   -0.8089   -1.9552 H   0  0  0  0  0  0  0  0  0  0  0  0
    3.2118   -0.0815   -1.1852 H   0  0  0  0  0  0  0  0  0  0  0  0
    1.9370    0.9531   -1.8441 H   0  0  0  0  0  0  0  0  0  0  0  0
  1  6  1  0  0  0  0
  2  1  2  0  0  0  0
  2  3  1  0  0  0  0
  3  4  2  0  0  0  0
  4 20  1  0  0  0  0
  5  4  1  0  0  0  0
  5  8  1  0  0  0  0
  6  7  1  0  0  0  0
  6  5  2  0  0  0  0
  7 24  1  0  0  0  0
  7 26  1  0  0  0  0
  8  9  1  0  0  0  0
  9 10  1  0  0  0  0
 10 19  1  0  0  0  0
 10 11  2  0  0  0  0
 11 27  1  0  0  0  0
 12 11  1  0  0  0  0
 12 15  1  0  0  0  0
 13 12  2  0  0  0  0
 14  9  2  0  0  0  0
 14 13  1  0  0  0  0
 15 16  2  0  0  0  0
 17 15  1  0  0  0  0
 17 18  1  0  0  0  0
 18 32  1  0  0  0  0
 18 31  1  0  0  0  0
 19 33  1  0  0  0  0
 20 36  1  0  0  0  0
 20 35  1  0  0  0  0
 21 39  1  0  0  0  0
 21  2  1  0  0  0  0
 22  1  1  0  0  0  0
 23  3  1  0  0  0  0
 25  7  1  0  0  0  0
 28 13  1  0  0  0  0
 29 14  1  0  0  0  0
 30 18  1  0  0  0  0
 34 19  1  0  0  0  0
 37 20  1  0  0  0  0
 38 21  1  0  0  0  0
 40 21  1  0  0  0  0
M  END
$$$$
