
     RDKit          3D

 40 41  0  0  0  0  0  0  0  0999 V2000
    0.0180   -0.0255   -0.0245 C   0  0  0  0  0  0  0  0  0  0  0  0
    1.4191   -0.0304   -0.0429 C   0  0  0  0  0  0  0  0  0  0  0  0
    2.1009   -0.0534    1.1812 C   0  0  0  0  0  0  0  0  0  0  0  0
    1.4239   -0.0626    2.4066 C   0  0  0  0  0  0  0  0  0  0  0  0
    0.0218   -0.0490    2.3721 C   0  0  0  0  0  0  0  0  0  0  0  0
   -0.7046   -0.0321    1.1750 C   0  0  0  0  0  0  0  0  0  0  0  0
   -2.2096   -0.0260    1.2077 C   0  0  0  0  0  0  0  0  0  0  0  0
   -0.6832   -0.1117    3.5650 O   0  0  0  0  0  0  0  0  0  0  0  0
   -0.7286    0.9972    4.3734 C   0  0  0  0  0  0  0  0  0  0  0  0
   -0.9510    0.7278    5.7453 C   0  0  0  0  0  0  0  0  0  0  0  0
   -1.0488    1.8180    6.6143 C   0  0  0  0  0  0  0  0  0  0  0  0
   -0.9137    3.1342    6.1456 C   0  0  0  0  0  0  0  0  0  0  0  0
   -0.6785    3.3773    4.7861 C   0  0  0  0  0  0  0  0  0  0  0  0
   -0.5892    2.3002    3.9015 C   0  0  0  0  0  0  0  0  0  0  0  0
   -1.0284    4.2310    7.1423 C   0  0  0  0  0  0  0  0  0  0  0  0
   -1.2397    4.0723    8.3244 O   0  0  0  0  0  0  0  0  0  0  0  0
   -0.8707    5.4528    6.5902 O   0  0  0  0  0  0  0  0  0  0  0  0
   -0.9683    6.5566    7.4835 C   0  0  0  0  0  0  0  0  0  0  0  0
   -0.9966   -0.5888    6.1700 N   0  0  0  0  0  0  0  0  0  0  0  0
    2.1529   -0.0861    3.7234 C   0  0  0  0  0  0  0  0  0  0  0  0
    2.1764    0.0127   -1.3467 C   0  0  0  0  0  0  0  0  0  0  0  0
   -0.5321   -0.0157   -0.9699 H   0  0  0  0  0  0  0  0  0  0  0  0
    3.1947   -0.0727    1.1860 H   0  0  0  0  0  0  0  0  0  0  0  0
   -2.6006   -0.9233    1.7136 H   0  0  0  0  0  0  0  0  0  0  0  0
   -2.6274    0.0085    0.1917 H   0  0  0  0  0  0  0  0  0  0  0  0
   -2.5927    0.8417    1.7689 H   0  0  0  0  0  0  0  0  0  0  0  0
   -1.2185    1.6612    7.6813 H   0  0  0  0  0  0  0  0  0  0  0  0
   -0.5719    4.4001    4.4274 H   0  0  0  0  0  0  0  0  0  0  0  0
   -0.4065    2.4629    2.8382 H   0  0  0  0  0  0  0  0  0  0  0  0
   -0.8176    7.4578    6.8762 H   0  0  0  0  0  0  0  0  0  0  0  0
   -0.2015    6.4940    8.2708 H   0  0  0  0  0  0  0  0  0  0  0  0
   -1.9562    6.5837    7.9685 H   0  0  0  0  0  0  0  0  0  0  0  0
   -1.4463   -0.7607    7.0608 H   0  0  0  0  0  0  0  0  0  0  0  0
   -1.2155   -1.2671    5.4497 H   0  0  0  0  0  0  0  0  0  0  0  0
    1.6489   -0.7451    4.4461 H   0  0  0  0  0  0  0  0  0  0  0  0
    2.1757    0.9172    4.1809 H   0  0  0  0  0  0  0  0  0  0  0  0
    3.1912   -0.4234    3.5950 H   0  0  0  0  0  0  0  0  0  0  0  0
    1.5903   -0.4238   -2.1693 H   0  0  0  0  0  0  0  0  0  0  0  0
    3.1295   -0.5336   -1.2780 H   0  0  0  0  0  0  0  0  0  0  0  0
    2.4169    1.0520   -1.6315 H   0  0  0  0  0  0  0  0  0  0  0  0
  1  2  2  0
  1  6  1  0
  1 22  1  0
  2  3  1  0
  2 21  1  0
  3  4  2  0
  3 23  1  0
  4  5  1  0
  4 20  1  0
  5  6  2  0
  5  8  1  0
  6  7  1  0
  7 24  1  0
  7 25  1  0
  7 26  1  0
  8  9  1  0
  9 10  2  0
  9 14  1  0
 10 11  1  0
 10 19  1  0
 11 12  2  0
 11 27  1  0
 12 13  1  0
 12 15  1  0
 13 14  2  0
 13 28  1  0
 14 29  1  0
 15 16  2  0
 15 17  1  0
 17 18  1  0
 18 30  1  0
 18 31  1  0
 18 32  1  0
 19 33  1  0
 19 34  1  0
 20 35  1  0
 20 36  1  0
 20 37  1  0
 21 38  1  0
 21 39  1  0
 21 40  1  0
M  END

