40
rmsd147.gzmat
C          0.00000        0.00000        0.00000
C          1.39770        0.00000        0.00000
C          2.10560        0.00000        1.20370
C          1.42580       -0.00250        2.42200
C          0.02920       -0.00910        2.39150
C         -0.70500       -0.00360        1.20270
C         -2.19080       -0.01270        1.23900
O         -0.67070       -0.14490        3.58040
C         -0.82580        1.00500        4.30890
C         -1.12400        0.77330        5.67930
C         -1.39850        1.87910        6.48590
C         -1.34920        3.16810        5.94320
C         -1.03390        3.37810        4.60440
C         -0.77140        2.28430        3.77800
C         -1.65150        4.29440        6.84310
O         -2.11030        4.23990        7.95680
O         -1.33530        5.48120        6.25350
C         -1.60910        6.64880        7.01900
N         -1.04090       -0.51740        6.21480
C          2.14670        0.01040        3.72110
C          2.12600        0.00680       -1.30150
H         -0.54050        0.00380       -0.94310
H          3.19280        0.00230        1.19510
H         -2.56920       -1.02820        1.44070
H         -2.64120        0.32520        0.29670
H         -2.58260        0.63270        2.04190
H         -1.64190        1.74710        7.54200
H         -0.99540        4.38880        4.19530
H         -0.53030        2.43700        2.72690
H         -1.17430        7.44960        6.41130
H         -1.13040        6.58920        8.00200
H         -2.69090        6.77370        7.12870
H         -1.59400       -0.70730        7.02800
H         -1.01930       -1.27210        5.55370
H          1.69560       -0.69090        4.44350
H          2.09840        1.00780        4.18970
H          3.20660       -0.25660        3.62450
H          1.76480       -0.78840       -1.97020
H          3.20760       -0.14040       -1.18430
H          1.98460        0.96310       -1.82760
