
     RDKit          3D

 40 41  0  0  0  0  0  0  0  0999 V2000
    0.0245   -0.0355   -0.0466 C   0  0  0  0  0  0  0  0  0  0  0  0
    1.4245    0.0016   -0.0318 C   0  0  0  0  0  0  0  0  0  0  0  0
    2.0774    0.0210    1.2087 C   0  0  0  0  0  0  0  0  0  0  0  0
    1.3722    0.0035    2.4172 C   0  0  0  0  0  0  0  0  0  0  0  0
   -0.0289   -0.0327    2.3495 C   0  0  0  0  0  0  0  0  0  0  0  0
   -0.7264   -0.0524    1.1360 C   0  0  0  0  0  0  0  0  0  0  0  0
   -2.2314   -0.0863    1.1327 C   0  0  0  0  0  0  0  0  0  0  0  0
   -0.7590   -0.0982    3.5269 O   0  0  0  0  0  0  0  0  0  0  0  0
   -0.8693    1.0247    4.3091 C   0  0  0  0  0  0  0  0  0  0  0  0
   -1.1300    0.7755    5.6781 C   0  0  0  0  0  0  0  0  0  0  0  0
   -1.2940    1.8788    6.5200 C   0  0  0  0  0  0  0  0  0  0  0  0
   -1.1867    3.1892    6.0284 C   0  0  0  0  0  0  0  0  0  0  0  0
   -0.9126    3.4130    4.6729 C   0  0  0  0  0  0  0  0  0  0  0  0
   -0.7568    2.3221    3.8148 C   0  0  0  0  0  0  0  0  0  0  0  0
   -1.3723    4.3012    6.9973 C   0  0  0  0  0  0  0  0  0  0  0  0
   -1.6188    4.1590    8.1746 O   0  0  0  0  0  0  0  0  0  0  0  0
   -1.2368    5.5164    6.4251 O   0  0  0  0  0  0  0  0  0  0  0  0
   -1.4021    6.6338    7.2910 C   0  0  0  0  0  0  0  0  0  0  0  0
   -1.1470   -0.5332    6.1286 N   0  0  0  0  0  0  0  0  0  0  0  0
    2.0685    0.0309    3.7515 C   0  0  0  0  0  0  0  0  0  0  0  0
    2.2168   -0.0096   -1.3154 C   0  0  0  0  0  0  0  0  0  0  0  0
   -0.5027   -0.0486   -1.0047 H   0  0  0  0  0  0  0  0  0  0  0  0
    3.1708    0.0458    1.2395 H   0  0  0  0  0  0  0  0  0  0  0  0
   -2.6106   -0.9837    1.6473 H   0  0  0  0  0  0  0  0  0  0  0  0
   -2.6250   -0.0831    0.1065 H   0  0  0  0  0  0  0  0  0  0  0  0
   -2.6512    0.7817    1.6666 H   0  0  0  0  0  0  0  0  0  0  0  0
   -1.4954    1.7377    7.5836 H   0  0  0  0  0  0  0  0  0  0  0  0
   -0.8276    4.4314    4.2965 H   0  0  0  0  0  0  0  0  0  0  0  0
   -0.5427    2.4699    2.7551 H   0  0  0  0  0  0  0  0  0  0  0  0
   -1.2609    7.5273    6.6702 H   0  0  0  0  0  0  0  0  0  0  0  0
   -0.6612    6.6133    8.1049 H   0  0  0  0  0  0  0  0  0  0  0  0
   -2.4064    6.6368    7.7418 H   0  0  0  0  0  0  0  0  0  0  0  0
   -1.6220   -0.7022    7.0068 H   0  0  0  0  0  0  0  0  0  0  0  0
   -1.3182   -1.2327    5.4158 H   0  0  0  0  0  0  0  0  0  0  0  0
    1.5713   -0.6338    4.4736 H   0  0  0  0  0  0  0  0  0  0  0  0
    2.0419    1.0423    4.1906 H   0  0  0  0  0  0  0  0  0  0  0  0
    3.1216   -0.2690    3.6549 H   0  0  0  0  0  0  0  0  0  0  0  0
    2.6224   -1.0151   -1.5228 H   0  0  0  0  0  0  0  0  0  0  0  0
    3.0738    0.6801   -1.2659 H   0  0  0  0  0  0  0  0  0  0  0  0
    1.5956    0.2790   -2.1761 H   0  0  0  0  0  0  0  0  0  0  0  0
  1  2  2  0
  1  6  1  0
  1 22  1  0
  2  3  1  0
  2 21  1  0
  3  4  2  0
  3 23  1  0
  4  5  1  0
  4 20  1  0
  5  6  2  0
  5  8  1  0
  6  7  1  0
  7 24  1  0
  7 25  1  0
  7 26  1  0
  8  9  1  0
  9 10  2  0
  9 14  1  0
 10 11  1  0
 10 19  1  0
 11 12  2  0
 11 27  1  0
 12 13  1  0
 12 15  1  0
 13 14  2  0
 13 28  1  0
 14 29  1  0
 15 16  2  0
 15 17  1  0
 17 18  1  0
 18 30  1  0
 18 31  1  0
 18 32  1  0
 19 33  1  0
 19 34  1  0
 20 35  1  0
 20 36  1  0
 20 37  1  0
 21 38  1  0
 21 39  1  0
 21 40  1  0
M  END

