40
rmsd11.gzmat
C          0.00000        0.00000        0.00000
C          1.39750        0.00000        0.00000
C          2.10320        0.00000        1.20480
C          1.42310       -0.00610        2.42320
C          0.02650       -0.01580        2.39270
C         -0.70570       -0.00420        1.20240
C         -2.19170       -0.00810        1.23320
O         -0.68060       -0.16720        3.57540
C         -0.80220        0.96040        4.34390
C         -1.08280        0.69050        5.71120
C         -1.32320        1.77470        6.55700
C         -1.26060        3.07940        6.05450
C         -0.96570        3.32630        4.71730
C         -0.73510        2.25470        3.85260
C         -1.52370        4.17800        6.99970
O         -1.95260        4.08910        8.12330
O         -1.21010        5.38160        6.44510
C         -1.42750        6.52000        7.27090
N         -1.01640       -0.61780        6.20420
C          2.15260        0.01390        3.71760
C          2.12890        0.00950       -1.30010
H         -0.54090        0.00300       -0.94300
H          3.19060        0.00510        1.19740
H         -2.57730       -1.03370        1.35130
H         -2.63350        0.40740        0.31790
H         -2.58490        0.57350        2.08280
H         -1.55060        1.61430        7.61290
H         -0.91790        4.34860        4.33930
H         -0.50840        2.43420        2.80240
H         -1.09570        7.35000        6.63640
H         -0.82480        6.44790        8.18300
H         -2.48990        6.60660        7.52350
H         -1.54700       -0.81860        7.02960
H         -1.03620       -1.35240        5.52090
H          1.63270       -0.57370        4.49320
H          2.23340        1.04250        4.10720
H          3.17130       -0.38680        3.63700
H          1.76740       -0.78190       -1.97300
H          3.21030       -0.14040       -1.18150
H          1.99210        0.96810       -1.82320
