rmsd38.gzmat
 OpenBabel08211713383D

 40 41  0  0  0  0  0  0  0  0999 V2000
    0.0000    0.0000    0.0000 C   0  0  0  0  0  0  0  0  0  0  0  0
    1.3971    0.0000    0.0000 C   0  0  0  0  0  0  0  0  0  0  0  0
    2.1027    0.0000    1.2055 C   0  0  0  0  0  0  0  0  0  0  0  0
    1.4224   -0.0073    2.4232 C   0  0  0  0  0  0  0  0  0  0  0  0
    0.0249   -0.0146    2.3930 C   0  0  0  0  0  0  0  0  0  0  0  0
   -0.7066   -0.0006    1.2025 C   0  0  0  0  0  0  0  0  0  0  0  0
   -2.1928   -0.0004    1.2292 C   0  0  0  0  0  0  0  0  0  0  0  0
   -0.6887   -0.1593    3.5730 O   0  0  0  0  0  0  0  0  0  0  0  0
   -0.7346    0.9539    4.3716 C   0  0  0  0  0  0  0  0  0  0  0  0
   -0.9630    0.6690    5.7448 C   0  0  0  0  0  0  0  0  0  0  0  0
   -1.1026    1.7461    6.6226 C   0  0  0  0  0  0  0  0  0  0  0  0
   -0.9999    3.0560    6.1418 C   0  0  0  0  0  0  0  0  0  0  0  0
   -0.7733    3.3167    4.7937 C   0  0  0  0  0  0  0  0  0  0  0  0
   -0.6393    2.2538    3.8996 C   0  0  0  0  0  0  0  0  0  0  0  0
   -1.1353    4.1490    7.1199 C   0  0  0  0  0  0  0  0  0  0  0  0
   -1.4825    4.0621    8.2714 O   0  0  0  0  0  0  0  0  0  0  0  0
   -0.7987    5.3449    6.5616 O   0  0  0  0  0  0  0  0  0  0  0  0
   -0.8908    6.4762    7.4202 C   0  0  0  0  0  0  0  0  0  0  0  0
   -0.9428   -0.6508    6.2103 N   0  0  0  0  0  0  0  0  0  0  0  0
    2.1496    0.0058    3.7189 C   0  0  0  0  0  0  0  0  0  0  0  0
    2.1302    0.0143   -1.2989 C   0  0  0  0  0  0  0  0  0  0  0  0
   -0.5421    0.0000   -0.9423 H   0  0  0  0  0  0  0  0  0  0  0  0
    3.1899    0.0053    1.1981 H   0  0  0  0  0  0  0  0  0  0  0  0
   -2.5824   -1.0302    1.2685 H   0  0  0  0  0  0  0  0  0  0  0  0
   -2.6299    0.4834    0.3457 H   0  0  0  0  0  0  0  0  0  0  0  0
   -2.5889    0.5178    2.1173 H   0  0  0  0  0  0  0  0  0  0  0  0
   -1.2777    1.5741    7.6864 H   0  0  0  0  0  0  0  0  0  0  0  0
   -0.7005    4.3430    4.4312 H   0  0  0  0  0  0  0  0  0  0  0  0
   -0.4623    2.4442    2.8418 H   0  0  0  0  0  0  0  0  0  0  0  0
   -0.2278    6.3516    8.2832 H   0  0  0  0  0  0  0  0  0  0  0  0
   -1.9251    6.6156    7.7521 H   0  0  0  0  0  0  0  0  0  0  0  0
   -0.5602    7.3000    6.7777 H   0  0  0  0  0  0  0  0  0  0  0  0
   -1.4461   -0.8408    7.0555 H   0  0  0  0  0  0  0  0  0  0  0  0
   -1.0299   -1.3701    5.5161 H   0  0  0  0  0  0  0  0  0  0  0  0
    1.6917   -0.6819    4.4501 H   0  0  0  0  0  0  0  0  0  0  0  0
    2.1234    1.0093    4.1764 H   0  0  0  0  0  0  0  0  0  0  0  0
    3.2045   -0.2796    3.6199 H   0  0  0  0  0  0  0  0  0  0  0  0
    1.6878   -0.6816   -2.0260 H   0  0  0  0  0  0  0  0  0  0  0  0
    3.1874   -0.2642   -1.1930 H   0  0  0  0  0  0  0  0  0  0  0  0
    2.1029    1.0171   -1.7520 H   0  0  0  0  0  0  0  0  0  0  0  0
  1  6  1  0  0  0  0
  2  1  2  0  0  0  0
  2  3  1  0  0  0  0
  3  4  2  0  0  0  0
  4 20  1  0  0  0  0
  5  4  1  0  0  0  0
  5  8  1  0  0  0  0
  6  7  1  0  0  0  0
  6  5  2  0  0  0  0
  7 24  1  0  0  0  0
  7 26  1  0  0  0  0
  8  9  1  0  0  0  0
  9 10  1  0  0  0  0
 10 19  1  0  0  0  0
 10 11  2  0  0  0  0
 11 27  1  0  0  0  0
 12 11  1  0  0  0  0
 12 15  1  0  0  0  0
 13 12  2  0  0  0  0
 14  9  2  0  0  0  0
 14 13  1  0  0  0  0
 15 16  2  0  0  0  0
 17 15  1  0  0  0  0
 17 18  1  0  0  0  0
 18 31  1  0  0  0  0
 18 30  1  0  0  0  0
 19 33  1  0  0  0  0
 20 36  1  0  0  0  0
 20 35  1  0  0  0  0
 21 39  1  0  0  0  0
 21  2  1  0  0  0  0
 22  1  1  0  0  0  0
 23  3  1  0  0  0  0
 25  7  1  0  0  0  0
 28 13  1  0  0  0  0
 29 14  1  0  0  0  0
 32 18  1  0  0  0  0
 34 19  1  0  0  0  0
 37 20  1  0  0  0  0
 38 21  1  0  0  0  0
 40 21  1  0  0  0  0
M  END
$$$$
