rmsd147.gzmat
 OpenBabel08211713383D

 40 41  0  0  0  0  0  0  0  0999 V2000
    0.0000    0.0000    0.0000 C   0  0  0  0  0  0  0  0  0  0  0  0
    1.3977    0.0000    0.0000 C   0  0  0  0  0  0  0  0  0  0  0  0
    2.1056    0.0000    1.2037 C   0  0  0  0  0  0  0  0  0  0  0  0
    1.4258   -0.0025    2.4220 C   0  0  0  0  0  0  0  0  0  0  0  0
    0.0292   -0.0091    2.3915 C   0  0  0  0  0  0  0  0  0  0  0  0
   -0.7050   -0.0036    1.2027 C   0  0  0  0  0  0  0  0  0  0  0  0
   -2.1908   -0.0127    1.2390 C   0  0  0  0  0  0  0  0  0  0  0  0
   -0.6707   -0.1449    3.5804 O   0  0  0  0  0  0  0  0  0  0  0  0
   -0.8258    1.0050    4.3089 C   0  0  0  0  0  0  0  0  0  0  0  0
   -1.1240    0.7733    5.6793 C   0  0  0  0  0  0  0  0  0  0  0  0
   -1.3985    1.8791    6.4859 C   0  0  0  0  0  0  0  0  0  0  0  0
   -1.3492    3.1681    5.9432 C   0  0  0  0  0  0  0  0  0  0  0  0
   -1.0339    3.3781    4.6044 C   0  0  0  0  0  0  0  0  0  0  0  0
   -0.7714    2.2843    3.7780 C   0  0  0  0  0  0  0  0  0  0  0  0
   -1.6515    4.2944    6.8431 C   0  0  0  0  0  0  0  0  0  0  0  0
   -2.1103    4.2399    7.9568 O   0  0  0  0  0  0  0  0  0  0  0  0
   -1.3353    5.4812    6.2535 O   0  0  0  0  0  0  0  0  0  0  0  0
   -1.6091    6.6488    7.0190 C   0  0  0  0  0  0  0  0  0  0  0  0
   -1.0409   -0.5174    6.2148 N   0  0  0  0  0  0  0  0  0  0  0  0
    2.1467    0.0104    3.7211 C   0  0  0  0  0  0  0  0  0  0  0  0
    2.1260    0.0068   -1.3015 C   0  0  0  0  0  0  0  0  0  0  0  0
   -0.5405    0.0038   -0.9431 H   0  0  0  0  0  0  0  0  0  0  0  0
    3.1928    0.0023    1.1951 H   0  0  0  0  0  0  0  0  0  0  0  0
   -2.5692   -1.0282    1.4407 H   0  0  0  0  0  0  0  0  0  0  0  0
   -2.6412    0.3252    0.2967 H   0  0  0  0  0  0  0  0  0  0  0  0
   -2.5826    0.6327    2.0419 H   0  0  0  0  0  0  0  0  0  0  0  0
   -1.6419    1.7471    7.5420 H   0  0  0  0  0  0  0  0  0  0  0  0
   -0.9954    4.3888    4.1953 H   0  0  0  0  0  0  0  0  0  0  0  0
   -0.5303    2.4370    2.7269 H   0  0  0  0  0  0  0  0  0  0  0  0
   -1.1743    7.4496    6.4113 H   0  0  0  0  0  0  0  0  0  0  0  0
   -1.1304    6.5892    8.0020 H   0  0  0  0  0  0  0  0  0  0  0  0
   -2.6909    6.7737    7.1287 H   0  0  0  0  0  0  0  0  0  0  0  0
   -1.5940   -0.7073    7.0280 H   0  0  0  0  0  0  0  0  0  0  0  0
   -1.0193   -1.2721    5.5537 H   0  0  0  0  0  0  0  0  0  0  0  0
    1.6956   -0.6909    4.4435 H   0  0  0  0  0  0  0  0  0  0  0  0
    2.0984    1.0078    4.1897 H   0  0  0  0  0  0  0  0  0  0  0  0
    3.2066   -0.2566    3.6245 H   0  0  0  0  0  0  0  0  0  0  0  0
    1.7648   -0.7884   -1.9702 H   0  0  0  0  0  0  0  0  0  0  0  0
    3.2076   -0.1404   -1.1843 H   0  0  0  0  0  0  0  0  0  0  0  0
    1.9846    0.9631   -1.8276 H   0  0  0  0  0  0  0  0  0  0  0  0
  1  6  1  0  0  0  0
  2  1  2  0  0  0  0
  2  3  1  0  0  0  0
  3  4  2  0  0  0  0
  4 20  1  0  0  0  0
  5  4  1  0  0  0  0
  5  8  1  0  0  0  0
  6  7  1  0  0  0  0
  6  5  2  0  0  0  0
  7 24  1  0  0  0  0
  7 26  1  0  0  0  0
  8  9  1  0  0  0  0
  9 10  1  0  0  0  0
 10 19  1  0  0  0  0
 10 11  2  0  0  0  0
 11 27  1  0  0  0  0
 12 11  1  0  0  0  0
 12 15  1  0  0  0  0
 13 12  2  0  0  0  0
 14  9  2  0  0  0  0
 14 13  1  0  0  0  0
 15 16  2  0  0  0  0
 17 15  1  0  0  0  0
 17 18  1  0  0  0  0
 18 32  1  0  0  0  0
 18 31  1  0  0  0  0
 19 33  1  0  0  0  0
 20 36  1  0  0  0  0
 20 35  1  0  0  0  0
 21 39  1  0  0  0  0
 21  2  1  0  0  0  0
 22  1  1  0  0  0  0
 23  3  1  0  0  0  0
 25  7  1  0  0  0  0
 28 13  1  0  0  0  0
 29 14  1  0  0  0  0
 30 18  1  0  0  0  0
 34 19  1  0  0  0  0
 37 20  1  0  0  0  0
 38 21  1  0  0  0  0
 40 21  1  0  0  0  0
M  END
$$$$
