rmsd142.gzmat
 OpenBabel08211713383D

 40 41  0  0  0  0  0  0  0  0999 V2000
    0.0000    0.0000    0.0000 C   0  0  0  0  0  0  0  0  0  0  0  0
    1.3976    0.0000    0.0000 C   0  0  0  0  0  0  0  0  0  0  0  0
    2.1043    0.0000    1.2041 C   0  0  0  0  0  0  0  0  0  0  0  0
    1.4241    0.0029    2.4223 C   0  0  0  0  0  0  0  0  0  0  0  0
    0.0273    0.0024    2.3919 C   0  0  0  0  0  0  0  0  0  0  0  0
   -0.7057    0.0044    1.2024 C   0  0  0  0  0  0  0  0  0  0  0  0
   -2.1918   -0.0017    1.2346 C   0  0  0  0  0  0  0  0  0  0  0  0
   -0.6789   -0.1177    3.5793 O   0  0  0  0  0  0  0  0  0  0  0  0
   -0.7822    1.0330    4.3169 C   0  0  0  0  0  0  0  0  0  0  0  0
   -1.0373    0.8085    5.6969 C   0  0  0  0  0  0  0  0  0  0  0  0
   -1.2417    1.9217    6.5140 C   0  0  0  0  0  0  0  0  0  0  0  0
   -1.1831    3.2090    5.9685 C   0  0  0  0  0  0  0  0  0  0  0  0
   -0.9183    3.4113    4.6178 C   0  0  0  0  0  0  0  0  0  0  0  0
   -0.7137    2.3109    3.7838 C   0  0  0  0  0  0  0  0  0  0  0  0
   -1.4069    4.3379    6.8874 C   0  0  0  0  0  0  0  0  0  0  0  0
   -1.4558    4.3003    8.0918 O   0  0  0  0  0  0  0  0  0  0  0  0
   -1.5788    5.5011    6.2007 O   0  0  0  0  0  0  0  0  0  0  0  0
   -1.8046    6.6584    6.9981 C   0  0  0  0  0  0  0  0  0  0  0  0
   -0.9800   -0.4839    6.2299 N   0  0  0  0  0  0  0  0  0  0  0  0
    2.1502    0.0214    3.7184 C   0  0  0  0  0  0  0  0  0  0  0  0
    2.1275    0.0116   -1.3006 C   0  0  0  0  0  0  0  0  0  0  0  0
   -0.5404   -0.0010   -0.9432 H   0  0  0  0  0  0  0  0  0  0  0  0
    3.1916   -0.0005    1.1963 H   0  0  0  0  0  0  0  0  0  0  0  0
   -2.5721   -1.0219    1.4047 H   0  0  0  0  0  0  0  0  0  0  0  0
   -2.6378    0.3631    0.3002 H   0  0  0  0  0  0  0  0  0  0  0  0
   -2.5863    0.6207    2.0540 H   0  0  0  0  0  0  0  0  0  0  0  0
   -1.4294    1.7973    7.5824 H   0  0  0  0  0  0  0  0  0  0  0  0
   -0.8711    4.4204    4.2061 H   0  0  0  0  0  0  0  0  0  0  0  0
   -0.5054    2.4558    2.7243 H   0  0  0  0  0  0  0  0  0  0  0  0
   -0.9033    6.8936    7.5732 H   0  0  0  0  0  0  0  0  0  0  0  0
   -2.6546    6.5035    7.6716 H   0  0  0  0  0  0  0  0  0  0  0  0
   -2.0212    7.4323    6.2540 H   0  0  0  0  0  0  0  0  0  0  0  0
   -1.4899   -0.6487    7.0761 H   0  0  0  0  0  0  0  0  0  0  0  0
   -1.0251   -1.2405    5.5728 H   0  0  0  0  0  0  0  0  0  0  0  0
    1.6516   -0.6054    4.4771 H   0  0  0  0  0  0  0  0  0  0  0  0
    2.1860    1.0411    4.1364 H   0  0  0  0  0  0  0  0  0  0  0  0
    3.1847   -0.3343    3.6316 H   0  0  0  0  0  0  0  0  0  0  0  0
    1.8021   -0.8108   -1.9545 H   0  0  0  0  0  0  0  0  0  0  0  0
    3.2144   -0.0872   -1.1805 H   0  0  0  0  0  0  0  0  0  0  0  0
    1.9463    0.9509   -1.8448 H   0  0  0  0  0  0  0  0  0  0  0  0
  1  6  1  0  0  0  0
  2  1  2  0  0  0  0
  2  3  1  0  0  0  0
  3  4  2  0  0  0  0
  4 20  1  0  0  0  0
  5  4  1  0  0  0  0
  5  8  1  0  0  0  0
  6  7  1  0  0  0  0
  6  5  2  0  0  0  0
  7 24  1  0  0  0  0
  7 26  1  0  0  0  0
  8  9  1  0  0  0  0
  9 10  1  0  0  0  0
 10 19  1  0  0  0  0
 10 11  2  0  0  0  0
 11 27  1  0  0  0  0
 12 11  1  0  0  0  0
 12 15  1  0  0  0  0
 13 12  2  0  0  0  0
 14  9  2  0  0  0  0
 14 13  1  0  0  0  0
 15 16  2  0  0  0  0
 17 15  1  0  0  0  0
 17 18  1  0  0  0  0
 18 30  1  0  0  0  0
 18 31  1  0  0  0  0
 19 33  1  0  0  0  0
 20 36  1  0  0  0  0
 20 35  1  0  0  0  0
 21 39  1  0  0  0  0
 21  2  1  0  0  0  0
 22  1  1  0  0  0  0
 23  3  1  0  0  0  0
 25  7  1  0  0  0  0
 28 13  1  0  0  0  0
 29 14  1  0  0  0  0
 32 18  1  0  0  0  0
 34 19  1  0  0  0  0
 37 20  1  0  0  0  0
 38 21  1  0  0  0  0
 40 21  1  0  0  0  0
M  END
$$$$
