rmsd11.gzmat
 OpenBabel08211713383D

 40 41  0  0  0  0  0  0  0  0999 V2000
    0.0000    0.0000    0.0000 C   0  0  0  0  0  0  0  0  0  0  0  0
    1.3975    0.0000    0.0000 C   0  0  0  0  0  0  0  0  0  0  0  0
    2.1032    0.0000    1.2048 C   0  0  0  0  0  0  0  0  0  0  0  0
    1.4231   -0.0061    2.4232 C   0  0  0  0  0  0  0  0  0  0  0  0
    0.0265   -0.0158    2.3927 C   0  0  0  0  0  0  0  0  0  0  0  0
   -0.7057   -0.0042    1.2024 C   0  0  0  0  0  0  0  0  0  0  0  0
   -2.1917   -0.0081    1.2332 C   0  0  0  0  0  0  0  0  0  0  0  0
   -0.6806   -0.1672    3.5754 O   0  0  0  0  0  0  0  0  0  0  0  0
   -0.8022    0.9604    4.3439 C   0  0  0  0  0  0  0  0  0  0  0  0
   -1.0828    0.6905    5.7112 C   0  0  0  0  0  0  0  0  0  0  0  0
   -1.3232    1.7747    6.5570 C   0  0  0  0  0  0  0  0  0  0  0  0
   -1.2606    3.0794    6.0545 C   0  0  0  0  0  0  0  0  0  0  0  0
   -0.9657    3.3263    4.7173 C   0  0  0  0  0  0  0  0  0  0  0  0
   -0.7351    2.2547    3.8526 C   0  0  0  0  0  0  0  0  0  0  0  0
   -1.5237    4.1780    6.9997 C   0  0  0  0  0  0  0  0  0  0  0  0
   -1.9526    4.0891    8.1233 O   0  0  0  0  0  0  0  0  0  0  0  0
   -1.2101    5.3816    6.4451 O   0  0  0  0  0  0  0  0  0  0  0  0
   -1.4275    6.5200    7.2709 C   0  0  0  0  0  0  0  0  0  0  0  0
   -1.0164   -0.6178    6.2042 N   0  0  0  0  0  0  0  0  0  0  0  0
    2.1526    0.0139    3.7176 C   0  0  0  0  0  0  0  0  0  0  0  0
    2.1289    0.0095   -1.3001 C   0  0  0  0  0  0  0  0  0  0  0  0
   -0.5409    0.0030   -0.9430 H   0  0  0  0  0  0  0  0  0  0  0  0
    3.1906    0.0051    1.1974 H   0  0  0  0  0  0  0  0  0  0  0  0
   -2.5773   -1.0337    1.3513 H   0  0  0  0  0  0  0  0  0  0  0  0
   -2.6335    0.4074    0.3179 H   0  0  0  0  0  0  0  0  0  0  0  0
   -2.5849    0.5735    2.0828 H   0  0  0  0  0  0  0  0  0  0  0  0
   -1.5506    1.6143    7.6129 H   0  0  0  0  0  0  0  0  0  0  0  0
   -0.9179    4.3486    4.3393 H   0  0  0  0  0  0  0  0  0  0  0  0
   -0.5084    2.4342    2.8024 H   0  0  0  0  0  0  0  0  0  0  0  0
   -1.0957    7.3500    6.6364 H   0  0  0  0  0  0  0  0  0  0  0  0
   -0.8248    6.4479    8.1830 H   0  0  0  0  0  0  0  0  0  0  0  0
   -2.4899    6.6066    7.5235 H   0  0  0  0  0  0  0  0  0  0  0  0
   -1.5470   -0.8186    7.0296 H   0  0  0  0  0  0  0  0  0  0  0  0
   -1.0362   -1.3524    5.5209 H   0  0  0  0  0  0  0  0  0  0  0  0
    1.6327   -0.5737    4.4932 H   0  0  0  0  0  0  0  0  0  0  0  0
    2.2334    1.0425    4.1072 H   0  0  0  0  0  0  0  0  0  0  0  0
    3.1713   -0.3868    3.6370 H   0  0  0  0  0  0  0  0  0  0  0  0
    1.7674   -0.7819   -1.9730 H   0  0  0  0  0  0  0  0  0  0  0  0
    3.2103   -0.1404   -1.1815 H   0  0  0  0  0  0  0  0  0  0  0  0
    1.9921    0.9681   -1.8232 H   0  0  0  0  0  0  0  0  0  0  0  0
  1  6  1  0  0  0  0
  2  1  2  0  0  0  0
  2  3  1  0  0  0  0
  3  4  2  0  0  0  0
  4 20  1  0  0  0  0
  5  4  1  0  0  0  0
  5  8  1  0  0  0  0
  6  7  1  0  0  0  0
  6  5  2  0  0  0  0
  7 24  1  0  0  0  0
  7 26  1  0  0  0  0
  8  9  1  0  0  0  0
  9 10  1  0  0  0  0
 10 19  1  0  0  0  0
 10 11  2  0  0  0  0
 11 27  1  0  0  0  0
 12 11  1  0  0  0  0
 12 15  1  0  0  0  0
 13 12  2  0  0  0  0
 14  9  2  0  0  0  0
 14 13  1  0  0  0  0
 15 16  2  0  0  0  0
 17 15  1  0  0  0  0
 17 18  1  0  0  0  0
 18 32  1  0  0  0  0
 18 31  1  0  0  0  0
 19 33  1  0  0  0  0
 20 36  1  0  0  0  0
 20 35  1  0  0  0  0
 21 39  1  0  0  0  0
 21  2  1  0  0  0  0
 22  1  1  0  0  0  0
 23  3  1  0  0  0  0
 25  7  1  0  0  0  0
 28 13  1  0  0  0  0
 29 14  1  0  0  0  0
 30 18  1  0  0  0  0
 34 19  1  0  0  0  0
 37 20  1  0  0  0  0
 38 21  1  0  0  0  0
 40 21  1  0  0  0  0
M  END
$$$$
