78
rmsd110.gzmat
C          0.00000        0.00000        0.00000
O          1.36020        0.00000        0.00000
C         -0.74430        0.00000       -1.17550
C         -2.13720        0.00280       -1.08440
C         -2.75330       -0.00040        0.16050
C         -1.98250       -0.01340        1.32870
C         -0.59180       -0.00320        1.28000
C          0.28890        0.01170        2.47540
C         -2.72520       -0.00430        2.61680
O         -3.56620        0.82940        2.90380
N         -2.46820       -1.05290        3.48010
C         -3.07680       -1.00870        4.80870
H         -4.14870       -0.66520        4.67900
C         -3.12210       -2.40360        5.45100
C         -1.80270       -3.07420        5.66880
C         -1.23410       -3.08850        6.94570
C         -0.02090       -3.73450        7.16360
C          0.62910       -4.37620        6.11040
C          0.05210       -4.38490        4.84220
C         -1.16540       -3.74440        4.62210
C         -2.34070        0.07840        5.65480
H         -2.31000        1.04890        5.09390
O         -0.99010       -0.20750        5.82330
C         -3.04310        0.20940        7.00310
O         -2.63880       -0.36060        7.99690
N         -4.23600        0.91000        7.03870
C         -4.64910        1.82170        5.97150
S         -6.26620        2.51430        6.49900
C         -5.90110        2.23770        8.30920
C         -7.21040        1.99850        9.03660
C         -5.18050        3.44780        8.89040
C         -4.95840        1.00930        8.31770
H         -4.20310        1.10670        9.15720
C         -5.73820       -0.28840        8.62250
O         -6.02510       -0.55670        9.77370
N         -6.11750       -1.09100        7.57670
C         -6.70910       -2.40850        7.83960
C         -5.77150       -3.51440        7.42990
C         -4.66080       -3.86640        8.20780
C         -3.84620       -4.92620        7.79040
C         -4.12110       -5.61300        6.61300
C         -5.21710       -5.24750        5.83230
C         -6.03900       -4.20370        6.24520
C         -4.29670       -3.12830        9.44580
H          1.73100        0.02120       -0.91480
H         -0.25800        0.00100       -2.14570
H         -2.73830        0.01010       -1.99260
H         -3.84110        0.02000        0.23710
H          1.12940        0.71580        2.34510
H          0.74840       -0.97420        2.65030
H         -0.22090        0.30730        3.40580
H         -1.67350       -1.66400        3.35240
H         -3.77090       -3.06320        4.82760
H         -3.66960       -2.32870        6.42140
H         -1.74760       -2.59830        7.77810
H          0.41820       -3.74030        8.16000
H          1.58100       -4.87380        6.28010
H          0.54950       -4.89930        4.02210
H         -1.62690       -3.78810        3.63770
H         -0.84570       -0.85960        6.55620
H         -4.77180        1.28930        4.99730
H         -3.90740        2.63720        5.82100
H         -7.82630        1.20660        8.58380
H         -7.83170        2.90180        9.08770
H         -7.03090        1.67680       10.07820
H         -4.20530        3.62820        8.41940
H         -4.99840        3.31750        9.96740
H         -5.76580        4.37140        8.78500
H         -5.80600       -0.90740        6.63750
H         -7.67730       -2.47090        7.28820
H         -6.97120       -2.49850        8.92580
H         -2.98300       -5.21030        8.39030
H         -3.47730       -6.43250        6.29870
H         -5.43100       -5.78030        4.90970
H         -6.90060       -3.92850        5.63890
H         -3.62790       -3.69550       10.10450
H         -5.17310       -2.84050       10.05040
H         -3.78060       -2.17920        9.20570
