
     RDKit          3D

 78 81  0  0  0  0  0  0  0  0999 V2000
   -0.6374    0.3274   -0.4931 C   0  0  0  0  0  0  0  0  0  0  0  0
    0.4920    0.9384   -0.9451 O   0  0  0  0  0  0  0  0  0  0  0  0
   -1.4326   -0.4668   -1.3247 C   0  0  0  0  0  0  0  0  0  0  0  0
   -2.5738   -1.0903   -0.8159 C   0  0  0  0  0  0  0  0  0  0  0  0
   -2.9199   -0.9167    0.5195 C   0  0  0  0  0  0  0  0  0  0  0  0
   -2.1325   -0.0984    1.3453 C   0  0  0  0  0  0  0  0  0  0  0  0
   -0.9667    0.5283    0.8654 C   0  0  0  0  0  0  0  0  0  0  0  0
   -0.0287    1.3552    1.7085 C   0  0  0  0  0  0  0  0  0  0  0  0
   -2.6167    0.0612    2.7545 C   0  0  0  0  0  0  0  0  0  0  0  0
   -2.9351   -0.9101    3.4487 O   0  0  0  0  0  0  0  0  0  0  0  0
   -2.7345    1.3301    3.2083 N   0  0  0  0  0  0  0  0  0  0  0  0
   -3.2730    1.6274    4.5251 C   0  0  1  0  0  0  0  0  0  0  0  0
   -2.8466    0.8828    5.2099 H   0  0  0  0  0  0  0  0  0  0  0  0
   -2.8432    3.0251    4.9807 C   0  0  0  0  0  0  0  0  0  0  0  0
   -1.3483    3.2204    4.8995 C   0  0  0  0  0  0  0  0  0  0  0  0
   -0.7947    4.1639    4.0244 C   0  0  0  0  0  0  0  0  0  0  0  0
    0.5911    4.3055    3.9020 C   0  0  0  0  0  0  0  0  0  0  0  0
    1.4458    3.4985    4.6549 C   0  0  0  0  0  0  0  0  0  0  0  0
    0.9056    2.5563    5.5370 C   0  0  0  0  0  0  0  0  0  0  0  0
   -0.4781    2.4213    5.6581 C   0  0  0  0  0  0  0  0  0  0  0  0
   -4.8141    1.4594    4.5137 C   0  0  2  0  0  0  0  0  0  0  0  0
   -5.0321    0.5051    4.0132 H   0  0  0  0  0  0  0  0  0  0  0  0
   -5.4349    2.4976    3.8071 O   0  0  0  0  0  0  0  0  0  0  0  0
   -5.3945    1.4286    5.9338 C   0  0  0  0  0  0  0  0  0  0  0  0
   -6.0128    2.4117    6.3327 O   0  0  0  0  0  0  0  0  0  0  0  0
   -5.1860    0.3237    6.6888 N   0  0  0  0  0  0  0  0  0  0  0  0
   -5.8361    0.2216    7.9908 C   0  0  0  0  0  0  0  0  0  0  0  0
   -5.0857   -1.2289    8.8251 S   0  0  0  0  0  0  0  0  0  0  0  0
   -4.0018   -1.6575    7.3725 C   0  0  0  0  0  0  0  0  0  0  0  0
   -3.9561   -3.1749    7.1998 C   0  0  0  0  0  0  0  0  0  0  0  0
   -2.5968   -1.0813    7.5891 C   0  0  0  0  0  0  0  0  0  0  0  0
   -4.6609   -0.9362    6.1730 C   0  0  1  0  0  0  0  0  0  0  0  0
   -3.8745   -0.7454    5.4365 H   0  0  0  0  0  0  0  0  0  0  0  0
   -5.7771   -1.7254    5.4743 C   0  0  0  0  0  0  0  0  0  0  0  0
   -6.8987   -1.8267    5.9517 O   0  0  0  0  0  0  0  0  0  0  0  0
   -5.4007   -2.2474    4.2803 N   0  0  0  0  0  0  0  0  0  0  0  0
   -6.3233   -2.9755    3.4245 C   0  0  0  0  0  0  0  0  0  0  0  0
   -6.3723   -2.4168    2.0175 C   0  0  0  0  0  0  0  0  0  0  0  0
   -6.9050   -1.1379    1.7386 C   0  0  0  0  0  0  0  0  0  0  0  0
   -6.8811   -0.6837    0.4097 C   0  0  0  0  0  0  0  0  0  0  0  0
   -6.3702   -1.4640   -0.6275 C   0  0  0  0  0  0  0  0  0  0  0  0
   -5.8634   -2.7352   -0.3504 C   0  0  0  0  0  0  0  0  0  0  0  0
   -5.8603   -3.1941    0.9670 C   0  0  0  0  0  0  0  0  0  0  0  0
   -7.5198   -0.2487    2.7942 C   0  0  0  0  0  0  0  0  0  0  0  0
    0.6351    0.7036   -1.8710 H   0  0  0  0  0  0  0  0  0  0  0  0
   -1.1491   -0.5990   -2.3737 H   0  0  0  0  0  0  0  0  0  0  0  0
   -3.1960   -1.7102   -1.4639 H   0  0  0  0  0  0  0  0  0  0  0  0
   -3.8082   -1.3957    0.9287 H   0  0  0  0  0  0  0  0  0  0  0  0
    1.0139    1.0975    1.4728 H   0  0  0  0  0  0  0  0  0  0  0  0
   -0.1904    1.2188    2.7837 H   0  0  0  0  0  0  0  0  0  0  0  0
   -0.1309    2.4320    1.4925 H   0  0  0  0  0  0  0  0  0  0  0  0
   -2.5719    2.0947    2.5643 H   0  0  0  0  0  0  0  0  0  0  0  0
   -3.2032    3.1722    6.0116 H   0  0  0  0  0  0  0  0  0  0  0  0
   -3.3629    3.7697    4.3599 H   0  0  0  0  0  0  0  0  0  0  0  0
   -1.4598    4.7957    3.4289 H   0  0  0  0  0  0  0  0  0  0  0  0
    1.0026    5.0466    3.2125 H   0  0  0  0  0  0  0  0  0  0  0  0
    2.5289    3.6030    4.5583 H   0  0  0  0  0  0  0  0  0  0  0  0
    1.5671    1.9237    6.1339 H   0  0  0  0  0  0  0  0  0  0  0  0
   -0.8889    1.6802    6.3494 H   0  0  0  0  0  0  0  0  0  0  0  0
   -5.9072    3.0072    4.4978 H   0  0  0  0  0  0  0  0  0  0  0  0
   -6.9155    0.0485    7.8703 H   0  0  0  0  0  0  0  0  0  0  0  0
   -5.6716    1.1480    8.5569 H   0  0  0  0  0  0  0  0  0  0  0  0
   -4.9674   -3.5916    7.1023 H   0  0  0  0  0  0  0  0  0  0  0  0
   -3.4713   -3.6451    8.0687 H   0  0  0  0  0  0  0  0  0  0  0  0
   -3.3731   -3.4380    6.3026 H   0  0  0  0  0  0  0  0  0  0  0  0
   -2.6372    0.0138    7.6868 H   0  0  0  0  0  0  0  0  0  0  0  0
   -1.9413   -1.3359    6.7386 H   0  0  0  0  0  0  0  0  0  0  0  0
   -2.1504   -1.4839    8.5098 H   0  0  0  0  0  0  0  0  0  0  0  0
   -4.4819   -2.0023    3.9067 H   0  0  0  0  0  0  0  0  0  0  0  0
   -7.3045   -2.9310    3.9180 H   0  0  0  0  0  0  0  0  0  0  0  0
   -6.0318   -4.0381    3.3788 H   0  0  0  0  0  0  0  0  0  0  0  0
   -7.2871    0.3073    0.1879 H   0  0  0  0  0  0  0  0  0  0  0  0
   -6.3708   -1.0799   -1.6504 H   0  0  0  0  0  0  0  0  0  0  0  0
   -5.4663   -3.3633   -1.1513 H   0  0  0  0  0  0  0  0  0  0  0  0
   -5.4526   -4.1829    1.1939 H   0  0  0  0  0  0  0  0  0  0  0  0
   -6.9352    0.6763    2.9276 H   0  0  0  0  0  0  0  0  0  0  0  0
   -7.6193   -0.7326    3.7733 H   0  0  0  0  0  0  0  0  0  0  0  0
   -8.5272    0.0662    2.4771 H   0  0  0  0  0  0  0  0  0  0  0  0
  1  2  1  0
  1  3  2  0
  1  7  1  0
  2 45  1  0
  3  4  1  0
  3 46  1  0
  4  5  2  0
  4 47  1  0
  5  6  1  0
  5 48  1  0
  6  7  2  0
  6  9  1  0
  7  8  1  0
  8 49  1  0
  8 50  1  0
  8 51  1  0
  9 10  2  0
  9 11  1  0
 11 12  1  0
 11 52  1  0
 12 13  1  1
 12 14  1  0
 12 21  1  0
 14 15  1  0
 14 53  1  0
 14 54  1  0
 15 16  2  0
 15 20  1  0
 16 17  1  0
 16 55  1  0
 17 18  2  0
 17 56  1  0
 18 19  1  0
 18 57  1  0
 19 20  2  0
 19 58  1  0
 20 59  1  0
 21 22  1  6
 21 23  1  0
 21 24  1  0
 23 60  1  0
 24 25  2  0
 24 26  1  0
 26 27  1  0
 26 32  1  0
 27 28  1  0
 27 61  1  0
 27 62  1  0
 28 29  1  0
 29 30  1  0
 29 31  1  0
 29 32  1  0
 30 63  1  0
 30 64  1  0
 30 65  1  0
 31 66  1  0
 31 67  1  0
 31 68  1  0
 32 33  1  6
 32 34  1  0
 34 35  2  0
 34 36  1  0
 36 37  1  0
 36 69  1  0
 37 38  1  0
 37 70  1  0
 37 71  1  0
 38 39  2  0
 38 43  1  0
 39 40  1  0
 39 44  1  0
 40 41  2  0
 40 72  1  0
 41 42  1  0
 41 73  1  0
 42 43  2  0
 42 74  1  0
 43 75  1  0
 44 76  1  0
 44 77  1  0
 44 78  1  0
M  END

