78
rmsd184.gzmat
C          0.00000        0.00000        0.00000
O          1.36100        0.00000        0.00000
C         -0.73910        0.00000       -1.18140
C         -2.13150        0.00660       -1.10450
C         -2.76410        0.01350        0.13420
C         -1.99850        0.01100        1.30110
C         -0.60510        0.00460        1.26970
C          0.20950        0.00370        2.51080
C         -2.69450       -0.00900        2.61190
O         -3.06920       -1.03910        3.16320
N         -2.89960        1.20840        3.20580
C         -3.43900        1.29560        4.57000
H         -3.00980        0.44650        5.18020
C         -3.02890        2.63840        5.20370
C         -1.53490        2.74440        5.21860
C         -0.87600        3.51480        4.25830
C          0.51650        3.55270        4.23220
C          1.25400        2.82960        5.16760
C          0.59640        2.07360        6.13700
C         -0.79510        2.03010        6.16380
C         -4.98530        1.11580        4.54700
H         -5.45770        1.43780        5.50590
O         -5.28460       -0.24510        4.45500
C         -5.58620        1.93740        3.39840
O         -5.14600        3.05610        3.18040
N         -6.66200        1.50420        2.66170
C         -7.10800        2.32410        1.53240
S         -8.86180        1.81980        1.26410
C         -8.68880        0.20080        2.18550
C         -9.06200       -0.95260        1.27020
C         -9.60220        0.23110        3.40540
C         -7.20230        0.14580        2.64250
H         -7.16160       -0.28380        3.68460
C         -6.34090       -0.69200        1.67380
O         -6.02990       -0.29920        0.56520
N         -5.94650       -1.92160        2.12970
C         -5.01840       -2.72240        1.30750
C         -4.78830       -4.04300        1.98570
C         -5.64900       -5.12860        1.78530
C         -5.40190       -6.32980        2.45540
C         -4.31480       -6.44630        3.31770
C         -3.46010       -5.36350        3.51580
C         -3.69770       -4.16550        2.84830
C         -6.82090       -5.02390        0.86870
H          1.72980       -0.03720       -0.91440
H         -0.24250       -0.00440       -2.14590
H         -2.72700        0.00570       -2.01720
H         -3.85850        0.01950        0.18810
H          1.27760       -0.18160        2.31610
H         -0.12320       -0.77250        3.21840
H          0.14980        0.97110        3.03750
H         -2.69460        2.08140        2.73420
H         -3.44190        2.71620        6.22900
H         -3.49360        3.48640        4.64650
H         -1.44670        4.08810        3.52940
H          1.02920        4.14670        3.47730
H          2.34100        2.85680        5.14360
H          1.17210        1.51450        6.87230
H         -1.30530        1.43480        6.91750
H         -4.54440       -0.74030        3.98970
H         -6.50450        2.11830        0.61820
H         -7.03840        3.40740        1.77400
H         -8.48980       -0.95120        0.32730
H        -10.12350       -0.92830        0.98930
H         -8.88400       -1.92320        1.75290
H         -9.32690        1.02560        4.11360
H         -9.56850       -0.71950        3.95420
H        -10.65330        0.39760        3.13350
H         -6.07360       -2.21010        3.08830
H         -4.05520       -2.16440        1.17730
H         -5.44410       -2.83880        0.28300
H         -6.06240       -7.17980        2.30440
H         -4.13280       -7.38520        3.83670
H         -2.61160       -5.45190        4.18970
H         -3.02940       -3.31200        3.00350
H         -7.48330       -5.89680        0.92490
H         -6.49710       -4.93440       -0.17960
H         -7.43470       -4.13860        1.09680
