
     RDKit          3D

 78 81  0  0  0  0  0  0  0  0999 V2000
    0.1025    0.6593   -0.0616 C   0  0  0  0  0  0  0  0  0  0  0  0
    1.4193    1.0068   -0.0354 O   0  0  0  0  0  0  0  0  0  0  0  0
   -0.5854    0.4497   -1.2604 C   0  0  0  0  0  0  0  0  0  0  0  0
   -1.9327    0.0831   -1.2409 C   0  0  0  0  0  0  0  0  0  0  0  0
   -2.5966   -0.0748   -0.0272 C   0  0  0  0  0  0  0  0  0  0  0  0
   -1.9011    0.1532    1.1722 C   0  0  0  0  0  0  0  0  0  0  0  0
   -0.5406    0.5119    1.1854 C   0  0  0  0  0  0  0  0  0  0  0  0
    0.2700    0.7068    2.4406 C   0  0  0  0  0  0  0  0  0  0  0  0
   -2.6721   -0.0035    2.4479 C   0  0  0  0  0  0  0  0  0  0  0  0
   -3.2193   -1.0724    2.7559 O   0  0  0  0  0  0  0  0  0  0  0  0
   -2.7572    1.0947    3.2259 N   0  0  0  0  0  0  0  0  0  0  0  0
   -3.3819    1.1094    4.5455 C   0  0  1  0  0  0  0  0  0  0  0  0
   -3.0005    0.2314    5.0928 H   0  0  0  0  0  0  0  0  0  0  0  0
   -2.9724    2.3809    5.3061 C   0  0  0  0  0  0  0  0  0  0  0  0
   -1.4782    2.5978    5.3277 C   0  0  0  0  0  0  0  0  0  0  0  0
   -0.9032    3.6635    4.6212 C   0  0  0  0  0  0  0  0  0  0  0  0
    0.4831    3.8476    4.6012 C   0  0  0  0  0  0  0  0  0  0  0  0
    1.3165    2.9629    5.2884 C   0  0  0  0  0  0  0  0  0  0  0  0
    0.7549    1.8962    5.9981 C   0  0  0  0  0  0  0  0  0  0  0  0
   -0.6291    1.7179    6.0168 C   0  0  0  0  0  0  0  0  0  0  0  0
   -4.9194    0.8826    4.4771 C   0  0  2  0  0  0  0  0  0  0  0  0
   -5.3560    1.2738    5.4135 H   0  0  0  0  0  0  0  0  0  0  0  0
   -5.2046   -0.4913    4.4345 O   0  0  0  0  0  0  0  0  0  0  0  0
   -5.5155    1.7742    3.3586 C   0  0  0  0  0  0  0  0  0  0  0  0
   -5.0901    2.9212    3.2494 O   0  0  0  0  0  0  0  0  0  0  0  0
   -6.5004    1.3252    2.5292 N   0  0  0  0  0  0  0  0  0  0  0  0
   -6.9084    2.2312    1.4537 C   0  0  0  0  0  0  0  0  0  0  0  0
   -8.4589    1.5624    0.7453 S   0  0  0  0  0  0  0  0  0  0  0  0
   -8.5652    0.1981    1.9991 C   0  0  0  0  0  0  0  0  0  0  0  0
   -9.1644   -1.0449    1.3415 C   0  0  0  0  0  0  0  0  0  0  0  0
   -9.4108    0.6498    3.1952 C   0  0  0  0  0  0  0  0  0  0  0  0
   -7.0992   -0.0030    2.4573 C   0  0  1  0  0  0  0  0  0  0  0  0
   -7.1016   -0.4464    3.4560 H   0  0  0  0  0  0  0  0  0  0  0  0
   -6.2703   -0.8892    1.5171 C   0  0  0  0  0  0  0  0  0  0  0  0
   -5.8018   -0.4621    0.4708 O   0  0  0  0  0  0  0  0  0  0  0  0
   -6.1037   -2.1656    1.9362 N   0  0  0  0  0  0  0  0  0  0  0  0
   -5.2073   -3.0794    1.2278 C   0  0  0  0  0  0  0  0  0  0  0  0
   -5.0166   -4.3416    2.0298 C   0  0  0  0  0  0  0  0  0  0  0  0
   -5.9888   -5.3661    2.0199 C   0  0  0  0  0  0  0  0  0  0  0  0
   -5.7739   -6.5001    2.8151 C   0  0  0  0  0  0  0  0  0  0  0  0
   -4.6307   -6.6251    3.6088 C   0  0  0  0  0  0  0  0  0  0  0  0
   -3.6785   -5.6046    3.6222 C   0  0  0  0  0  0  0  0  0  0  0  0
   -3.8770   -4.4675    2.8357 C   0  0  0  0  0  0  0  0  0  0  0  0
   -7.2294   -5.2490    1.1690 C   0  0  0  0  0  0  0  0  0  0  0  0
    1.7565    1.0476   -0.9395 H   0  0  0  0  0  0  0  0  0  0  0  0
   -0.0577    0.5726   -2.2117 H   0  0  0  0  0  0  0  0  0  0  0  0
   -2.4661   -0.0767   -2.1805 H   0  0  0  0  0  0  0  0  0  0  0  0
   -3.6543   -0.3434    0.0022 H   0  0  0  0  0  0  0  0  0  0  0  0
    1.2573    0.2355    2.3299 H   0  0  0  0  0  0  0  0  0  0  0  0
   -0.2212    0.2879    3.3264 H   0  0  0  0  0  0  0  0  0  0  0  0
    0.4567    1.7737    2.6434 H   0  0  0  0  0  0  0  0  0  0  0  0
   -2.3897    1.9662    2.8619 H   0  0  0  0  0  0  0  0  0  0  0  0
   -3.3585    2.2855    6.3338 H   0  0  0  0  0  0  0  0  0  0  0  0
   -3.4797    3.2361    4.8425 H   0  0  0  0  0  0  0  0  0  0  0  0
   -1.5527    4.3606    4.0843 H   0  0  0  0  0  0  0  0  0  0  0  0
    0.9118    4.6849    4.0452 H   0  0  0  0  0  0  0  0  0  0  0  0
    2.3999    3.1023    5.2724 H   0  0  0  0  0  0  0  0  0  0  0  0
    1.4000    1.2007    6.5405 H   0  0  0  0  0  0  0  0  0  0  0  0
   -1.0586    0.8811    6.5750 H   0  0  0  0  0  0  0  0  0  0  0  0
   -4.5228   -0.9004    3.8470 H   0  0  0  0  0  0  0  0  0  0  0  0
   -6.1426    2.2643    0.6647 H   0  0  0  0  0  0  0  0  0  0  0  0
   -7.0475    3.2398    1.8632 H   0  0  0  0  0  0  0  0  0  0  0  0
   -8.5948   -1.3411    0.4504 H   0  0  0  0  0  0  0  0  0  0  0  0
  -10.2038   -0.8502    1.0364 H   0  0  0  0  0  0  0  0  0  0  0  0
   -9.1755   -1.8873    2.0521 H   0  0  0  0  0  0  0  0  0  0  0  0
   -8.9559    1.5197    3.6905 H   0  0  0  0  0  0  0  0  0  0  0  0
   -9.5000   -0.1645    3.9352 H   0  0  0  0  0  0  0  0  0  0  0  0
  -10.4209    0.9350    2.8676 H   0  0  0  0  0  0  0  0  0  0  0  0
   -6.3194   -2.3841    2.9022 H   0  0  0  0  0  0  0  0  0  0  0  0
   -4.2422   -2.5762    1.0785 H   0  0  0  0  0  0  0  0  0  0  0  0
   -5.6280   -3.2867    0.2317 H   0  0  0  0  0  0  0  0  0  0  0  0
   -6.5193   -7.3002    2.8111 H   0  0  0  0  0  0  0  0  0  0  0  0
   -4.4878   -7.5206    4.2188 H   0  0  0  0  0  0  0  0  0  0  0  0
   -2.7843   -5.6910    4.2440 H   0  0  0  0  0  0  0  0  0  0  0  0
   -3.1511   -3.6507    2.8441 H   0  0  0  0  0  0  0  0  0  0  0  0
   -7.9208   -6.0828    1.3565 H   0  0  0  0  0  0  0  0  0  0  0  0
   -6.9810   -5.2549    0.0942 H   0  0  0  0  0  0  0  0  0  0  0  0
   -7.7659   -4.3066    1.3615 H   0  0  0  0  0  0  0  0  0  0  0  0
  1  2  1  0
  1  3  2  0
  1  7  1  0
  2 45  1  0
  3  4  1  0
  3 46  1  0
  4  5  2  0
  4 47  1  0
  5  6  1  0
  5 48  1  0
  6  7  2  0
  6  9  1  0
  7  8  1  0
  8 49  1  0
  8 50  1  0
  8 51  1  0
  9 10  2  0
  9 11  1  0
 11 12  1  0
 11 52  1  0
 12 13  1  1
 12 14  1  0
 12 21  1  0
 14 15  1  0
 14 53  1  0
 14 54  1  0
 15 16  2  0
 15 20  1  0
 16 17  1  0
 16 55  1  0
 17 18  2  0
 17 56  1  0
 18 19  1  0
 18 57  1  0
 19 20  2  0
 19 58  1  0
 20 59  1  0
 21 22  1  1
 21 23  1  0
 21 24  1  0
 23 60  1  0
 24 25  2  0
 24 26  1  0
 26 27  1  0
 26 32  1  0
 27 28  1  0
 27 61  1  0
 27 62  1  0
 28 29  1  0
 29 30  1  0
 29 31  1  0
 29 32  1  0
 30 63  1  0
 30 64  1  0
 30 65  1  0
 31 66  1  0
 31 67  1  0
 31 68  1  0
 32 33  1  1
 32 34  1  0
 34 35  2  0
 34 36  1  0
 36 37  1  0
 36 69  1  0
 37 38  1  0
 37 70  1  0
 37 71  1  0
 38 39  2  0
 38 43  1  0
 39 40  1  0
 39 44  1  0
 40 41  2  0
 40 72  1  0
 41 42  1  0
 41 73  1  0
 42 43  2  0
 42 74  1  0
 43 75  1  0
 44 76  1  0
 44 77  1  0
 44 78  1  0
M  END

