78
rmsd107.gzmat
C          0.00000        0.00000        0.00000
O          1.36010        0.00000        0.00000
C         -0.73780        0.00000       -1.17890
C         -2.13150       -0.00510       -1.09620
C         -2.75400        0.00270        0.14420
C         -1.98820        0.03030        1.31690
C         -0.59970        0.01290        1.27730
C          0.24930       -0.01180        2.48990
C         -2.75810        0.08240        2.59290
O         -3.36800       -0.86400        3.05020
N         -2.76200        1.31370        3.22390
C         -3.76460        1.66370        4.23340
H         -3.52730        2.70700        4.59220
C         -5.19170        1.65220        3.64090
C         -5.35110        2.81630        2.71610
C         -5.14020        2.66000        1.34470
C         -5.22550        3.75900        0.49380
C         -5.53140        5.01800        1.00730
C         -5.76090        5.17350        2.37360
C         -5.67080        4.07690        3.22720
C         -3.70500        0.70100        5.45590
H         -3.90680       -0.35850        5.17660
O         -4.74280        1.02280        6.34150
C         -2.38100        0.95900        6.17740
O         -2.25560        2.01200        6.79740
N         -1.34710        0.06770        6.13380
C         -1.41100       -1.22590        5.46320
S          0.03230       -2.20020        6.06220
C          0.69180       -0.85280        7.17400
C          2.19790       -0.76550        7.01870
C          0.33410       -1.19080        8.62070
C         -0.05990        0.43000        6.75080
H         -0.27060        1.04150        7.68070
C          0.69410        1.34070        5.74690
O          1.55910        0.96800        4.98610
N          0.31910        2.66460        5.83480
C          0.82010        3.63710        4.85880
C         -0.11800        3.80420        3.68840
C         -1.35560        4.44750        3.81440
C         -2.16630        4.59640        2.68480
C         -1.75590        4.11400        1.44530
C         -0.52840        3.46750        1.32450
C          0.28450        3.31520        2.44450
C         -1.84150        4.97600        5.12010
H          1.72870       -0.01340       -0.91550
H         -0.24570       -0.00360       -2.14530
H         -2.72670       -0.01790       -2.00750
H         -3.84080       -0.02650        0.20960
H          0.41970       -1.04280        2.84320
H         -0.17180        0.56320        3.32700
H          1.25810        0.40470        2.32060
H         -2.26750        2.09980        2.80260
H         -5.93900        1.68540        4.46380
H         -5.38410        0.68440        3.13090
H         -4.90280        1.67850        0.93930
H         -5.05460        3.63380       -0.57360
H         -5.59540        5.87700        0.34380
H         -6.01170        6.15420        2.77280
H         -5.85130        4.20220        4.29260
H         -4.52750        1.84560        6.84800
H         -1.34980       -1.11800        4.35440
H         -2.35780       -1.75930        5.70320
H          2.52300       -0.73720        5.96220
H          2.71380       -1.61440        7.48510
H          2.59720        0.14870        7.47800
H         -0.75060       -1.20760        8.79470
H          0.76360       -0.45850        9.31730
H          0.72160       -2.17210        8.92630
H         -0.53310        2.91680        6.33390
H          1.83570        3.31670        4.51330
H          0.96610        4.61240        5.38270
H         -3.13210        5.09540        2.76990
H         -2.39750        4.24040        0.57460
H         -0.20490        3.08220        0.36000
H          1.24410        2.80350        2.34720
H         -2.68420        5.67150        5.00570
H         -1.05740        5.51950        5.66580
H         -2.19250        4.16350        5.78020
