78
rmsd171.gzmat
C          0.00000        0.00000        0.00000
O          1.36040        0.00000        0.00000
C         -0.74100        0.00000       -1.17900
C         -2.13410        0.01130       -1.09720
C         -2.76030        0.02780        0.14330
C         -1.99390        0.02480        1.31060
C         -0.60140        0.00620        1.27330
C          0.22600        0.01110        2.50490
C         -2.66550        0.06920        2.63670
O         -2.59580       -0.82240        3.46800
N         -3.32280        1.24480        2.91120
C         -3.68030        1.59440        4.28710
H         -3.08450        0.94060        4.99060
C         -3.31680        3.06870        4.56440
C         -1.84570        3.25250        4.35240
C         -1.37800        3.86490        3.18810
C         -0.00820        3.95750        2.95120
C          0.89780        3.44690        3.87890
C          0.43160        2.85270        5.05120
C         -0.93670        2.75610        5.29050
C         -5.19370        1.33500        4.49740
H         -5.51920        0.40600        3.96260
O         -5.93340        2.34970        3.87430
C         -5.53430        1.28060        5.98890
O         -6.16740        2.18960        6.49610
N         -5.07590        0.24090        6.76800
C         -5.62870        0.07820        8.11340
S         -4.44180       -1.04030        8.97110
C         -3.69300       -1.70320        7.38870
C         -3.88370       -3.20770        7.31950
C         -2.20940       -1.35030        7.36710
C         -4.42450       -0.95960        6.23950
H         -3.64470       -0.64770        5.47790
C         -5.49310       -1.83370        5.55050
O         -6.56840       -2.08630        6.05300
N         -5.13760       -2.26810        4.29940
C         -6.12300       -2.91840        3.42580
C         -6.26130       -2.11240        2.15940
C         -7.07750       -0.97930        2.08310
C         -7.12610       -0.25520        0.88430
C         -6.39440       -0.66390       -0.22400
C         -5.59020       -1.80120       -0.14660
C         -5.51880       -2.51320        1.04550
C         -7.92050       -0.50590        3.21590
H          1.72910       -0.02540       -0.91550
H         -0.24750       -0.00730       -2.14540
H         -2.72910        0.01030       -2.00940
H         -3.85000        0.03280        0.20860
H          1.27350       -0.26830        2.31370
H         -0.16170       -0.69390        3.26110
H          0.24450        1.01130        2.97160
H         -3.44530        1.96290        2.21200
H         -3.61090        3.33770        5.60130
H         -3.91520        3.74320        3.91680
H         -2.07950        4.26710        2.46090
H          0.35400        4.42510        2.03760
H          1.96690        3.51400        3.68880
H          1.13990        2.46150        5.77920
H         -1.29710        2.28960        6.20550
H         -6.26730        3.00290        4.54280
H         -6.64210       -0.38460        8.08240
H         -5.69700        1.06010        8.63160
H         -4.93990       -3.51090        7.41160
H         -3.33850       -3.73320        8.11430
H         -3.51750       -3.61330        6.36470
H         -2.03160       -0.26750        7.42330
H         -1.72910       -1.71000        6.44410
H         -1.66300       -1.80830        8.20180
H         -4.27390       -1.95980        3.85560
H         -7.10290       -3.02890        3.95410
H         -5.77800       -3.95790        3.21150
H         -7.74810        0.63660        0.82390
H         -6.45260       -0.10030       -1.15270
H         -5.02160       -2.12980       -1.01310
H         -4.87520       -3.39020        1.10990
H         -7.79760        0.57710        3.38990
H         -7.70840       -1.00450        4.17380
H         -8.98840       -0.67540        3.00950
