78
rmsd58.gzmat
C          0.00000        0.00000        0.00000
O          1.36120        0.00000        0.00000
C         -0.73820        0.00000       -1.18000
C         -2.13230        0.00110       -1.10130
C         -2.75960       -0.00670        0.13770
C         -1.99380       -0.01160        1.30790
C         -0.60280       -0.00130        1.27380
C          0.21660        0.00420        2.50960
C         -2.70980        0.01270        2.61190
O         -2.73370        0.97480        3.35640
N         -3.35600       -1.16040        2.95330
C         -4.29360       -1.18460        4.07880
H         -4.33120       -0.15580        4.54020
C         -5.70970       -1.55850        3.58630
C         -6.11350       -0.64770        2.46840
C         -6.35940        0.70410        2.72120
C         -6.66300        1.56470        1.67020
C         -6.73370        1.07910        0.36490
C         -6.51000       -0.27300        0.11430
C         -6.20070       -1.13650        1.16320
C         -3.77460       -2.21690        5.12830
H         -2.75160       -2.59180        4.86610
O         -4.55160       -3.38050        5.11480
C         -3.83610       -1.59210        6.52410
O         -4.78740       -1.80100        7.25560
N         -2.80650       -0.79150        6.96270
C         -2.91190       -0.18130        8.28990
S         -1.39350        0.83280        8.51930
C         -0.98880        0.85980        6.69230
C          0.51610        0.88160        6.50480
C         -1.62780        2.07400        6.03690
C         -1.64510       -0.43590        6.15170
H         -1.97480       -0.23960        5.08230
C         -0.64310       -1.60880        6.08600
O         -0.23480       -1.97830        5.00080
N         -0.27540       -2.23420        7.24890
C          0.87350       -3.15220        7.23300
C          2.14030       -2.37210        7.48530
C          3.07730       -2.12740        6.47480
C          4.20240       -1.34610        6.76340
C          4.39050       -0.81440        8.03470
C          3.45710       -1.06360        9.03990
C          2.34010       -1.84510        8.76360
C          2.91120       -2.67220        5.09880
H          1.73000        0.01820       -0.91500
H         -0.24420        0.00280       -2.14590
H         -2.72570        0.00750       -2.01440
H         -3.84930        0.00350        0.20140
H          1.27800        0.21840        2.31860
H          0.17870       -0.97650        3.02200
H         -0.14330        0.75650        3.23020
H         -3.37360       -1.95180        2.32710
H         -6.42640       -1.48940        4.43070
H         -5.73860       -2.62410        3.27270
H         -6.29810        1.08960        3.73770
H         -6.83930        2.62050        1.86820
H         -6.96530        1.75550       -0.45470
H         -6.57630       -0.65620       -0.90200
H         -6.02620       -2.19090        0.96110
H         -5.29920       -3.31390        5.76230
H         -2.98250       -0.96150        9.07970
H         -3.82950        0.44610        8.35920
H          1.05490        0.11890        7.08760
H          0.95430        1.85050        6.78220
H          0.78460        0.70780        5.44950
H         -2.72450        2.07340        6.10830
H         -1.40420        2.10860        4.95510
H         -1.27280        3.02020        6.46240
H         -0.54870       -1.87250        8.15060
H          0.90080       -3.69500        6.25610
H          0.72030       -3.93100        8.01570
H          4.93690       -1.15110        5.98430
H          5.26700       -0.20420        8.24520
H          3.60180       -0.64960       10.03490
H          1.61310       -2.03970        9.55080
H          3.65020       -2.27700        4.38990
H          1.91580       -2.42650        4.67940
H          3.00440       -3.76720        5.08440
