78
rmsd236.gzmat
C          0.00000        0.00000        0.00000
O          1.35910        0.00000        0.00000
C         -0.74680        0.00000       -1.17400
C         -2.13950        0.00580       -1.08180
C         -2.75450        0.01010        0.16380
C         -1.98070        0.00430        1.32950
C         -0.59020        0.00460        1.28120
C          0.28990        0.02300        2.47540
C         -2.70850        0.04980        2.62280
O         -3.47140        0.95800        2.92200
N         -2.55300       -1.02160        3.47500
C         -3.07990       -0.87980        4.83950
H         -4.12450       -0.44990        4.75830
C         -3.20510       -2.24450        5.53950
C         -1.91490       -2.97250        5.75900
C         -1.31880       -2.96040        7.02330
C         -0.11210       -3.62170        7.23290
C          0.50110       -4.30790        6.18550
C         -0.10810       -4.34920        4.93310
C         -1.31910       -3.69330        4.72140
C         -2.19020        0.16200        5.58640
H         -2.03030        1.07210        4.94900
O         -0.88810       -0.30540        5.75320
C         -2.81660        0.52820        6.93040
O         -2.45020       -0.01410        7.95660
N         -3.82830        1.45870        6.95020
C         -4.35080        1.95190        8.22040
S         -6.09210        2.43330        7.83770
C         -5.79830        2.58400        5.99400
C         -6.10930        3.99860        5.53890
C         -6.69560        1.58440        5.27170
C         -4.30720        2.19590        5.77980
H         -4.25000        1.53170        4.86770
C         -3.41500        3.44040        5.57330
O         -3.18880        4.24510        6.45180
N         -2.83680        3.52400        4.33050
C         -2.04510        4.70400        3.95830
C         -2.62860        5.33010        2.71820
C         -2.42570        4.76880        1.45130
C         -3.01200        5.37130        0.33370
C         -3.78550        6.51950        0.47320
C         -3.98400        7.07760        1.73480
C         -3.40780        6.48030        2.85210
C         -1.61900        3.53100        1.25910
H          1.73210        0.00910       -0.91450
H         -0.26030       -0.00150       -2.14420
H         -2.74240        0.01150       -1.98910
H         -3.84240        0.02880        0.24020
H          1.10000        0.76550        2.36590
H          0.79400       -0.94720        2.61870
H         -0.22500        0.25970        3.41930
H         -1.80860       -1.69530        3.34010
H         -3.90010       -2.88380        4.95000
H         -3.72270       -2.08500        6.51440
H         -1.79630       -2.42380        7.84840
H          0.35330       -3.60080        8.21770
H          1.45010       -4.81360        6.34810
H          0.36060       -4.89780        4.11810
H         -1.80350       -3.76120        3.74990
H         -0.77770       -0.76740        6.62410
H         -3.77680        2.84010        8.57390
H         -4.31780        1.16270        9.00300
H         -5.55340        4.76380        6.10630
H         -7.17390        4.24400        5.64950
H         -5.86020        4.14510        4.47830
H         -6.51380        0.54790        5.58510
H         -6.54040        1.62710        4.18330
H         -7.76150        1.78640        5.44170
H         -3.08320        2.89520        3.56920
H         -0.98640        4.38850        3.79380
H         -2.01590        5.42930        4.80980
H         -2.86450        4.93640       -0.65230
H         -4.23540        6.98090       -0.40360
H         -4.58780        7.97490        1.84620
H         -3.57180        6.91200        3.83970
H         -1.22150        3.44190        0.23960
H         -2.23660        2.63130        1.43630
H         -0.75680        3.47350        1.93780
