78

C          0.09330       -0.28350        0.09640
O          1.41330       -0.61780        0.06600
C         -0.60100        0.05490       -1.06870
C         -1.94890        0.41120       -1.00160
C         -2.59850        0.41570        0.22710
C         -1.91080        0.04750        1.39600
C         -0.53940       -0.28440        1.36040
C          0.31230       -0.59890        2.56890
C         -2.73690        0.06390        2.65280
O         -3.62590        0.89400        2.83260
N         -2.49550       -0.92480        3.55680
C         -3.09800       -0.87770        4.87010
H         -4.14470       -0.57410        4.72400
C         -3.12410       -2.26810        5.52750
C         -1.80730       -3.00140        5.61910
C         -1.03310       -2.96170        6.78880
C          0.18350       -3.64070        6.86460
C          0.65130       -4.37520        5.76970
C         -0.11660       -4.43610        4.60500
C         -1.33940       -3.76060        4.53630
C         -2.41040        0.24670        5.70150
H         -2.52460        1.17520        5.12230
O         -1.04090        0.02100        5.87670
C         -3.10110        0.37910        7.05400
O         -2.60130       -0.14590        8.04560
N         -4.30320        1.01570        7.08970
C         -4.84510        1.81880        5.98700
S         -6.60250        2.01470        6.39200
C         -6.15440        2.15480        8.19560
C         -7.40100        1.87730        9.03390
C         -5.60100        3.55020        8.50240
C         -5.02830        1.09160        8.36370
H         -4.34230        1.40920        9.16130
C         -5.56380       -0.26300        8.85520
O         -5.67460       -0.47140       10.05190
N         -5.93490       -1.14080        7.88960
C         -6.50710       -2.44660        8.18270
C         -5.68760       -3.58910        7.62330
C         -4.44170       -3.94440        8.19150
C         -3.71580       -4.98750        7.60000
C         -4.18480       -5.66100        6.47010
C         -5.41320       -5.30600        5.91240
C         -6.15570       -4.27650        6.49670
C         -3.86390       -3.19930        9.36660
H          1.74300       -0.53390       -0.83780
H         -0.07610        0.04640       -2.02920
H         -2.48540        0.68530       -1.91260
H         -3.64720        0.70140        0.31310
H          1.34030       -0.25400        2.39710
H          0.38490       -1.68770        2.74540
H         -0.05890       -0.14030        3.49350
H         -1.68210       -1.51610        3.44310
H         -3.83150       -2.88660        4.95510
H         -3.55550       -2.16290        6.52880
H         -1.39860       -2.39520        7.64820
H          0.77090       -3.59830        7.78530
H          1.60500       -4.90490        5.82880
H          0.23010       -5.02030        3.74890
H         -1.95090       -3.84100        3.63300
H         -0.93770       -0.39190        6.75040
H         -4.74040        1.33630        5.00610
H         -4.34620        2.80070        5.93260
H         -7.88050        0.93240        8.74420
H         -8.12950        2.69150        8.90500
H         -7.13160        1.80650       10.09740
H         -4.68450        3.76710        7.93440
H         -5.35250        3.62260        9.57400
H         -6.34550        4.32270        8.26290
H         -5.87000       -0.84050        6.92430
H         -7.53040       -2.49640        7.77530
H         -6.58440       -2.49990        9.27700
H         -2.74860       -5.26380        8.02580
H         -3.58510       -6.45870        6.02590
H         -5.79470       -5.82650        5.03090
H         -7.12210       -3.99520        6.06800
H         -3.02780       -3.75890        9.80950
H         -4.60840       -3.00310       10.15130
H         -3.48190       -2.21060        9.06340
