78

C          0.94800        1.66850        1.38650
O          2.27340        1.80520        1.66450
C          0.45710        1.85110        0.08860
C         -0.90510        1.70700       -0.17220
C         -1.77530        1.39510        0.86780
C         -1.28670        1.21610        2.17420
C          0.08880        1.34120        2.45870
C          0.67510        1.15860        3.83480
C         -2.25420        0.91740        3.28550
O         -1.98200        0.21070        4.24550
N         -3.48330        1.50850        3.14100
C         -4.45430        1.47820        4.22010
H         -4.33720        0.50180        4.71070
C         -4.16250        2.60310        5.23350
C         -5.21200        2.80690        6.29880
C         -5.82810        1.72750        6.95410
C         -6.84460        1.94170        7.88820
C         -7.26320        3.24130        8.19350
C         -6.64000        4.32580        7.57200
C         -5.62350        4.10420        6.63940
C         -5.87210        1.50280        3.61570
H         -6.59560        1.33840        4.42020
O         -6.04920        0.44360        2.70520
C         -6.14750        2.82390        2.88080
O         -5.42010        3.16620        1.95020
N         -7.22290        3.57760        3.24400
C         -8.16080        3.25430        4.32070
S         -9.02950        4.81120        4.66510
C         -8.95470        5.24970        2.85600
C         -9.15020        6.75680        2.70400
C        -10.02700        4.48110        2.07690
C         -7.54210        4.75990        2.43300
H         -7.55590        4.47950        1.37050
C         -6.46510        5.85480        2.50360
O         -6.22780        6.54510        1.52630
N         -5.86620        6.00540        3.71060
C         -4.71460        6.87090        3.90800
C         -3.40720        6.09700        3.90910
C         -2.54930        6.05860        5.02810
C         -1.38850        5.26980        4.95400
C         -1.06710        4.54800        3.80490
C         -1.91120        4.60650        2.69250
C         -3.07370        5.37300        2.75260
C         -2.83360        6.84410        6.28740
H          2.74440        2.05170        0.85840
H          1.15200        2.10280       -0.71870
H         -1.28340        1.84020       -1.18790
H         -2.84130        1.28260        0.66630
H          1.67100        1.61450        3.89080
H          0.76670        0.08870        4.07810
H          0.02750        1.58680        4.61030
H         -3.59550        2.27640        2.48210
H         -4.01120        3.54390        4.68580
H         -3.19140        2.36310        5.69630
H         -5.51680        0.70540        6.72580
H         -7.31650        1.08700        8.37880
H         -8.06630        3.40610        8.91520
H         -6.95170        5.34670        7.80310
H         -5.12620        4.95210        6.16710
H         -5.27950        0.46430        2.11510
H         -7.64460        2.94390        5.23560
H         -8.86690        2.46430        4.01670
H         -8.46040        7.31740        3.34930
H        -10.18160        7.03430        2.96810
H         -8.95920        7.05660        1.66330
H         -9.88460        3.39240        2.14410
H         -9.98120        4.75710        1.01050
H        -11.02980        4.72200        2.45750
H         -6.12510        5.35930        4.44680
H         -4.84740        7.43940        4.83790
H         -4.72870        7.58740        3.07410
H         -0.72330        5.22720        5.82070
H         -0.15920        3.94330        3.77320
H         -1.66300        4.05240        1.78580
H         -3.74840        5.40640        1.89500
H         -2.05090        6.66970        7.03900
H         -3.79510        6.56550        6.74890
H         -2.87230        7.92860        6.09430
