rmsd188.gzmat
 OpenBabel08211713373D

 78 80  0  0  1  0  0  0  0  0999 V2000
    0.0000    0.0000    0.0000 C   0  0  0  0  0  0  0  0  0  0  0  0
    1.3594    0.0000    0.0000 O   0  0  0  0  0  0  0  0  0  0  0  0
   -0.7400    0.0000   -1.1810 C   0  0  0  0  0  0  0  0  0  0  0  0
   -2.1323    0.0094   -1.1030 C   0  0  0  0  0  0  0  0  0  0  0  0
   -2.7620    0.0200    0.1373 C   0  0  0  0  0  0  0  0  0  0  0  0
   -1.9968    0.0118    1.3046 C   0  0  0  0  0  0  0  0  0  0  0  0
   -0.6036    0.0018    1.2721 C   0  0  0  0  0  0  0  0  0  0  0  0
    0.2193    0.0059    2.5073 C   0  0  0  0  0  0  0  0  0  0  0  0
   -2.6960    0.0708    2.6139 C   0  0  0  0  0  0  0  0  0  0  0  0
   -3.1843    1.0974    3.0620 O   0  0  0  0  0  0  0  0  0  0  0  0
   -2.8118   -1.1096    3.3175 N   0  0  0  0  0  0  0  0  0  0  0  0
   -3.2045   -1.0147    4.7306 C   0  0  1  0  0  0  0  0  0  0  0  0
   -4.0085   -0.2213    4.8142 H   0  0  0  0  0  0  0  0  0  0  0  0
   -3.8182   -2.3263    5.2481 C   0  0  0  0  0  0  0  0  0  0  0  0
   -2.9310   -3.5304    5.1767 C   0  0  0  0  0  0  0  0  0  0  0  0
   -2.3169   -4.0091    6.3373 C   0  0  0  0  0  0  0  0  0  0  0  0
   -1.4950   -5.1313    6.2809 C   0  0  0  0  0  0  0  0  0  0  0  0
   -1.2894   -5.7881    5.0683 C   0  0  0  0  0  0  0  0  0  0  0  0
   -1.9224   -5.3287    3.9152 C   0  0  0  0  0  0  0  0  0  0  0  0
   -2.7485   -4.2081    3.9690 C   0  0  0  0  0  0  0  0  0  0  0  0
   -1.9515   -0.5252    5.5205 C   0  0  2  0  0  0  0  0  0  0  0  0
   -1.4509    0.3204    4.9767 H   0  0  0  0  0  0  0  0  0  0  0  0
   -0.9507   -1.4950    5.5301 O   0  0  0  0  0  0  0  0  0  0  0  0
   -2.3237   -0.1166    6.9445 C   0  0  0  0  0  0  0  0  0  0  0  0
   -2.1642   -0.8846    7.8744 O   0  0  0  0  0  0  0  0  0  0  0  0
   -2.8593    1.1343    7.1487 N   0  0  0  0  0  0  0  0  0  0  0  0
   -2.9994    1.6619    8.5024 C   0  0  0  0  0  0  0  0  0  0  0  0
   -4.3667    2.8967    8.3814 S   0  0  0  0  0  0  0  0  0  0  0  0
   -4.2530    3.0629    6.5198 C   0  0  2  0  0  0  0  0  0  0  0  0
   -3.9990    4.5125    6.1470 C   0  0  0  0  0  0  0  0  0  0  0  0
   -5.5612    2.5789    5.9037 C   0  0  0  0  0  0  0  0  0  0  0  0
   -3.0936    2.1181    6.0919 C   0  0  1  0  0  0  0  0  0  0  0  0
   -3.4163    1.5832    5.1493 H   0  0  0  0  0  0  0  0  0  0  0  0
   -1.7901    2.9015    5.8240 C   0  0  0  0  0  0  0  0  0  0  0  0
   -1.1442    3.4307    6.7029 O   0  0  0  0  0  0  0  0  0  0  0  0
   -1.3739    2.8802    4.5115 N   0  0  0  0  0  0  0  0  0  0  0  0
   -0.2552    3.7289    4.0769 C   0  0  0  0  0  0  0  0  0  0  0  0
   -0.7955    4.8554    3.2342 C   0  0  0  0  0  0  0  0  0  0  0  0
   -1.0384    6.1257    3.7685 C   0  0  0  0  0  0  0  0  0  0  0  0
   -1.5955    7.1144    2.9508 C   0  0  0  0  0  0  0  0  0  0  0  0
   -1.9033    6.8432    1.6209 C   0  0  0  0  0  0  0  0  0  0  0  0
   -1.6560    5.5777    1.0911 C   0  0  0  0  0  0  0  0  0  0  0  0
   -1.1041    4.5880    1.8986 C   0  0  0  0  0  0  0  0  0  0  0  0
   -0.7097    6.4520    5.1846 C   0  0  0  0  0  0  0  0  0  0  0  0
    1.7314   -0.0026   -0.9147 H   0  0  0  0  0  0  0  0  0  0  0  0
   -0.2452   -0.0050   -2.1471 H   0  0  0  0  0  0  0  0  0  0  0  0
   -2.7257    0.0135   -2.0164 H   0  0  0  0  0  0  0  0  0  0  0  0
   -3.8494    0.0456    0.2013 H   0  0  0  0  0  0  0  0  0  0  0  0
    1.2990   -0.0722    2.3000 H   0  0  0  0  0  0  0  0  0  0  0  0
   -0.0220   -0.8365    3.1785 H   0  0  0  0  0  0  0  0  0  0  0  0
    0.0787    0.9316    3.0888 H   0  0  0  0  0  0  0  0  0  0  0  0
   -2.2973   -1.9391    3.0463 H   0  0  0  0  0  0  0  0  0  0  0  0
   -4.7564   -2.5249    4.6819 H   0  0  0  0  0  0  0  0  0  0  0  0
   -4.1485   -2.1569    6.3000 H   0  0  0  0  0  0  0  0  0  0  0  0
   -2.4800   -3.5013    7.2913 H   0  0  0  0  0  0  0  0  0  0  0  0
   -1.0128   -5.4966    7.1866 H   0  0  0  0  0  0  0  0  0  0  0  0
   -0.6403   -6.6597    5.0237 H   0  0  0  0  0  0  0  0  0  0  0  0
   -1.7752   -5.8492    2.9706 H   0  0  0  0  0  0  0  0  0  0  0  0
   -3.2627   -3.8754    3.0700 H   0  0  0  0  0  0  0  0  0  0  0  0
   -1.0256   -2.0821    6.3263 H   0  0  0  0  0  0  0  0  0  0  0  0
   -2.0613    2.1648    8.8348 H   0  0  0  0  0  0  0  0  0  0  0  0
   -3.2521    0.8539    9.2232 H   0  0  0  0  0  0  0  0  0  0  0  0
   -3.1232    4.9414    6.6601 H   0  0  0  0  0  0  0  0  0  0  0  0
   -4.8509    5.1596    6.3964 H   0  0  0  0  0  0  0  0  0  0  0  0
   -3.8262    4.6269    5.0667 H   0  0  0  0  0  0  0  0  0  0  0  0
   -5.7887    1.5355    6.1593 H   0  0  0  0  0  0  0  0  0  0  0  0
   -5.5313    2.6461    4.8057 H   0  0  0  0  0  0  0  0  0  0  0  0
   -6.4203    3.1807    6.2286 H   0  0  0  0  0  0  0  0  0  0  0  0
   -1.9837    2.5442    3.7650 H   0  0  0  0  0  0  0  0  0  0  0  0
    0.4603    3.1002    3.4939 H   0  0  0  0  0  0  0  0  0  0  0  0
    0.3164    4.0978    4.9629 H   0  0  0  0  0  0  0  0  0  0  0  0
   -1.7911    8.1046    3.3571 H   0  0  0  0  0  0  0  0  0  0  0  0
   -2.3370    7.6198    0.9941 H   0  0  0  0  0  0  0  0  0  0  0  0
   -1.8964    5.3628    0.0530 H   0  0  0  0  0  0  0  0  0  0  0  0
   -0.9178    3.5971    1.4852 H   0  0  0  0  0  0  0  0  0  0  0  0
   -1.1597    7.3945    5.5210 H   0  0  0  0  0  0  0  0  0  0  0  0
    0.3776    6.5451    5.3283 H   0  0  0  0  0  0  0  0  0  0  0  0
   -1.0540    5.6696    5.8847 H   0  0  0  0  0  0  0  0  0  0  0  0
  1  7  2  0  0  0  0
  2  1  1  0  0  0  0
  3  4  2  0  0  0  0
  3  1  1  0  0  0  0
  4  5  1  0  0  0  0
  5 48  1  0  0  0  0
  5  6  2  0  0  0  0
  6  9  1  0  0  0  0
  7  6  1  0  0  0  0
  7  8  1  0  0  0  0
  8 51  1  0  0  0  0
  8 50  1  0  0  0  0
  9 10  2  0  0  0  0
  9 11  1  0  0  0  0
 11 12  1  0  0  0  0
 12 13  1  1  0  0  0
 12 14  1  0  0  0  0
 12 21  1  0  0  0  0
 14 54  1  0  0  0  0
 15 14  1  0  0  0  0
 15 16  2  0  0  0  0
 16 55  1  0  0  0  0
 17 16  1  0  0  0  0
 17 56  1  0  0  0  0
 18 17  2  0  0  0  0
 19 20  2  0  0  0  0
 19 18  1  0  0  0  0
 20 15  1  0  0  0  0
 21 22  1  6  0  0  0
 21 23  1  0  0  0  0
 21 24  1  0  0  0  0
 23 60  1  0  0  0  0
 24 26  1  0  0  0  0
 24 25  2  0  0  0  0
 26 27  1  0  0  0  0
 27 61  1  0  0  0  0
 27 62  1  0  0  0  0
 28 27  1  0  0  0  0
 29 32  1  0  0  0  0
 29 28  1  0  0  0  0
 29 31  1  6  0  0  0
 30 64  1  0  0  0  0
 30 29  1  0  0  0  0
 30 63  1  0  0  0  0
 31 66  1  0  0  0  0
 31 68  1  0  0  0  0
 32 33  1  6  0  0  0
 32 26  1  0  0  0  0
 34 32  1  0  0  0  0
 34 35  2  0  0  0  0
 36 34  1  0  0  0  0
 37 36  1  0  0  0  0
 37 71  1  0  0  0  0
 38 39  1  0  0  0  0
 38 37  1  0  0  0  0
 39 44  1  0  0  0  0
 40 72  1  0  0  0  0
 40 39  2  0  0  0  0
 41 40  1  0  0  0  0
 42 41  2  0  0  0  0
 42 43  1  0  0  0  0
 43 38  2  0  0  0  0
 44 77  1  0  0  0  0
 44 76  1  0  0  0  0
 44 78  1  0  0  0  0
 45  2  1  0  0  0  0
 46  3  1  0  0  0  0
 47  4  1  0  0  0  0
 49  8  1  0  0  0  0
 52 11  1  0  0  0  0
 53 14  1  0  0  0  0
 57 18  1  0  0  0  0
 58 19  1  0  0  0  0
 59 20  1  0  0  0  0
 65 30  1  0  0  0  0
 69 36  1  0  0  0  0
 70 37  1  0  0  0  0
 73 41  1  0  0  0  0
 74 42  1  0  0  0  0
 75 43  1  0  0  0  0
M  RAD  2  31   2  67   2
M  END
$$$$
