78

C         -0.13850       -0.16560       -0.02190
O          1.22220       -0.16560       -0.05790
C         -0.91000       -0.25660       -1.18430
C         -2.30360       -0.27290       -1.10080
C         -2.92590       -0.19230        0.14090
C         -2.14710       -0.07400        1.30410
C         -0.74020       -0.07860        1.25220
C          0.15520       -0.04840        2.46470
C         -2.90120        0.05670        2.59320
O         -3.80490       -0.73060        2.89540
N         -2.58240        1.11750        3.37040
C         -3.14770        1.34520        4.69870
H         -3.04130        0.41100        5.27690
C         -2.37030        2.47000        5.40310
C         -0.87350        2.27680        5.36410
C         -0.06290        3.14630        4.62030
C          1.32020        2.95060        4.54300
C          1.91260        1.87630        5.20920
C          1.11490        1.00240        5.95590
C         -0.26390        1.20270        6.03180
C         -4.67980        1.61890        4.66380
H         -4.93540        2.16400        5.58610
O         -5.43460        0.44220        4.66900
C         -4.98850        2.65230        3.56700
O         -4.57520        3.80130        3.75170
N         -5.69570        2.34390        2.44230
C         -6.35930        1.09320        2.07870
S         -6.58830        1.14720        0.25380
C         -6.06110        2.93030        0.11460
C         -6.99660        3.68280       -0.83200
C         -4.61290        2.98280       -0.39010
C         -6.09350        3.45500        1.56010
H         -5.33890        4.24260        1.67040
C         -7.43060        3.96830        2.13210
O         -8.52560        3.55160        1.78770
N         -7.22780        4.83850        3.16040
C         -8.23510        5.10350        4.18220
C         -7.76550        4.57130        5.52310
C         -7.81370        3.19720        5.84420
C         -7.24650        2.77600        7.05880
C         -6.64860        3.67440        7.94240
C         -6.61330        5.03470        7.62640
C         -7.16870        5.46790        6.42320
C         -8.44490        2.15340        4.95450
H          1.51900       -0.27060       -0.97100
H         -0.41190       -0.32230       -2.15680
H         -2.90360       -0.34650       -2.01040
H         -4.01420       -0.18490        0.21550
H          0.99840       -0.73970        2.32560
H         -0.37420       -0.32440        3.38390
H          0.59880        0.94800        2.62530
H         -1.83800        1.73150        3.06010
H         -2.72660        2.50810        6.44440
H         -2.64920        3.42570        4.93910
H         -0.52290        3.99210        4.10140
H          1.93470        3.64060        3.95970
H          2.99190        1.71890        5.14890
H          1.57160        0.16090        6.48240
H         -0.87900        0.51390        6.61770
H         -4.95390       -0.20720        4.10830
H         -7.34440        1.01230        2.55690
H         -5.74720        0.22740        2.32900
H         -8.03900        3.59330       -0.50750
H         -6.89770        3.28770       -1.85460
H         -6.72060        4.75060       -0.86040
H         -3.92710        2.50120        0.32070
H         -4.29500        4.03030       -0.53050
H         -4.51650        2.46020       -1.35270
H         -6.25790        4.95940        3.45210
H         -9.17040        4.64180        3.84080
H         -8.41150        6.18840        4.25910
H         -7.27200        1.71070        7.30460
H         -6.21400        3.31340        8.87800
H         -6.15250        5.75210        8.30940
H         -7.13520        6.53020        6.16450
H         -7.73850        1.32480        4.79070
H         -8.76290        2.53690        3.97810
H         -9.33390        1.72400        5.44650
