78
rmsd168.gzmat
C          0.00000        0.00000        0.00000
O          1.36010        0.00000        0.00000
C         -0.74070        0.00000       -1.17890
C         -2.13340        0.01280       -1.09550
C         -2.75900        0.03450        0.14580
C         -1.99160        0.03190        1.31460
C         -0.60070        0.00360        1.27380
C          0.23700       -0.01360        2.49980
C         -2.68320        0.04660        2.63510
O         -2.68550       -0.88410        3.41450
N         -3.36730        1.21470        2.91140
C         -3.98560        1.42460        4.22000
H         -4.06200        0.43340        4.75720
C         -3.14370        2.40650        5.06640
C         -3.79070        2.63830        6.39430
C         -3.88470        1.59840        7.32270
C         -4.51980        1.81020        8.54360
C         -5.05530        3.06160        8.84750
C         -4.94980        4.10280        7.92800
C         -4.32250        3.89050        6.70310
C         -5.42590        1.97040        4.03880
H         -5.88290        2.17250        5.04050
O         -6.26340        0.99370        3.47700
C         -5.50070        3.21330        3.13990
O         -4.55500        3.62950        2.49600
N         -6.69230        3.91310        3.11530
C         -7.92560        3.38270        3.69860
S         -9.30960        4.38960        3.01890
C         -8.28940        5.03030        1.59240
C         -8.76820        6.42130        1.22660
C         -8.40740        4.08730        0.40100
C         -6.84210        5.00400        2.13790
H         -6.11760        4.82900        1.28030
C         -6.42570        6.36440        2.73270
O         -6.08570        7.26330        1.98780
N         -6.46980        6.53500        4.09470
C         -5.84220        7.72050        4.69320
C         -4.54540        7.34460        5.36380
C         -4.32100        7.57110        6.72530
C         -3.09660        7.19550        7.28820
C         -2.11220        6.59540        6.50940
C         -2.33670        6.37260        5.15160
C         -3.54710        6.75470        4.58280
C         -5.35040        8.21010        7.59660
H          1.72960        0.00180       -0.91550
H         -0.24830       -0.01040       -2.14580
H         -2.72940        0.00870       -2.00720
H         -3.84540        0.04810        0.20780
H          1.23650       -0.43980        2.31360
H         -0.21800       -0.61760        3.30340
H          0.39350        1.00140        2.89410
H         -3.31160        2.03800        2.31380
H         -2.99560        3.35790        4.51000
H         -2.12060        1.99390        5.20000
H         -3.46380        0.62110        7.09120
H         -4.59920        0.99700        9.26220
H         -5.55100        3.22540        9.80070
H         -5.34930        5.08670        8.16600
H         -4.23380        4.71340        5.99260
H         -5.79390        0.51120        2.75600
H         -7.90740        3.47680        4.80570
H         -8.07590        2.30760        3.44150
H         -8.83200        7.10440        2.08730
H         -9.75540        6.41290        0.74720
H         -8.07140        6.90490        0.51860
H         -8.07690        3.06610        0.63350
H         -7.79230        4.43780       -0.44090
H         -9.43850        4.01590        0.02890
H         -6.65220        5.75900        4.70990
H         -6.57260        8.18160        5.39560
H         -5.65020        8.49150        3.90080
H         -2.91210        7.37080        8.34580
H         -1.16800        6.29800        6.96160
H         -1.56880        5.90510        4.53860
H         -3.72180        6.59220        3.51560
H         -5.06110        8.21420        8.65630
H         -6.31920        7.69480        7.53710
H         -5.51380        9.26070        7.31320
