rmsd168.gzmat
 OpenBabel08211713373D

 78 81  0  0  1  0  0  0  0  0999 V2000
    0.0000    0.0000    0.0000 C   0  0  0  0  0  0  0  0  0  0  0  0
    1.3601    0.0000    0.0000 O   0  0  0  0  0  0  0  0  0  0  0  0
   -0.7407    0.0000   -1.1789 C   0  0  0  0  0  0  0  0  0  0  0  0
   -2.1334    0.0128   -1.0955 C   0  0  0  0  0  0  0  0  0  0  0  0
   -2.7590    0.0345    0.1458 C   0  0  0  0  0  0  0  0  0  0  0  0
   -1.9916    0.0319    1.3146 C   0  0  0  0  0  0  0  0  0  0  0  0
   -0.6007    0.0036    1.2738 C   0  0  0  0  0  0  0  0  0  0  0  0
    0.2370   -0.0136    2.4998 C   0  0  0  0  0  0  0  0  0  0  0  0
   -2.6832    0.0466    2.6351 C   0  0  0  0  0  0  0  0  0  0  0  0
   -2.6855   -0.8841    3.4145 O   0  0  0  0  0  0  0  0  0  0  0  0
   -3.3673    1.2147    2.9114 N   0  0  0  0  0  0  0  0  0  0  0  0
   -3.9856    1.4246    4.2200 C   0  0  1  0  0  0  0  0  0  0  0  0
   -4.0620    0.4334    4.7572 H   0  0  0  0  0  0  0  0  0  0  0  0
   -3.1437    2.4065    5.0664 C   0  0  0  0  0  0  0  0  0  0  0  0
   -3.7907    2.6383    6.3943 C   0  0  0  0  0  0  0  0  0  0  0  0
   -3.8847    1.5984    7.3227 C   0  0  0  0  0  0  0  0  0  0  0  0
   -4.5198    1.8102    8.5436 C   0  0  0  0  0  0  0  0  0  0  0  0
   -5.0553    3.0616    8.8475 C   0  0  0  0  0  0  0  0  0  0  0  0
   -4.9498    4.1028    7.9280 C   0  0  0  0  0  0  0  0  0  0  0  0
   -4.3225    3.8905    6.7031 C   0  0  0  0  0  0  0  0  0  0  0  0
   -5.4259    1.9704    4.0388 C   0  0  2  0  0  0  0  0  0  0  0  0
   -5.8829    2.1725    5.0405 H   0  0  0  0  0  0  0  0  0  0  0  0
   -6.2634    0.9937    3.4770 O   0  0  0  0  0  0  0  0  0  0  0  0
   -5.5007    3.2133    3.1399 C   0  0  0  0  0  0  0  0  0  0  0  0
   -4.5550    3.6295    2.4960 O   0  0  0  0  0  0  0  0  0  0  0  0
   -6.6923    3.9131    3.1153 N   0  0  0  0  0  0  0  0  0  0  0  0
   -7.9256    3.3827    3.6986 C   0  0  0  0  0  0  0  0  0  0  0  0
   -9.3096    4.3896    3.0189 S   0  0  0  0  0  0  0  0  0  0  0  0
   -8.2894    5.0303    1.5924 C   0  0  0  0  0  0  0  0  0  0  0  0
   -8.7682    6.4213    1.2266 C   0  0  0  0  0  0  0  0  0  0  0  0
   -8.4074    4.0873    0.4010 C   0  0  0  0  0  0  0  0  0  0  0  0
   -6.8421    5.0040    2.1379 C   0  0  1  0  0  0  0  0  0  0  0  0
   -6.1176    4.8290    1.2803 H   0  0  0  0  0  0  0  0  0  0  0  0
   -6.4257    6.3644    2.7327 C   0  0  0  0  0  0  0  0  0  0  0  0
   -6.0857    7.2633    1.9878 O   0  0  0  0  0  0  0  0  0  0  0  0
   -6.4698    6.5350    4.0947 N   0  0  0  0  0  0  0  0  0  0  0  0
   -5.8422    7.7205    4.6932 C   0  0  0  0  0  0  0  0  0  0  0  0
   -4.5454    7.3446    5.3638 C   0  0  0  0  0  0  0  0  0  0  0  0
   -4.3210    7.5711    6.7253 C   0  0  0  0  0  0  0  0  0  0  0  0
   -3.0966    7.1955    7.2882 C   0  0  0  0  0  0  0  0  0  0  0  0
   -2.1122    6.5954    6.5094 C   0  0  0  0  0  0  0  0  0  0  0  0
   -2.3367    6.3726    5.1516 C   0  0  0  0  0  0  0  0  0  0  0  0
   -3.5471    6.7547    4.5828 C   0  0  0  0  0  0  0  0  0  0  0  0
   -5.3504    8.2101    7.5966 C   0  0  0  0  0  0  0  0  0  0  0  0
    1.7296    0.0018   -0.9155 H   0  0  0  0  0  0  0  0  0  0  0  0
   -0.2483   -0.0104   -2.1458 H   0  0  0  0  0  0  0  0  0  0  0  0
   -2.7294    0.0087   -2.0072 H   0  0  0  0  0  0  0  0  0  0  0  0
   -3.8454    0.0481    0.2078 H   0  0  0  0  0  0  0  0  0  0  0  0
    1.2365   -0.4398    2.3136 H   0  0  0  0  0  0  0  0  0  0  0  0
   -0.2180   -0.6176    3.3034 H   0  0  0  0  0  0  0  0  0  0  0  0
    0.3935    1.0014    2.8941 H   0  0  0  0  0  0  0  0  0  0  0  0
   -3.3116    2.0380    2.3138 H   0  0  0  0  0  0  0  0  0  0  0  0
   -2.9956    3.3579    4.5100 H   0  0  0  0  0  0  0  0  0  0  0  0
   -2.1206    1.9939    5.2000 H   0  0  0  0  0  0  0  0  0  0  0  0
   -3.4638    0.6211    7.0912 H   0  0  0  0  0  0  0  0  0  0  0  0
   -4.5992    0.9970    9.2622 H   0  0  0  0  0  0  0  0  0  0  0  0
   -5.5510    3.2254    9.8007 H   0  0  0  0  0  0  0  0  0  0  0  0
   -5.3493    5.0867    8.1660 H   0  0  0  0  0  0  0  0  0  0  0  0
   -4.2338    4.7134    5.9926 H   0  0  0  0  0  0  0  0  0  0  0  0
   -5.7939    0.5112    2.7560 H   0  0  0  0  0  0  0  0  0  0  0  0
   -7.9074    3.4768    4.8057 H   0  0  0  0  0  0  0  0  0  0  0  0
   -8.0759    2.3076    3.4415 H   0  0  0  0  0  0  0  0  0  0  0  0
   -8.8320    7.1044    2.0873 H   0  0  0  0  0  0  0  0  0  0  0  0
   -9.7554    6.4129    0.7472 H   0  0  0  0  0  0  0  0  0  0  0  0
   -8.0714    6.9049    0.5186 H   0  0  0  0  0  0  0  0  0  0  0  0
   -8.0769    3.0661    0.6335 H   0  0  0  0  0  0  0  0  0  0  0  0
   -7.7923    4.4378   -0.4409 H   0  0  0  0  0  0  0  0  0  0  0  0
   -9.4385    4.0159    0.0289 H   0  0  0  0  0  0  0  0  0  0  0  0
   -6.6522    5.7590    4.7099 H   0  0  0  0  0  0  0  0  0  0  0  0
   -6.5726    8.1816    5.3956 H   0  0  0  0  0  0  0  0  0  0  0  0
   -5.6502    8.4915    3.9008 H   0  0  0  0  0  0  0  0  0  0  0  0
   -2.9121    7.3708    8.3458 H   0  0  0  0  0  0  0  0  0  0  0  0
   -1.1680    6.2980    6.9616 H   0  0  0  0  0  0  0  0  0  0  0  0
   -1.5688    5.9051    4.5386 H   0  0  0  0  0  0  0  0  0  0  0  0
   -3.7218    6.5922    3.5156 H   0  0  0  0  0  0  0  0  0  0  0  0
   -5.0611    8.2142    8.6563 H   0  0  0  0  0  0  0  0  0  0  0  0
   -6.3192    7.6948    7.5371 H   0  0  0  0  0  0  0  0  0  0  0  0
   -5.5138    9.2607    7.3132 H   0  0  0  0  0  0  0  0  0  0  0  0
  1  7  2  0  0  0  0
  2  1  1  0  0  0  0
  3  4  2  0  0  0  0
  3  1  1  0  0  0  0
  4  5  1  0  0  0  0
  5 48  1  0  0  0  0
  5  6  2  0  0  0  0
  6  9  1  0  0  0  0
  7  6  1  0  0  0  0
  7  8  1  0  0  0  0
  8 51  1  0  0  0  0
  8 50  1  0  0  0  0
  9 11  1  0  0  0  0
  9 10  2  0  0  0  0
 11 12  1  0  0  0  0
 12 13  1  1  0  0  0
 12 14  1  0  0  0  0
 14 54  1  0  0  0  0
 14 15  1  0  0  0  0
 15 20  2  0  0  0  0
 15 16  1  0  0  0  0
 16 17  2  0  0  0  0
 17 18  1  0  0  0  0
 17 56  1  0  0  0  0
 18 57  1  0  0  0  0
 19 58  1  0  0  0  0
 19 18  2  0  0  0  0
 20 19  1  0  0  0  0
 21 12  1  0  0  0  0
 21 22  1  1  0  0  0
 23 21  1  0  0  0  0
 24 21  1  0  0  0  0
 25 24  2  0  0  0  0
 26 24  1  0  0  0  0
 26 27  1  0  0  0  0
 27 61  1  0  0  0  0
 28 27  1  0  0  0  0
 29 32  1  0  0  0  0
 29 28  1  0  0  0  0
 30 29  1  0  0  0  0
 30 63  1  0  0  0  0
 31 66  1  0  0  0  0
 31 29  1  0  0  0  0
 32 33  1  6  0  0  0
 32 34  1  0  0  0  0
 32 26  1  0  0  0  0
 34 36  1  0  0  0  0
 35 34  2  0  0  0  0
 36 37  1  0  0  0  0
 36 69  1  0  0  0  0
 37 38  1  0  0  0  0
 37 70  1  0  0  0  0
 38 39  2  0  0  0  0
 39 40  1  0  0  0  0
 39 44  1  0  0  0  0
 40 72  1  0  0  0  0
 41 73  1  0  0  0  0
 41 40  2  0  0  0  0
 42 41  1  0  0  0  0
 43 42  2  0  0  0  0
 43 38  1  0  0  0  0
 44 76  1  0  0  0  0
 45  2  1  0  0  0  0
 46  3  1  0  0  0  0
 47  4  1  0  0  0  0
 49  8  1  0  0  0  0
 52 11  1  0  0  0  0
 53 14  1  0  0  0  0
 55 16  1  0  0  0  0
 59 20  1  0  0  0  0
 60 23  1  0  0  0  0
 62 27  1  0  0  0  0
 64 30  1  0  0  0  0
 65 30  1  0  0  0  0
 67 31  1  0  0  0  0
 68 31  1  0  0  0  0
 71 37  1  0  0  0  0
 74 42  1  0  0  0  0
 75 43  1  0  0  0  0
 77 44  1  0  0  0  0
 78 44  1  0  0  0  0
M  END
$$$$
