rmsd171.gzmat
 OpenBabel08211713373D

 78 81  0  0  1  0  0  0  0  0999 V2000
    0.0000    0.0000    0.0000 C   0  0  0  0  0  0  0  0  0  0  0  0
    1.3604    0.0000    0.0000 O   0  0  0  0  0  0  0  0  0  0  0  0
   -0.7410    0.0000   -1.1790 C   0  0  0  0  0  0  0  0  0  0  0  0
   -2.1341    0.0113   -1.0972 C   0  0  0  0  0  0  0  0  0  0  0  0
   -2.7603    0.0278    0.1433 C   0  0  0  0  0  0  0  0  0  0  0  0
   -1.9939    0.0248    1.3106 C   0  0  0  0  0  0  0  0  0  0  0  0
   -0.6014    0.0062    1.2733 C   0  0  0  0  0  0  0  0  0  0  0  0
    0.2260    0.0111    2.5049 C   0  0  0  0  0  0  0  0  0  0  0  0
   -2.6655    0.0692    2.6367 C   0  0  0  0  0  0  0  0  0  0  0  0
   -2.5958   -0.8224    3.4680 O   0  0  0  0  0  0  0  0  0  0  0  0
   -3.3228    1.2448    2.9112 N   0  0  0  0  0  0  0  0  0  0  0  0
   -3.6803    1.5944    4.2871 C   0  0  1  0  0  0  0  0  0  0  0  0
   -3.0845    0.9406    4.9906 H   0  0  0  0  0  0  0  0  0  0  0  0
   -3.3168    3.0687    4.5644 C   0  0  0  0  0  0  0  0  0  0  0  0
   -1.8457    3.2525    4.3524 C   0  0  0  0  0  0  0  0  0  0  0  0
   -1.3780    3.8649    3.1881 C   0  0  0  0  0  0  0  0  0  0  0  0
   -0.0082    3.9575    2.9512 C   0  0  0  0  0  0  0  0  0  0  0  0
    0.8978    3.4469    3.8789 C   0  0  0  0  0  0  0  0  0  0  0  0
    0.4316    2.8527    5.0512 C   0  0  0  0  0  0  0  0  0  0  0  0
   -0.9367    2.7561    5.2905 C   0  0  0  0  0  0  0  0  0  0  0  0
   -5.1937    1.3350    4.4974 C   0  0  2  0  0  0  0  0  0  0  0  0
   -5.5192    0.4060    3.9626 H   0  0  0  0  0  0  0  0  0  0  0  0
   -5.9334    2.3497    3.8743 O   0  0  0  0  0  0  0  0  0  0  0  0
   -5.5343    1.2806    5.9889 C   0  0  0  0  0  0  0  0  0  0  0  0
   -6.1674    2.1896    6.4961 O   0  0  0  0  0  0  0  0  0  0  0  0
   -5.0759    0.2409    6.7680 N   0  0  0  0  0  0  0  0  0  0  0  0
   -5.6287    0.0782    8.1134 C   0  0  0  0  0  0  0  0  0  0  0  0
   -4.4418   -1.0403    8.9711 S   0  0  0  0  0  0  0  0  0  0  0  0
   -3.6930   -1.7032    7.3887 C   0  0  0  0  0  0  0  0  0  0  0  0
   -3.8837   -3.2077    7.3195 C   0  0  0  0  0  0  0  0  0  0  0  0
   -2.2094   -1.3503    7.3671 C   0  0  0  0  0  0  0  0  0  0  0  0
   -4.4245   -0.9596    6.2395 C   0  0  1  0  0  0  0  0  0  0  0  0
   -3.6447   -0.6477    5.4779 H   0  0  0  0  0  0  0  0  0  0  0  0
   -5.4931   -1.8337    5.5505 C   0  0  0  0  0  0  0  0  0  0  0  0
   -6.5684   -2.0863    6.0530 O   0  0  0  0  0  0  0  0  0  0  0  0
   -5.1376   -2.2681    4.2994 N   0  0  0  0  0  0  0  0  0  0  0  0
   -6.1230   -2.9184    3.4258 C   0  0  0  0  0  0  0  0  0  0  0  0
   -6.2613   -2.1124    2.1594 C   0  0  0  0  0  0  0  0  0  0  0  0
   -7.0775   -0.9793    2.0831 C   0  0  0  0  0  0  0  0  0  0  0  0
   -7.1261   -0.2552    0.8843 C   0  0  0  0  0  0  0  0  0  0  0  0
   -6.3944   -0.6639   -0.2240 C   0  0  0  0  0  0  0  0  0  0  0  0
   -5.5902   -1.8012   -0.1466 C   0  0  0  0  0  0  0  0  0  0  0  0
   -5.5188   -2.5132    1.0455 C   0  0  0  0  0  0  0  0  0  0  0  0
   -7.9205   -0.5059    3.2159 C   0  0  0  0  0  0  0  0  0  0  0  0
    1.7291   -0.0254   -0.9155 H   0  0  0  0  0  0  0  0  0  0  0  0
   -0.2475   -0.0073   -2.1454 H   0  0  0  0  0  0  0  0  0  0  0  0
   -2.7291    0.0103   -2.0094 H   0  0  0  0  0  0  0  0  0  0  0  0
   -3.8500    0.0328    0.2086 H   0  0  0  0  0  0  0  0  0  0  0  0
    1.2735   -0.2683    2.3137 H   0  0  0  0  0  0  0  0  0  0  0  0
   -0.1617   -0.6939    3.2611 H   0  0  0  0  0  0  0  0  0  0  0  0
    0.2445    1.0113    2.9716 H   0  0  0  0  0  0  0  0  0  0  0  0
   -3.4453    1.9629    2.2120 H   0  0  0  0  0  0  0  0  0  0  0  0
   -3.6109    3.3377    5.6013 H   0  0  0  0  0  0  0  0  0  0  0  0
   -3.9152    3.7432    3.9168 H   0  0  0  0  0  0  0  0  0  0  0  0
   -2.0795    4.2671    2.4609 H   0  0  0  0  0  0  0  0  0  0  0  0
    0.3540    4.4251    2.0376 H   0  0  0  0  0  0  0  0  0  0  0  0
    1.9669    3.5140    3.6888 H   0  0  0  0  0  0  0  0  0  0  0  0
    1.1399    2.4615    5.7792 H   0  0  0  0  0  0  0  0  0  0  0  0
   -1.2971    2.2896    6.2055 H   0  0  0  0  0  0  0  0  0  0  0  0
   -6.2673    3.0029    4.5428 H   0  0  0  0  0  0  0  0  0  0  0  0
   -6.6421   -0.3846    8.0824 H   0  0  0  0  0  0  0  0  0  0  0  0
   -5.6970    1.0601    8.6316 H   0  0  0  0  0  0  0  0  0  0  0  0
   -4.9399   -3.5109    7.4116 H   0  0  0  0  0  0  0  0  0  0  0  0
   -3.3385   -3.7332    8.1143 H   0  0  0  0  0  0  0  0  0  0  0  0
   -3.5175   -3.6133    6.3647 H   0  0  0  0  0  0  0  0  0  0  0  0
   -2.0316   -0.2675    7.4233 H   0  0  0  0  0  0  0  0  0  0  0  0
   -1.7291   -1.7100    6.4441 H   0  0  0  0  0  0  0  0  0  0  0  0
   -1.6630   -1.8083    8.2018 H   0  0  0  0  0  0  0  0  0  0  0  0
   -4.2739   -1.9598    3.8556 H   0  0  0  0  0  0  0  0  0  0  0  0
   -7.1029   -3.0289    3.9541 H   0  0  0  0  0  0  0  0  0  0  0  0
   -5.7780   -3.9579    3.2115 H   0  0  0  0  0  0  0  0  0  0  0  0
   -7.7481    0.6366    0.8239 H   0  0  0  0  0  0  0  0  0  0  0  0
   -6.4526   -0.1003   -1.1527 H   0  0  0  0  0  0  0  0  0  0  0  0
   -5.0216   -2.1298   -1.0131 H   0  0  0  0  0  0  0  0  0  0  0  0
   -4.8752   -3.3902    1.1099 H   0  0  0  0  0  0  0  0  0  0  0  0
   -7.7976    0.5771    3.3899 H   0  0  0  0  0  0  0  0  0  0  0  0
   -7.7084   -1.0045    4.1738 H   0  0  0  0  0  0  0  0  0  0  0  0
   -8.9884   -0.6754    3.0095 H   0  0  0  0  0  0  0  0  0  0  0  0
  1  7  2  0  0  0  0
  2  1  1  0  0  0  0
  3  4  2  0  0  0  0
  3  1  1  0  0  0  0
  4  5  1  0  0  0  0
  5 48  1  0  0  0  0
  5  6  2  0  0  0  0
  6  9  1  0  0  0  0
  7  6  1  0  0  0  0
  7  8  1  0  0  0  0
  8 51  1  0  0  0  0
  8 50  1  0  0  0  0
  9 11  1  0  0  0  0
  9 10  2  0  0  0  0
 11 12  1  0  0  0  0
 12 21  1  0  0  0  0
 12 14  1  0  0  0  0
 12 13  1  1  0  0  0
 14 53  1  0  0  0  0
 15 14  1  0  0  0  0
 15 20  2  0  0  0  0
 16 15  1  0  0  0  0
 17 16  2  0  0  0  0
 17 18  1  0  0  0  0
 18 19  2  0  0  0  0
 19 20  1  0  0  0  0
 19 58  1  0  0  0  0
 20 59  1  0  0  0  0
 21 22  1  6  0  0  0
 21 24  1  0  0  0  0
 23 21  1  0  0  0  0
 23 60  1  0  0  0  0
 24 25  2  0  0  0  0
 24 26  1  0  0  0  0
 26 27  1  0  0  0  0
 27 62  1  0  0  0  0
 27 28  1  0  0  0  0
 29 28  1  0  0  0  0
 30 29  1  0  0  0  0
 30 63  1  0  0  0  0
 30 64  1  0  0  0  0
 31 29  1  0  0  0  0
 31 66  1  0  0  0  0
 31 68  1  0  0  0  0
 32 33  1  6  0  0  0
 32 26  1  0  0  0  0
 32 29  1  0  0  0  0
 34 35  2  0  0  0  0
 34 32  1  0  0  0  0
 36 34  1  0  0  0  0
 37 70  1  0  0  0  0
 37 36  1  0  0  0  0
 38 37  1  0  0  0  0
 39 38  1  0  0  0  0
 39 44  1  0  0  0  0
 40 39  2  0  0  0  0
 41 42  2  0  0  0  0
 41 40  1  0  0  0  0
 42 43  1  0  0  0  0
 43 75  1  0  0  0  0
 43 38  2  0  0  0  0
 44 76  1  0  0  0  0
 44 77  1  0  0  0  0
 45  2  1  0  0  0  0
 46  3  1  0  0  0  0
 47  4  1  0  0  0  0
 49  8  1  0  0  0  0
 52 11  1  0  0  0  0
 54 14  1  0  0  0  0
 55 16  1  0  0  0  0
 56 17  1  0  0  0  0
 57 18  1  0  0  0  0
 61 27  1  0  0  0  0
 65 30  1  0  0  0  0
 67 31  1  0  0  0  0
 69 36  1  0  0  0  0
 71 37  1  0  0  0  0
 72 40  1  0  0  0  0
 73 41  1  0  0  0  0
 74 42  1  0  0  0  0
 78 44  1  0  0  0  0
M  END
$$$$
