
     RDKit          3D

 78 81  0  0  0  0  0  0  0  0999 V2000
    0.3198   -0.6408   -0.1140 C   0  0  0  0  0  0  0  0  0  0  0  0
    1.6701   -0.4928   -0.1639 O   0  0  0  0  0  0  0  0  0  0  0  0
   -0.4095   -1.1046   -1.2178 C   0  0  0  0  0  0  0  0  0  0  0  0
   -1.7933   -1.2552   -1.1384 C   0  0  0  0  0  0  0  0  0  0  0  0
   -2.4598   -0.9401    0.0460 C   0  0  0  0  0  0  0  0  0  0  0  0
   -1.7258   -0.4675    1.1402 C   0  0  0  0  0  0  0  0  0  0  0  0
   -0.3289   -0.3154    1.0939 C   0  0  0  0  0  0  0  0  0  0  0  0
    0.4508    0.1644    2.2929 C   0  0  0  0  0  0  0  0  0  0  0  0
   -2.4293   -0.0998    2.4160 C   0  0  0  0  0  0  0  0  0  0  0  0
   -2.6967    1.0681    2.7079 O   0  0  0  0  0  0  0  0  0  0  0  0
   -2.7191   -1.1413    3.2334 N   0  0  0  0  0  0  0  0  0  0  0  0
   -3.0976   -0.8991    4.6176 C   0  0  1  0  0  0  0  0  0  0  0  0
   -3.7995   -0.0568    4.5981 H   0  0  0  0  0  0  0  0  0  0  0  0
   -3.8638   -2.0861    5.2288 C   0  0  0  0  0  0  0  0  0  0  0  0
   -3.1736   -3.4308    5.2058 C   0  0  0  0  0  0  0  0  0  0  0  0
   -2.4880   -3.9088    6.3329 C   0  0  0  0  0  0  0  0  0  0  0  0
   -1.8400   -5.1440    6.3017 C   0  0  0  0  0  0  0  0  0  0  0  0
   -1.8655   -5.9251    5.1415 C   0  0  0  0  0  0  0  0  0  0  0  0
   -2.5560   -5.4667    4.0179 C   0  0  0  0  0  0  0  0  0  0  0  0
   -3.2115   -4.2320    4.0547 C   0  0  0  0  0  0  0  0  0  0  0  0
   -1.8239   -0.4489    5.3834 C   0  0  2  0  0  0  0  0  0  0  0  0
   -1.4085    0.4027    4.8260 H   0  0  0  0  0  0  0  0  0  0  0  0
   -0.8545   -1.4573    5.4078 O   0  0  0  0  0  0  0  0  0  0  0  0
   -2.1374    0.0044    6.8109 C   0  0  0  0  0  0  0  0  0  0  0  0
   -1.8687   -0.7426    7.7479 O   0  0  0  0  0  0  0  0  0  0  0  0
   -2.7111    1.2234    6.9648 N   0  0  0  0  0  0  0  0  0  0  0  0
   -2.9192    1.7643    8.3025 C   0  0  0  0  0  0  0  0  0  0  0  0
   -4.0773    3.1754    8.1140 S   0  0  0  0  0  0  0  0  0  0  0  0
   -4.1826    3.0008    6.2631 C   0  0  0  0  0  0  0  0  0  0  0  0
   -4.2093    4.3851    5.6142 C   0  0  0  0  0  0  0  0  0  0  0  0
   -5.4333    2.1937    5.8943 C   0  0  0  0  0  0  0  0  0  0  0  0
   -2.9244    2.1793    5.8839 C   0  0  1  0  0  0  0  0  0  0  0  0
   -3.1549    1.6522    4.9544 H   0  0  0  0  0  0  0  0  0  0  0  0
   -1.6798    3.0401    5.6408 C   0  0  0  0  0  0  0  0  0  0  0  0
   -1.0818    3.5925    6.5530 O   0  0  0  0  0  0  0  0  0  0  0  0
   -1.3368    3.1185    4.3314 N   0  0  0  0  0  0  0  0  0  0  0  0
   -0.3610    4.0800    3.8367 C   0  0  0  0  0  0  0  0  0  0  0  0
   -1.0240    5.3888    3.4454 C   0  0  0  0  0  0  0  0  0  0  0  0
   -0.9355    6.5457    4.2490 C   0  0  0  0  0  0  0  0  0  0  0  0
   -1.6528    7.6853    3.8498 C   0  0  0  0  0  0  0  0  0  0  0  0
   -2.4373    7.6937    2.6956 C   0  0  0  0  0  0  0  0  0  0  0  0
   -2.5155    6.5469    1.9023 C   0  0  0  0  0  0  0  0  0  0  0  0
   -1.8079    5.4068    2.2829 C   0  0  0  0  0  0  0  0  0  0  0  0
   -0.0966    6.5837    5.5033 C   0  0  0  0  0  0  0  0  0  0  0  0
    1.9909   -0.7581   -1.0353 H   0  0  0  0  0  0  0  0  0  0  0  0
    0.1192   -1.3506   -2.1440 H   0  0  0  0  0  0  0  0  0  0  0  0
   -2.3498   -1.6198   -2.0046 H   0  0  0  0  0  0  0  0  0  0  0  0
   -3.5433   -1.0499    0.1227 H   0  0  0  0  0  0  0  0  0  0  0  0
    1.5264    0.1758    2.0844 H   0  0  0  0  0  0  0  0  0  0  0  0
    0.2765   -0.4820    3.1687 H   0  0  0  0  0  0  0  0  0  0  0  0
    0.1424    1.1814    2.5801 H   0  0  0  0  0  0  0  0  0  0  0  0
   -2.2916   -2.0384    3.0213 H   0  0  0  0  0  0  0  0  0  0  0  0
   -4.8180   -2.1632    4.6835 H   0  0  0  0  0  0  0  0  0  0  0  0
   -4.1143   -1.8177    6.2659 H   0  0  0  0  0  0  0  0  0  0  0  0
   -2.4550   -3.2936    7.2358 H   0  0  0  0  0  0  0  0  0  0  0  0
   -1.3102   -5.5001    7.1887 H   0  0  0  0  0  0  0  0  0  0  0  0
   -1.3560   -6.8912    5.1176 H   0  0  0  0  0  0  0  0  0  0  0  0
   -2.5949   -6.0757    3.1113 H   0  0  0  0  0  0  0  0  0  0  0  0
   -3.7739   -3.8928    3.1796 H   0  0  0  0  0  0  0  0  0  0  0  0
   -0.8479   -1.7971    6.3209 H   0  0  0  0  0  0  0  0  0  0  0  0
   -1.9718    2.1350    8.7214 H   0  0  0  0  0  0  0  0  0  0  0  0
   -3.3283    0.9811    8.9542 H   0  0  0  0  0  0  0  0  0  0  0  0
   -3.3423    4.9864    5.9161 H   0  0  0  0  0  0  0  0  0  0  0  0
   -5.1227    4.9252    5.9057 H   0  0  0  0  0  0  0  0  0  0  0  0
   -4.2063    4.2952    4.5163 H   0  0  0  0  0  0  0  0  0  0  0  0
   -5.3932    1.1863    6.3344 H   0  0  0  0  0  0  0  0  0  0  0  0
   -5.5200    2.0979    4.7982 H   0  0  0  0  0  0  0  0  0  0  0  0
   -6.3385    2.6895    6.2733 H   0  0  0  0  0  0  0  0  0  0  0  0
   -1.8881    2.5955    3.6498 H   0  0  0  0  0  0  0  0  0  0  0  0
    0.1379    3.6352    2.9620 H   0  0  0  0  0  0  0  0  0  0  0  0
    0.3931    4.2231    4.6186 H   0  0  0  0  0  0  0  0  0  0  0  0
   -1.5929    8.5864    4.4661 H   0  0  0  0  0  0  0  0  0  0  0  0
   -2.9851    8.5969    2.4155 H   0  0  0  0  0  0  0  0  0  0  0  0
   -3.1220    6.5405    0.9935 H   0  0  0  0  0  0  0  0  0  0  0  0
   -1.8701    4.5020    1.6700 H   0  0  0  0  0  0  0  0  0  0  0  0
   -0.2392    7.5335    6.0382 H   0  0  0  0  0  0  0  0  0  0  0  0
    0.9781    6.4967    5.2677 H   0  0  0  0  0  0  0  0  0  0  0  0
   -0.3471    5.7551    6.1828 H   0  0  0  0  0  0  0  0  0  0  0  0
  1  2  1  0
  1  3  2  0
  1  7  1  0
  2 45  1  0
  3  4  1  0
  3 46  1  0
  4  5  2  0
  4 47  1  0
  5  6  1  0
  5 48  1  0
  6  7  2  0
  6  9  1  0
  7  8  1  0
  8 49  1  0
  8 50  1  0
  8 51  1  0
  9 10  2  0
  9 11  1  0
 11 12  1  0
 11 52  1  0
 12 13  1  6
 12 14  1  0
 12 21  1  0
 14 15  1  0
 14 53  1  0
 14 54  1  0
 15 16  2  0
 15 20  1  0
 16 17  1  0
 16 55  1  0
 17 18  2  0
 17 56  1  0
 18 19  1  0
 18 57  1  0
 19 20  2  0
 19 58  1  0
 20 59  1  0
 21 22  1  6
 21 23  1  0
 21 24  1  0
 23 60  1  0
 24 25  2  0
 24 26  1  0
 26 27  1  0
 26 32  1  0
 27 28  1  0
 27 61  1  0
 27 62  1  0
 28 29  1  0
 29 30  1  0
 29 31  1  0
 29 32  1  0
 30 63  1  0
 30 64  1  0
 30 65  1  0
 31 66  1  0
 31 67  1  0
 31 68  1  0
 32 33  1  6
 32 34  1  0
 34 35  2  0
 34 36  1  0
 36 37  1  0
 36 69  1  0
 37 38  1  0
 37 70  1  0
 37 71  1  0
 38 39  2  0
 38 43  1  0
 39 40  1  0
 39 44  1  0
 40 41  2  0
 40 72  1  0
 41 42  1  0
 41 73  1  0
 42 43  2  0
 42 74  1  0
 43 75  1  0
 44 76  1  0
 44 77  1  0
 44 78  1  0
M  END

