78

C          0.15950       -0.48950       -0.44320
O          1.51390       -0.47650       -0.57840
C         -0.68290       -0.55470       -1.56040
C         -2.06800       -0.56360       -1.39890
C         -2.61300       -0.51550       -0.11780
C         -1.76500       -0.44890        1.00040
C         -0.36340       -0.43500        0.86620
C          0.57310       -0.37170        2.04510
C         -2.37800       -0.35380        2.36540
O         -2.01560        0.47470        3.19660
N         -3.37590       -1.24910        2.61280
C         -4.09420       -1.27010        3.86860
H         -3.82560       -0.32530        4.35670
C         -5.61540       -1.28560        3.65130
C         -6.06010       -0.13560        2.78380
C         -6.08010        1.17430        3.28500
C         -6.41460        2.25170        2.46290
C         -6.73500        2.03640        1.11900
C         -6.72350        0.73640        0.60790
C         -6.38830       -0.33840        1.43620
C         -3.62630       -2.45410        4.77410
H         -2.55960       -2.62500        4.56550
O         -4.33460       -3.63380        4.52160
C         -3.82830       -2.06530        6.24260
O         -4.78560       -2.52680        6.85780
N         -2.96570       -1.17590        6.79870
C         -3.22230       -0.72570        8.16710
S         -1.78080        0.28830        8.64900
C         -1.40490        0.65680        6.85300
C          0.05730        1.06290        6.68770
C         -2.33960        1.75520        6.33560
C         -1.74720       -0.67790        6.15380
H         -1.92720       -0.43820        5.09940
C         -0.61040       -1.71430        6.13100
O         -0.12250       -2.05810        5.05970
N         -0.22460       -2.21180        7.32960
C          1.00070       -2.99140        7.47650
C          2.22200       -2.09800        7.61520
C          3.16460       -1.94000        6.57640
C          4.20990       -1.02090        6.76490
C          4.33310       -0.27570        7.93810
C          3.40360       -0.44450        8.96660
C          2.36040       -1.35420        8.79650
C          3.07640       -2.72550        5.29120
H          1.74080       -0.54250       -1.51470
H         -0.24320       -0.59360       -2.56210
H         -2.71820       -0.60070       -2.27570
H         -3.69550       -0.48990        0.02220
H          1.56480       -0.74980        1.76700
H          0.19680       -0.94450        2.90320
H          0.68930        0.66960        2.38680
H         -3.56220       -1.97270        1.92860
H         -6.10120       -1.24600        4.63950
H         -5.89800       -2.24790        3.20080
H         -5.82390        1.35270        4.33340
H         -6.42310        3.26500        2.87160
H         -6.99430        2.87910        0.47390
H         -6.97670        0.55720       -0.44000
H         -6.38120       -1.35460        1.03210
H         -4.95950       -3.71270        5.26800
H         -3.32650       -1.57780        8.85470
H         -4.15690       -0.14460        8.20760
H          0.75230        0.32980        7.11780
H          0.24140        2.03520        7.16800
H          0.28110        1.16340        5.61440
H         -3.39710        1.47670        6.45560
H         -2.15620        1.91440        5.26200
H         -2.16860        2.69350        6.88230
H         -0.56480       -1.70420        8.14750
H          1.07910       -3.65320        6.60750
H          0.89010       -3.62210        8.37180
H          4.94240       -0.88830        5.96430
H          5.15690        0.43360        8.04970
H          3.49030        0.12660        9.89380
H          1.62530       -1.48360        9.59700
H          3.85360       -2.40340        4.58360
H          2.09230       -2.59860        4.81660
H          3.21950       -3.80480        5.47030
