78

C         -0.63740        0.32740       -0.49310
O          0.49200        0.93840       -0.94510
C         -1.43260       -0.46680       -1.32470
C         -2.57380       -1.09030       -0.81590
C         -2.91990       -0.91670        0.51950
C         -2.13250       -0.09840        1.34530
C         -0.96670        0.52830        0.86540
C         -0.02870        1.35520        1.70850
C         -2.61670        0.06120        2.75450
O         -2.93510       -0.91010        3.44870
N         -2.73450        1.33010        3.20830
C         -3.27300        1.62740        4.52510
H         -2.84660        0.88280        5.20990
C         -2.84320        3.02510        4.98070
C         -1.34830        3.22040        4.89950
C         -0.79470        4.16390        4.02440
C          0.59110        4.30550        3.90200
C          1.44580        3.49850        4.65490
C          0.90560        2.55630        5.53700
C         -0.47810        2.42130        5.65810
C         -4.81410        1.45940        4.51370
H         -5.03210        0.50510        4.01320
O         -5.43490        2.49760        3.80710
C         -5.39450        1.42860        5.93380
O         -6.01280        2.41170        6.33270
N         -5.18600        0.32370        6.68880
C         -5.83610        0.22160        7.99080
S         -5.08570       -1.22890        8.82510
C         -4.00180       -1.65750        7.37250
C         -3.95610       -3.17490        7.19980
C         -2.59680       -1.08130        7.58910
C         -4.66090       -0.93620        6.17300
H         -3.87450       -0.74540        5.43650
C         -5.77710       -1.72540        5.47430
O         -6.89870       -1.82670        5.95170
N         -5.40070       -2.24740        4.28030
C         -6.32330       -2.97550        3.42450
C         -6.37230       -2.41680        2.01750
C         -6.90500       -1.13790        1.73860
C         -6.88110       -0.68370        0.40970
C         -6.37020       -1.46400       -0.62750
C         -5.86340       -2.73520       -0.35040
C         -5.86030       -3.19410        0.96700
C         -7.51980       -0.24870        2.79420
H          0.63510        0.70360       -1.87100
H         -1.14910       -0.59900       -2.37370
H         -3.19600       -1.71020       -1.46390
H         -3.80820       -1.39570        0.92870
H          1.01390        1.09750        1.47280
H         -0.19040        1.21880        2.78370
H         -0.13090        2.43200        1.49250
H         -2.57190        2.09470        2.56430
H         -3.20320        3.17220        6.01160
H         -3.36290        3.76970        4.35990
H         -1.45980        4.79570        3.42890
H          1.00260        5.04660        3.21250
H          2.52890        3.60300        4.55830
H          1.56710        1.92370        6.13390
H         -0.88890        1.68020        6.34940
H         -5.90720        3.00720        4.49780
H         -6.91550        0.04850        7.87030
H         -5.67160        1.14800        8.55690
H         -4.96740       -3.59160        7.10230
H         -3.47130       -3.64510        8.06870
H         -3.37310       -3.43800        6.30260
H         -2.63720        0.01380        7.68680
H         -1.94130       -1.33590        6.73860
H         -2.15040       -1.48390        8.50980
H         -4.48190       -2.00230        3.90670
H         -7.30450       -2.93100        3.91800
H         -6.03180       -4.03810        3.37880
H         -7.28710        0.30730        0.18790
H         -6.37080       -1.07990       -1.65040
H         -5.46630       -3.36330       -1.15130
H         -5.45260       -4.18290        1.19390
H         -6.93520        0.67630        2.92760
H         -7.61930       -0.73260        3.77330
H         -8.52720        0.06620        2.47710
