rmsd134.gzmat
 OpenBabel08211713373D

 78 80  0  0  1  0  0  0  0  0999 V2000
    0.0000    0.0000    0.0000 C   0  0  0  0  0  0  0  0  0  0  0  0
    1.3598    0.0000    0.0000 O   0  0  0  0  0  0  0  0  0  0  0  0
   -0.7406    0.0000   -1.1788 C   0  0  0  0  0  0  0  0  0  0  0  0
   -2.1336   -0.0105   -1.0954 C   0  0  0  0  0  0  0  0  0  0  0  0
   -2.7579   -0.0292    0.1460 C   0  0  0  0  0  0  0  0  0  0  0  0
   -1.9909   -0.0294    1.3149 C   0  0  0  0  0  0  0  0  0  0  0  0
   -0.6009   -0.0083    1.2748 C   0  0  0  0  0  0  0  0  0  0  0  0
    0.2334   -0.0111    2.5028 C   0  0  0  0  0  0  0  0  0  0  0  0
   -2.6943   -0.0572    2.6303 C   0  0  0  0  0  0  0  0  0  0  0  0
   -2.7195    0.8642    3.4186 O   0  0  0  0  0  0  0  0  0  0  0  0
   -3.2976   -1.2684    2.9112 N   0  0  0  0  0  0  0  0  0  0  0  0
   -4.1200   -1.4252    4.1129 C   0  0  1  0  0  0  0  0  0  0  0  0
   -3.6993   -0.7722    4.9299 H   0  0  0  0  0  0  0  0  0  0  0  0
   -5.5793   -1.0200    3.8179 C   0  0  0  0  0  0  0  0  0  0  0  0
   -6.5080   -1.3570    4.9366 C   0  0  0  0  0  0  0  0  0  0  0  0
   -6.3298   -0.7940    6.2023 C   0  0  0  0  0  0  0  0  0  0  0  0
   -7.2025   -1.1195    7.2375 C   0  0  0  0  0  0  0  0  0  0  0  0
   -8.2608   -1.9995    7.0136 C   0  0  0  0  0  0  0  0  0  0  0  0
   -8.4475   -2.5523    5.7485 C   0  0  0  0  0  0  0  0  0  0  0  0
   -7.5723   -2.2323    4.7136 C   0  0  0  0  0  0  0  0  0  0  0  0
   -4.0438   -2.9047    4.5848 C   0  0  2  0  0  0  0  0  0  0  0  0
   -4.5569   -3.0166    5.5686 H   0  0  0  0  0  0  0  0  0  0  0  0
   -2.7274   -3.2919    4.8573 O   0  0  0  0  0  0  0  0  0  0  0  0
   -4.5863   -3.8528    3.5054 C   0  0  0  0  0  0  0  0  0  0  0  0
   -4.2386   -3.7411    2.3331 O   0  0  0  0  0  0  0  0  0  0  0  0
   -5.4753   -4.8396    3.8356 N   0  0  0  0  0  0  0  0  0  0  0  0
   -5.9251   -5.1192    5.1967 C   0  0  0  0  0  0  0  0  0  0  0  0
   -6.8925   -6.6857    5.1292 S   0  0  0  0  0  0  0  0  0  0  0  0
   -6.3508   -7.0962    3.3914 C   0  0  0  0  0  0  0  0  0  0  0  0
   -7.4658   -7.8195    2.6626 C   0  0  0  0  0  0  0  0  0  0  0  0
   -5.1025   -7.9752    3.4444 C   0  0  0  0  0  0  0  0  0  0  0  0
   -5.9846   -5.7272    2.7763 C   0  0  1  0  0  0  0  0  0  0  0  0
   -5.1639   -5.8854    2.0120 H   0  0  0  0  0  0  0  0  0  0  0  0
   -7.1568   -4.9949    2.0754 C   0  0  0  0  0  0  0  0  0  0  0  0
   -8.3286   -5.1735    2.3258 O   0  0  0  0  0  0  0  0  0  0  0  0
   -6.7436   -4.1552    1.0637 N   0  0  0  0  0  0  0  0  0  0  0  0
   -7.7198   -3.3369    0.3337 C   0  0  0  0  0  0  0  0  0  0  0  0
   -7.6981   -1.9070    0.8099 C   0  0  0  0  0  0  0  0  0  0  0  0
   -8.6977   -1.3909    1.6426 C   0  0  0  0  0  0  0  0  0  0  0  0
   -8.6149   -0.0583    2.0631 C   0  0  0  0  0  0  0  0  0  0  0  0
   -7.5599    0.7501    1.6543 C   0  0  0  0  0  0  0  0  0  0  0  0
   -6.5732    0.2367    0.8134 C   0  0  0  0  0  0  0  0  0  0  0  0
   -6.6431   -1.0890    0.3970 C   0  0  0  0  0  0  0  0  0  0  0  0
   -9.8570   -2.2152    2.0851 C   0  0  0  0  0  0  0  0  0  0  0  0
    1.7308    0.0123   -0.9144 H   0  0  0  0  0  0  0  0  0  0  0  0
   -0.2485    0.0062   -2.1455 H   0  0  0  0  0  0  0  0  0  0  0  0
   -2.7293   -0.0078   -2.0071 H   0  0  0  0  0  0  0  0  0  0  0  0
   -3.8449   -0.0427    0.2110 H   0  0  0  0  0  0  0  0  0  0  0  0
    1.2446    0.3875    2.3218 H   0  0  0  0  0  0  0  0  0  0  0  0
    0.3605   -1.0300    2.8984 H   0  0  0  0  0  0  0  0  0  0  0  0
   -0.2116    0.6024    3.3051 H   0  0  0  0  0  0  0  0  0  0  0  0
   -3.4057   -1.9957    2.2043 H   0  0  0  0  0  0  0  0  0  0  0  0
   -5.9155   -1.4850    2.8641 H   0  0  0  0  0  0  0  0  0  0  0  0
   -5.6148    0.0754    3.6113 H   0  0  0  0  0  0  0  0  0  0  0  0
   -5.5131   -0.0956    6.3764 H   0  0  0  0  0  0  0  0  0  0  0  0
   -7.0607   -0.6816    8.2229 H   0  0  0  0  0  0  0  0  0  0  0  0
   -8.9418   -2.2499    7.8229 H   0  0  0  0  0  0  0  0  0  0  0  0
   -9.2748   -3.2367    5.5642 H   0  0  0  0  0  0  0  0  0  0  0  0
   -7.7262   -2.6672    3.7247 H   0  0  0  0  0  0  0  0  0  0  0  0
   -2.1298   -3.0194    4.1168 H   0  0  0  0  0  0  0  0  0  0  0  0
   -6.5851   -4.3052    5.5802 H   0  0  0  0  0  0  0  0  0  0  0  0
   -5.0583   -5.2357    5.8846 H   0  0  0  0  0  0  0  0  0  0  0  0
   -8.4449   -7.3151    2.7585 H   0  0  0  0  0  0  0  0  0  0  0  0
   -7.6033   -8.8451    3.0285 H   0  0  0  0  0  0  0  0  0  0  0  0
   -7.2631   -7.8863    1.5853 H   0  0  0  0  0  0  0  0  0  0  0  0
   -4.2495   -7.4716    3.9202 H   0  0  0  0  0  0  0  0  0  0  0  0
   -4.7804   -8.2692    2.4362 H   0  0  0  0  0  0  0  0  0  0  0  0
   -5.2750   -8.9064    4.0007 H   0  0  0  0  0  0  0  0  0  0  0  0
   -5.7725   -3.8493    1.0246 H   0  0  0  0  0  0  0  0  0  0  0  0
   -8.7368   -3.7906    0.4299 H   0  0  0  0  0  0  0  0  0  0  0  0
   -7.4668   -3.3897   -0.7534 H   0  0  0  0  0  0  0  0  0  0  0  0
   -9.3831    0.3476    2.7189 H   0  0  0  0  0  0  0  0  0  0  0  0
   -7.5055    1.7848    1.9892 H   0  0  0  0  0  0  0  0  0  0  0  0
   -5.7569    0.8760    0.4842 H   0  0  0  0  0  0  0  0  0  0  0  0
   -5.8722   -1.4922   -0.2580 H   0  0  0  0  0  0  0  0  0  0  0  0
  -10.3979   -1.7677    2.9295 H   0  0  0  0  0  0  0  0  0  0  0  0
   -9.5533   -3.2277    2.4114 H   0  0  0  0  0  0  0  0  0  0  0  0
  -10.5834   -2.3497    1.2702 H   0  0  0  0  0  0  0  0  0  0  0  0
  1  7  2  0  0  0  0
  2  1  1  0  0  0  0
  3  4  2  0  0  0  0
  3  1  1  0  0  0  0
  4  5  1  0  0  0  0
  5 48  1  0  0  0  0
  5  6  2  0  0  0  0
  6  9  1  0  0  0  0
  7  6  1  0  0  0  0
  7  8  1  0  0  0  0
  8 50  1  0  0  0  0
  8 51  1  0  0  0  0
  9 11  1  0  0  0  0
  9 10  2  0  0  0  0
 11 12  1  0  0  0  0
 12 21  1  0  0  0  0
 12 13  1  1  0  0  0
 14 12  1  0  0  0  0
 14 15  1  0  0  0  0
 15 16  1  0  0  0  0
 16 55  1  0  0  0  0
 16 17  2  0  0  0  0
 17 56  1  0  0  0  0
 18 17  1  0  0  0  0
 18 57  1  0  0  0  0
 19 18  2  0  0  0  0
 20 15  2  0  0  0  0
 20 19  1  0  0  0  0
 21 23  1  0  0  0  0
 21 22  1  1  0  0  0
 24 26  1  0  0  0  0
 24 21  1  0  0  0  0
 25 24  2  0  0  0  0
 26 27  1  0  0  0  0
 27 61  1  0  0  0  0
 27 62  1  0  0  0  0
 28 27  1  0  0  0  0
 29 31  1  0  0  0  0
 30 63  1  0  0  0  0
 30 64  1  0  0  0  0
 30 29  1  0  0  0  0
 31 66  1  0  0  0  0
 31 68  1  0  0  0  0
 32 33  1  6  0  0  0
 32 29  1  0  0  0  0
 32 26  1  0  0  0  0
 34 35  2  0  0  0  0
 34 32  1  0  0  0  0
 36 34  1  0  0  0  0
 37 70  1  0  0  0  0
 37 38  1  0  0  0  0
 37 36  1  0  0  0  0
 38 39  1  0  0  0  0
 39 40  2  0  0  0  0
 39 44  1  0  0  0  0
 40 72  1  0  0  0  0
 41 73  1  0  0  0  0
 41 40  1  0  0  0  0
 42 41  2  0  0  0  0
 43 38  2  0  0  0  0
 43 42  1  0  0  0  0
 44 77  1  0  0  0  0
 44 76  1  0  0  0  0
 45  2  1  0  0  0  0
 46  3  1  0  0  0  0
 47  4  1  0  0  0  0
 49  8  1  0  0  0  0
 52 11  1  0  0  0  0
 53 14  1  0  0  0  0
 54 14  1  0  0  0  0
 58 19  1  0  0  0  0
 59 20  1  0  0  0  0
 60 23  1  0  0  0  0
 65 30  1  0  0  0  0
 67 31  1  0  0  0  0
 69 36  1  0  0  0  0
 71 37  1  0  0  0  0
 74 42  1  0  0  0  0
 75 43  1  0  0  0  0
 78 44  1  0  0  0  0
M  RAD  2  28   2  29   2
M  END
$$$$
