rmsd184.gzmat
 OpenBabel08211713373D

 78 81  0  0  1  0  0  0  0  0999 V2000
    0.0000    0.0000    0.0000 C   0  0  0  0  0  0  0  0  0  0  0  0
    1.3610    0.0000    0.0000 O   0  0  0  0  0  0  0  0  0  0  0  0
   -0.7391    0.0000   -1.1814 C   0  0  0  0  0  0  0  0  0  0  0  0
   -2.1315    0.0066   -1.1045 C   0  0  0  0  0  0  0  0  0  0  0  0
   -2.7641    0.0135    0.1342 C   0  0  0  0  0  0  0  0  0  0  0  0
   -1.9985    0.0110    1.3011 C   0  0  0  0  0  0  0  0  0  0  0  0
   -0.6051    0.0046    1.2697 C   0  0  0  0  0  0  0  0  0  0  0  0
    0.2095    0.0037    2.5108 C   0  0  0  0  0  0  0  0  0  0  0  0
   -2.6945   -0.0090    2.6119 C   0  0  0  0  0  0  0  0  0  0  0  0
   -3.0692   -1.0391    3.1632 O   0  0  0  0  0  0  0  0  0  0  0  0
   -2.8996    1.2084    3.2058 N   0  0  0  0  0  0  0  0  0  0  0  0
   -3.4390    1.2956    4.5700 C   0  0  1  0  0  0  0  0  0  0  0  0
   -3.0098    0.4465    5.1802 H   0  0  0  0  0  0  0  0  0  0  0  0
   -3.0289    2.6384    5.2037 C   0  0  0  0  0  0  0  0  0  0  0  0
   -1.5349    2.7444    5.2186 C   0  0  0  0  0  0  0  0  0  0  0  0
   -0.8760    3.5148    4.2583 C   0  0  0  0  0  0  0  0  0  0  0  0
    0.5165    3.5527    4.2322 C   0  0  0  0  0  0  0  0  0  0  0  0
    1.2540    2.8296    5.1676 C   0  0  0  0  0  0  0  0  0  0  0  0
    0.5964    2.0736    6.1370 C   0  0  0  0  0  0  0  0  0  0  0  0
   -0.7951    2.0301    6.1638 C   0  0  0  0  0  0  0  0  0  0  0  0
   -4.9853    1.1158    4.5470 C   0  0  2  0  0  0  0  0  0  0  0  0
   -5.4577    1.4378    5.5059 H   0  0  0  0  0  0  0  0  0  0  0  0
   -5.2846   -0.2451    4.4550 O   0  0  0  0  0  0  0  0  0  0  0  0
   -5.5862    1.9374    3.3984 C   0  0  0  0  0  0  0  0  0  0  0  0
   -5.1460    3.0561    3.1804 O   0  0  0  0  0  0  0  0  0  0  0  0
   -6.6620    1.5042    2.6617 N   0  0  0  0  0  0  0  0  0  0  0  0
   -7.1080    2.3241    1.5324 C   0  0  0  0  0  0  0  0  0  0  0  0
   -8.8618    1.8198    1.2641 S   0  0  0  0  0  0  0  0  0  0  0  0
   -8.6888    0.2008    2.1855 C   0  0  0  0  0  0  0  0  0  0  0  0
   -9.0620   -0.9526    1.2702 C   0  0  0  0  0  0  0  0  0  0  0  0
   -9.6022    0.2311    3.4054 C   0  0  0  0  0  0  0  0  0  0  0  0
   -7.2023    0.1458    2.6425 C   0  0  1  0  0  0  0  0  0  0  0  0
   -7.1616   -0.2838    3.6846 H   0  0  0  0  0  0  0  0  0  0  0  0
   -6.3409   -0.6920    1.6738 C   0  0  0  0  0  0  0  0  0  0  0  0
   -6.0299   -0.2992    0.5652 O   0  0  0  0  0  0  0  0  0  0  0  0
   -5.9465   -1.9216    2.1297 N   0  0  0  0  0  0  0  0  0  0  0  0
   -5.0184   -2.7224    1.3075 C   0  0  0  0  0  0  0  0  0  0  0  0
   -4.7883   -4.0430    1.9857 C   0  0  0  0  0  0  0  0  0  0  0  0
   -5.6490   -5.1286    1.7853 C   0  0  0  0  0  0  0  0  0  0  0  0
   -5.4019   -6.3298    2.4554 C   0  0  0  0  0  0  0  0  0  0  0  0
   -4.3148   -6.4463    3.3177 C   0  0  0  0  0  0  0  0  0  0  0  0
   -3.4601   -5.3635    3.5158 C   0  0  0  0  0  0  0  0  0  0  0  0
   -3.6977   -4.1655    2.8483 C   0  0  0  0  0  0  0  0  0  0  0  0
   -6.8209   -5.0239    0.8687 C   0  0  0  0  0  0  0  0  0  0  0  0
    1.7298   -0.0372   -0.9144 H   0  0  0  0  0  0  0  0  0  0  0  0
   -0.2425   -0.0044   -2.1459 H   0  0  0  0  0  0  0  0  0  0  0  0
   -2.7270    0.0057   -2.0172 H   0  0  0  0  0  0  0  0  0  0  0  0
   -3.8585    0.0195    0.1881 H   0  0  0  0  0  0  0  0  0  0  0  0
    1.2776   -0.1816    2.3161 H   0  0  0  0  0  0  0  0  0  0  0  0
   -0.1232   -0.7725    3.2184 H   0  0  0  0  0  0  0  0  0  0  0  0
    0.1498    0.9711    3.0375 H   0  0  0  0  0  0  0  0  0  0  0  0
   -2.6946    2.0814    2.7342 H   0  0  0  0  0  0  0  0  0  0  0  0
   -3.4419    2.7162    6.2290 H   0  0  0  0  0  0  0  0  0  0  0  0
   -3.4936    3.4864    4.6465 H   0  0  0  0  0  0  0  0  0  0  0  0
   -1.4467    4.0881    3.5294 H   0  0  0  0  0  0  0  0  0  0  0  0
    1.0292    4.1467    3.4773 H   0  0  0  0  0  0  0  0  0  0  0  0
    2.3410    2.8568    5.1436 H   0  0  0  0  0  0  0  0  0  0  0  0
    1.1721    1.5145    6.8723 H   0  0  0  0  0  0  0  0  0  0  0  0
   -1.3053    1.4348    6.9175 H   0  0  0  0  0  0  0  0  0  0  0  0
   -4.5444   -0.7403    3.9897 H   0  0  0  0  0  0  0  0  0  0  0  0
   -6.5045    2.1183    0.6182 H   0  0  0  0  0  0  0  0  0  0  0  0
   -7.0384    3.4074    1.7740 H   0  0  0  0  0  0  0  0  0  0  0  0
   -8.4898   -0.9512    0.3273 H   0  0  0  0  0  0  0  0  0  0  0  0
  -10.1235   -0.9283    0.9893 H   0  0  0  0  0  0  0  0  0  0  0  0
   -8.8840   -1.9232    1.7529 H   0  0  0  0  0  0  0  0  0  0  0  0
   -9.3269    1.0256    4.1136 H   0  0  0  0  0  0  0  0  0  0  0  0
   -9.5685   -0.7195    3.9542 H   0  0  0  0  0  0  0  0  0  0  0  0
  -10.6533    0.3976    3.1335 H   0  0  0  0  0  0  0  0  0  0  0  0
   -6.0736   -2.2101    3.0883 H   0  0  0  0  0  0  0  0  0  0  0  0
   -4.0552   -2.1644    1.1773 H   0  0  0  0  0  0  0  0  0  0  0  0
   -5.4441   -2.8388    0.2830 H   0  0  0  0  0  0  0  0  0  0  0  0
   -6.0624   -7.1798    2.3044 H   0  0  0  0  0  0  0  0  0  0  0  0
   -4.1328   -7.3852    3.8367 H   0  0  0  0  0  0  0  0  0  0  0  0
   -2.6116   -5.4519    4.1897 H   0  0  0  0  0  0  0  0  0  0  0  0
   -3.0294   -3.3120    3.0035 H   0  0  0  0  0  0  0  0  0  0  0  0
   -7.4833   -5.8968    0.9249 H   0  0  0  0  0  0  0  0  0  0  0  0
   -6.4971   -4.9344   -0.1796 H   0  0  0  0  0  0  0  0  0  0  0  0
   -7.4347   -4.1386    1.0968 H   0  0  0  0  0  0  0  0  0  0  0  0
  1  7  2  0  0  0  0
  2  1  1  0  0  0  0
  3  4  2  0  0  0  0
  3  1  1  0  0  0  0
  4  5  1  0  0  0  0
  5 48  1  0  0  0  0
  5  6  2  0  0  0  0
  6  9  1  0  0  0  0
  7  6  1  0  0  0  0
  7  8  1  0  0  0  0
  8 51  1  0  0  0  0
  8 50  1  0  0  0  0
  9 10  2  0  0  0  0
  9 11  1  0  0  0  0
 11 12  1  0  0  0  0
 12 13  1  1  0  0  0
 12 14  1  0  0  0  0
 14 15  1  0  0  0  0
 14 53  1  0  0  0  0
 15 20  2  0  0  0  0
 16 15  1  0  0  0  0
 17 16  2  0  0  0  0
 17 18  1  0  0  0  0
 18 19  2  0  0  0  0
 19 20  1  0  0  0  0
 19 58  1  0  0  0  0
 20 59  1  0  0  0  0
 21 12  1  0  0  0  0
 21 22  1  1  0  0  0
 23 21  1  0  0  0  0
 24 21  1  0  0  0  0
 25 24  2  0  0  0  0
 26 24  1  0  0  0  0
 27 62  1  0  0  0  0
 27 26  1  0  0  0  0
 28 27  1  0  0  0  0
 28 29  1  0  0  0  0
 29 32  1  0  0  0  0
 29 31  1  0  0  0  0
 30 65  1  0  0  0  0
 30 29  1  0  0  0  0
 31 67  1  0  0  0  0
 31 66  1  0  0  0  0
 32 26  1  0  0  0  0
 32 33  1  1  0  0  0
 34 36  1  0  0  0  0
 34 32  1  0  0  0  0
 35 34  2  0  0  0  0
 36 69  1  0  0  0  0
 37 38  1  0  0  0  0
 37 36  1  0  0  0  0
 38 43  1  0  0  0  0
 39 38  2  0  0  0  0
 39 40  1  0  0  0  0
 40 41  2  0  0  0  0
 41 42  1  0  0  0  0
 41 73  1  0  0  0  0
 42 74  1  0  0  0  0
 43 75  1  0  0  0  0
 43 42  2  0  0  0  0
 44 76  1  0  0  0  0
 44 78  1  0  0  0  0
 44 39  1  0  0  0  0
 45  2  1  0  0  0  0
 46  3  1  0  0  0  0
 47  4  1  0  0  0  0
 49  8  1  0  0  0  0
 52 11  1  0  0  0  0
 54 14  1  0  0  0  0
 55 16  1  0  0  0  0
 56 17  1  0  0  0  0
 57 18  1  0  0  0  0
 60 23  1  0  0  0  0
 61 27  1  0  0  0  0
 63 30  1  0  0  0  0
 64 30  1  0  0  0  0
 68 31  1  0  0  0  0
 70 37  1  0  0  0  0
 71 37  1  0  0  0  0
 72 40  1  0  0  0  0
 77 44  1  0  0  0  0
M  END
$$$$
