rmsd107.gzmat
 OpenBabel08211713373D

 78 81  0  0  1  0  0  0  0  0999 V2000
    0.0000    0.0000    0.0000 C   0  0  0  0  0  0  0  0  0  0  0  0
    1.3601    0.0000    0.0000 O   0  0  0  0  0  0  0  0  0  0  0  0
   -0.7378    0.0000   -1.1789 C   0  0  0  0  0  0  0  0  0  0  0  0
   -2.1315   -0.0051   -1.0962 C   0  0  0  0  0  0  0  0  0  0  0  0
   -2.7540    0.0027    0.1442 C   0  0  0  0  0  0  0  0  0  0  0  0
   -1.9882    0.0303    1.3169 C   0  0  0  0  0  0  0  0  0  0  0  0
   -0.5997    0.0129    1.2773 C   0  0  0  0  0  0  0  0  0  0  0  0
    0.2493   -0.0118    2.4899 C   0  0  0  0  0  0  0  0  0  0  0  0
   -2.7581    0.0824    2.5929 C   0  0  0  0  0  0  0  0  0  0  0  0
   -3.3680   -0.8640    3.0502 O   0  0  0  0  0  0  0  0  0  0  0  0
   -2.7620    1.3137    3.2239 N   0  0  0  0  0  0  0  0  0  0  0  0
   -3.7646    1.6637    4.2334 C   0  0  1  0  0  0  0  0  0  0  0  0
   -3.5273    2.7070    4.5922 H   0  0  0  0  0  0  0  0  0  0  0  0
   -5.1917    1.6522    3.6409 C   0  0  0  0  0  0  0  0  0  0  0  0
   -5.3511    2.8163    2.7161 C   0  0  0  0  0  0  0  0  0  0  0  0
   -5.1402    2.6600    1.3447 C   0  0  0  0  0  0  0  0  0  0  0  0
   -5.2255    3.7590    0.4938 C   0  0  0  0  0  0  0  0  0  0  0  0
   -5.5314    5.0180    1.0073 C   0  0  0  0  0  0  0  0  0  0  0  0
   -5.7609    5.1735    2.3736 C   0  0  0  0  0  0  0  0  0  0  0  0
   -5.6708    4.0769    3.2272 C   0  0  0  0  0  0  0  0  0  0  0  0
   -3.7050    0.7010    5.4559 C   0  0  2  0  0  0  0  0  0  0  0  0
   -3.9068   -0.3585    5.1766 H   0  0  0  0  0  0  0  0  0  0  0  0
   -4.7428    1.0228    6.3415 O   0  0  0  0  0  0  0  0  0  0  0  0
   -2.3810    0.9590    6.1774 C   0  0  0  0  0  0  0  0  0  0  0  0
   -2.2556    2.0120    6.7974 O   0  0  0  0  0  0  0  0  0  0  0  0
   -1.3471    0.0677    6.1338 N   0  0  0  0  0  0  0  0  0  0  0  0
   -1.4110   -1.2259    5.4632 C   0  0  0  0  0  0  0  0  0  0  0  0
    0.0323   -2.2002    6.0622 S   0  0  0  0  0  0  0  0  0  0  0  0
    0.6918   -0.8528    7.1740 C   0  0  0  0  0  0  0  0  0  0  0  0
    2.1979   -0.7655    7.0187 C   0  0  0  0  0  0  0  0  0  0  0  0
    0.3341   -1.1908    8.6207 C   0  0  0  0  0  0  0  0  0  0  0  0
   -0.0599    0.4300    6.7508 C   0  0  1  0  0  0  0  0  0  0  0  0
   -0.2706    1.0415    7.6807 H   0  0  0  0  0  0  0  0  0  0  0  0
    0.6941    1.3407    5.7469 C   0  0  0  0  0  0  0  0  0  0  0  0
    1.5591    0.9680    4.9861 O   0  0  0  0  0  0  0  0  0  0  0  0
    0.3191    2.6646    5.8348 N   0  0  0  0  0  0  0  0  0  0  0  0
    0.8201    3.6371    4.8588 C   0  0  0  0  0  0  0  0  0  0  0  0
   -0.1180    3.8042    3.6884 C   0  0  0  0  0  0  0  0  0  0  0  0
   -1.3556    4.4475    3.8144 C   0  0  0  0  0  0  0  0  0  0  0  0
   -2.1663    4.5964    2.6848 C   0  0  0  0  0  0  0  0  0  0  0  0
   -1.7559    4.1140    1.4453 C   0  0  0  0  0  0  0  0  0  0  0  0
   -0.5284    3.4675    1.3245 C   0  0  0  0  0  0  0  0  0  0  0  0
    0.2845    3.3152    2.4445 C   0  0  0  0  0  0  0  0  0  0  0  0
   -1.8415    4.9760    5.1201 C   0  0  0  0  0  0  0  0  0  0  0  0
    1.7287   -0.0134   -0.9155 H   0  0  0  0  0  0  0  0  0  0  0  0
   -0.2457   -0.0036   -2.1453 H   0  0  0  0  0  0  0  0  0  0  0  0
   -2.7267   -0.0179   -2.0075 H   0  0  0  0  0  0  0  0  0  0  0  0
   -3.8408   -0.0265    0.2096 H   0  0  0  0  0  0  0  0  0  0  0  0
    0.4197   -1.0428    2.8432 H   0  0  0  0  0  0  0  0  0  0  0  0
   -0.1718    0.5632    3.3270 H   0  0  0  0  0  0  0  0  0  0  0  0
    1.2581    0.4047    2.3206 H   0  0  0  0  0  0  0  0  0  0  0  0
   -2.2675    2.0998    2.8026 H   0  0  0  0  0  0  0  0  0  0  0  0
   -5.9390    1.6854    4.4638 H   0  0  0  0  0  0  0  0  0  0  0  0
   -5.3841    0.6844    3.1309 H   0  0  0  0  0  0  0  0  0  0  0  0
   -4.9028    1.6785    0.9393 H   0  0  0  0  0  0  0  0  0  0  0  0
   -5.0546    3.6338   -0.5736 H   0  0  0  0  0  0  0  0  0  0  0  0
   -5.5954    5.8770    0.3438 H   0  0  0  0  0  0  0  0  0  0  0  0
   -6.0117    6.1542    2.7728 H   0  0  0  0  0  0  0  0  0  0  0  0
   -5.8513    4.2022    4.2926 H   0  0  0  0  0  0  0  0  0  0  0  0
   -4.5275    1.8456    6.8480 H   0  0  0  0  0  0  0  0  0  0  0  0
   -1.3498   -1.1180    4.3544 H   0  0  0  0  0  0  0  0  0  0  0  0
   -2.3578   -1.7593    5.7032 H   0  0  0  0  0  0  0  0  0  0  0  0
    2.5230   -0.7372    5.9622 H   0  0  0  0  0  0  0  0  0  0  0  0
    2.7138   -1.6144    7.4851 H   0  0  0  0  0  0  0  0  0  0  0  0
    2.5972    0.1487    7.4780 H   0  0  0  0  0  0  0  0  0  0  0  0
   -0.7506   -1.2076    8.7947 H   0  0  0  0  0  0  0  0  0  0  0  0
    0.7636   -0.4585    9.3173 H   0  0  0  0  0  0  0  0  0  0  0  0
    0.7216   -2.1721    8.9263 H   0  0  0  0  0  0  0  0  0  0  0  0
   -0.5331    2.9168    6.3339 H   0  0  0  0  0  0  0  0  0  0  0  0
    1.8357    3.3167    4.5133 H   0  0  0  0  0  0  0  0  0  0  0  0
    0.9661    4.6124    5.3827 H   0  0  0  0  0  0  0  0  0  0  0  0
   -3.1321    5.0954    2.7699 H   0  0  0  0  0  0  0  0  0  0  0  0
   -2.3975    4.2404    0.5746 H   0  0  0  0  0  0  0  0  0  0  0  0
   -0.2049    3.0822    0.3600 H   0  0  0  0  0  0  0  0  0  0  0  0
    1.2441    2.8035    2.3472 H   0  0  0  0  0  0  0  0  0  0  0  0
   -2.6842    5.6715    5.0057 H   0  0  0  0  0  0  0  0  0  0  0  0
   -1.0574    5.5195    5.6658 H   0  0  0  0  0  0  0  0  0  0  0  0
   -2.1925    4.1635    5.7802 H   0  0  0  0  0  0  0  0  0  0  0  0
  1  7  2  0  0  0  0
  2  1  1  0  0  0  0
  3  4  2  0  0  0  0
  3  1  1  0  0  0  0
  4  5  1  0  0  0  0
  5 48  1  0  0  0  0
  5  6  2  0  0  0  0
  6  9  1  0  0  0  0
  7  6  1  0  0  0  0
  7  8  1  0  0  0  0
  8 49  1  0  0  0  0
  8 50  1  0  0  0  0
  9 10  2  0  0  0  0
  9 11  1  0  0  0  0
 11 12  1  0  0  0  0
 12 13  1  1  0  0  0
 12 21  1  0  0  0  0
 14 12  1  0  0  0  0
 14 53  1  0  0  0  0
 15 20  1  0  0  0  0
 15 14  1  0  0  0  0
 16 15  2  0  0  0  0
 17 18  2  0  0  0  0
 17 16  1  0  0  0  0
 18 19  1  0  0  0  0
 19 58  1  0  0  0  0
 19 20  2  0  0  0  0
 20 59  1  0  0  0  0
 21 22  1  6  0  0  0
 21 24  1  0  0  0  0
 21 23  1  0  0  0  0
 23 60  1  0  0  0  0
 24 25  2  0  0  0  0
 26 24  1  0  0  0  0
 26 32  1  0  0  0  0
 27 62  1  0  0  0  0
 27 28  1  0  0  0  0
 27 26  1  0  0  0  0
 28 29  1  0  0  0  0
 29 31  1  0  0  0  0
 30 29  1  0  0  0  0
 30 65  1  0  0  0  0
 30 64  1  0  0  0  0
 31 66  1  0  0  0  0
 31 68  1  0  0  0  0
 31 67  1  0  0  0  0
 32 29  1  0  0  0  0
 32 33  1  1  0  0  0
 34 36  1  0  0  0  0
 34 32  1  0  0  0  0
 35 34  2  0  0  0  0
 36 69  1  0  0  0  0
 37 71  1  0  0  0  0
 37 36  1  0  0  0  0
 38 39  1  0  0  0  0
 38 37  1  0  0  0  0
 39 44  1  0  0  0  0
 40 72  1  0  0  0  0
 40 39  2  0  0  0  0
 41 40  1  0  0  0  0
 42 41  2  0  0  0  0
 42 43  1  0  0  0  0
 43 38  2  0  0  0  0
 44 77  1  0  0  0  0
 44 78  1  0  0  0  0
 45  2  1  0  0  0  0
 46  3  1  0  0  0  0
 47  4  1  0  0  0  0
 51  8  1  0  0  0  0
 52 11  1  0  0  0  0
 54 14  1  0  0  0  0
 55 16  1  0  0  0  0
 56 17  1  0  0  0  0
 57 18  1  0  0  0  0
 61 27  1  0  0  0  0
 63 30  1  0  0  0  0
 70 37  1  0  0  0  0
 73 41  1  0  0  0  0
 74 42  1  0  0  0  0
 75 43  1  0  0  0  0
 76 44  1  0  0  0  0
M  END
$$$$
