rmsd96.gzmat
 OpenBabel08211713413D

 37 39  0  0  0  0  0  0  0  0999 V2000
    0.0000    0.0000    0.0000 C   0  0  0  0  0  0  0  0  0  0  0  0
    1.4226    0.0000    0.0000 O   0  0  0  0  0  0  0  0  0  0  0  0
    2.0950    0.0000    1.1842 C   0  0  0  0  0  0  0  0  0  0  0  0
    3.2924    0.0911    1.1105 O   0  0  0  0  0  0  0  0  0  0  0  0
    1.3222   -0.1082    2.4712 C   0  0  0  0  0  0  0  0  0  0  0  0
    0.0721   -0.9021    2.3030 C   0  0  0  0  0  0  0  0  0  0  0  0
   -0.4453   -1.6672    3.3448 C   0  0  0  0  0  0  0  0  0  0  0  0
   -1.6283   -2.3878    3.1540 C   0  0  0  0  0  0  0  0  0  0  0  0
   -2.2818   -2.3439    1.9028 C   0  0  0  0  0  0  0  0  0  0  0  0
   -1.7563   -1.5787    0.8678 C   0  0  0  0  0  0  0  0  0  0  0  0
   -0.5833   -0.8554    1.0733 C   0  0  0  0  0  0  0  0  0  0  0  0
   -3.4367   -3.0688    1.8247 O   0  0  0  0  0  0  0  0  0  0  0  0
   -3.9909   -3.2895    0.5333 C   0  0  0  0  0  0  0  0  0  0  0  0
   -4.7059   -2.0839    0.0054 C   0  0  0  0  0  0  0  0  0  0  0  0
   -5.1369   -1.0815    0.8739 C   0  0  0  0  0  0  0  0  0  0  0  0
   -5.8051    0.0323    0.3698 C   0  0  0  0  0  0  0  0  0  0  0  0
   -6.0522    0.1394   -0.9979 C   0  0  0  0  0  0  0  0  0  0  0  0
   -5.6253   -0.8664   -1.8639 C   0  0  0  0  0  0  0  0  0  0  0  0
   -4.9514   -1.9782   -1.3644 C   0  0  0  0  0  0  0  0  0  0  0  0
   -2.0098   -3.0561    4.2705 O   0  0  0  0  0  0  0  0  0  0  0  0
   -3.1631   -3.8836    4.2013 C   0  0  0  0  0  0  0  0  0  0  0  0
   -0.2233   -0.3643   -1.0241 H   0  0  0  0  0  0  0  0  0  0  0  0
   -0.3281    1.0556    0.0938 H   0  0  0  0  0  0  0  0  0  0  0  0
    1.0812    0.9169    2.8405 H   0  0  0  0  0  0  0  0  0  0  0  0
    1.9840   -0.5458    3.2550 H   0  0  0  0  0  0  0  0  0  0  0  0
    0.0537   -1.7171    4.3117 H   0  0  0  0  0  0  0  0  0  0  0  0
   -2.2599   -1.5272   -0.0964 H   0  0  0  0  0  0  0  0  0  0  0  0
   -4.7065   -4.1132    0.7558 H   0  0  0  0  0  0  0  0  0  0  0  0
   -3.2122   -3.6670   -0.1560 H   0  0  0  0  0  0  0  0  0  0  0  0
   -4.9452   -1.1694    1.9439 H   0  0  0  0  0  0  0  0  0  0  0  0
   -6.1352    0.8195    1.0454 H   0  0  0  0  0  0  0  0  0  0  0  0
   -6.5787    1.0072   -1.3897 H   0  0  0  0  0  0  0  0  0  0  0  0
   -5.8177   -0.7817   -2.9318 H   0  0  0  0  0  0  0  0  0  0  0  0
   -4.6216   -2.7611   -2.0440 H   0  0  0  0  0  0  0  0  0  0  0  0
   -4.0590   -3.2829    4.0085 H   0  0  0  0  0  0  0  0  0  0  0  0
   -3.1947   -4.3134    5.2115 H   0  0  0  0  0  0  0  0  0  0  0  0
   -3.0396   -4.6705    3.4502 H   0  0  0  0  0  0  0  0  0  0  0  0
  1  2  1  0  0  0  0
  1 23  1  0  0  0  0
  1 11  1  0  0  0  0
  2  3  1  0  0  0  0
  3  5  1  0  0  0  0
  4  3  2  0  0  0  0
  5 24  1  0  0  0  0
  5 25  1  0  0  0  0
  6  5  1  0  0  0  0
  6  7  2  0  0  0  0
  7 26  1  0  0  0  0
  8  7  1  0  0  0  0
  8 20  1  0  0  0  0
  9  8  2  0  0  0  0
 10 11  2  0  0  0  0
 10  9  1  0  0  0  0
 11  6  1  0  0  0  0
 12  9  1  0  0  0  0
 13 28  1  0  0  0  0
 13 12  1  0  0  0  0
 14 13  1  0  0  0  0
 14 15  2  0  0  0  0
 15 30  1  0  0  0  0
 16 15  1  0  0  0  0
 16 31  1  0  0  0  0
 17 16  2  0  0  0  0
 18 19  2  0  0  0  0
 18 17  1  0  0  0  0
 19 14  1  0  0  0  0
 21 20  1  0  0  0  0
 21 36  1  0  0  0  0
 22  1  1  0  0  0  0
 27 10  1  0  0  0  0
 29 13  1  0  0  0  0
 32 17  1  0  0  0  0
 33 18  1  0  0  0  0
 34 19  1  0  0  0  0
 35 21  1  0  0  0  0
 37 21  1  0  0  0  0
M  END
$$$$
