37

C          0.11550       -0.07430        0.00270
O          1.54140       -0.19220        0.09070
C          2.15640       -0.11360        1.29510
O          3.35410       -0.14610        1.36180
C          1.23770        0.02080        2.50290
C         -0.01870       -0.79690        2.35590
C         -0.61580       -1.50840        3.39920
C         -1.78790       -2.23830        3.19350
C         -2.37840       -2.26180        1.90620
C         -1.75890       -1.57820        0.85360
C         -0.58950       -0.84690        1.08220
O         -3.54010       -2.96270        1.79060
C         -4.20490       -3.01060        0.54240
C         -3.50110       -3.85510       -0.49880
C         -2.68350       -4.92670       -0.11880
C         -2.06040       -5.71700       -1.08700
C         -2.25200       -5.44830       -2.44530
C         -3.06730       -4.38090       -2.83090
C         -3.68360       -3.58610       -1.86120
O         -2.34930       -2.86940        4.26180
C         -2.51820       -4.27720        4.18760
H         -0.15240       -0.43650       -0.99900
H         -0.15000        0.99940        0.05210
H          0.98270        1.09580        2.58950
H          1.81910       -0.24110        3.39570
H         -0.18750       -1.51110        4.40360
H         -2.17320       -1.62360       -0.15260
H         -4.37930       -1.98970        0.15720
H         -5.19130       -3.44330        0.77350
H         -2.52820       -5.13150        0.94210
H         -1.41900       -6.54620       -0.77900
H         -1.76210       -6.06590       -3.20170
H         -3.21720       -4.16020       -3.89050
H         -4.31100       -2.74370       -2.16760
H         -3.32480       -4.55790        3.49370
H         -2.77520       -4.61540        5.20100
H         -1.58120       -4.77210        3.87390
