rmsd60.gzmat
 OpenBabel08211713413D

 37 39  0  0  0  0  0  0  0  0999 V2000
    0.0000    0.0000    0.0000 C   0  0  0  0  0  0  0  0  0  0  0  0
    1.4222    0.0000    0.0000 O   0  0  0  0  0  0  0  0  0  0  0  0
    2.0962    0.0000    1.1831 C   0  0  0  0  0  0  0  0  0  0  0  0
    3.2924    0.1015    1.1061 O   0  0  0  0  0  0  0  0  0  0  0  0
    1.3292   -0.1240    2.4718 C   0  0  0  0  0  0  0  0  0  0  0  0
    0.0735   -0.9084    2.3012 C   0  0  0  0  0  0  0  0  0  0  0  0
   -0.4459   -1.6735    3.3422 C   0  0  0  0  0  0  0  0  0  0  0  0
   -1.6315   -2.3897    3.1502 C   0  0  0  0  0  0  0  0  0  0  0  0
   -2.2828   -2.3456    1.8981 C   0  0  0  0  0  0  0  0  0  0  0  0
   -1.7586   -1.5765    0.8657 C   0  0  0  0  0  0  0  0  0  0  0  0
   -0.5841   -0.8556    1.0726 C   0  0  0  0  0  0  0  0  0  0  0  0
   -3.4383   -3.0696    1.8170 O   0  0  0  0  0  0  0  0  0  0  0  0
   -3.9290   -3.3787    0.5179 C   0  0  0  0  0  0  0  0  0  0  0  0
   -4.6765   -2.2302   -0.0860 C   0  0  0  0  0  0  0  0  0  0  0  0
   -5.2343   -1.2473    0.7308 C   0  0  0  0  0  0  0  0  0  0  0  0
   -5.9364   -0.1879    0.1605 C   0  0  0  0  0  0  0  0  0  0  0  0
   -6.0868   -0.1138   -1.2232 C   0  0  0  0  0  0  0  0  0  0  0  0
   -5.5373   -1.1030   -2.0376 C   0  0  0  0  0  0  0  0  0  0  0  0
   -4.8289   -2.1601   -1.4715 C   0  0  0  0  0  0  0  0  0  0  0  0
   -2.0184   -3.0575    4.2647 O   0  0  0  0  0  0  0  0  0  0  0  0
   -3.1913   -3.8581    4.1984 C   0  0  0  0  0  0  0  0  0  0  0  0
   -0.2226   -0.3638   -1.0245 H   0  0  0  0  0  0  0  0  0  0  0  0
   -0.3277    1.0557    0.0929 H   0  0  0  0  0  0  0  0  0  0  0  0
    1.0978    0.8958    2.8608 H   0  0  0  0  0  0  0  0  0  0  0  0
    1.9940   -0.5776    3.2445 H   0  0  0  0  0  0  0  0  0  0  0  0
    0.0532   -1.7278    4.3088 H   0  0  0  0  0  0  0  0  0  0  0  0
   -2.2647   -1.5238   -0.0972 H   0  0  0  0  0  0  0  0  0  0  0  0
   -4.6157   -4.2231    0.7510 H   0  0  0  0  0  0  0  0  0  0  0  0
   -3.1097   -3.7525   -0.1240 H   0  0  0  0  0  0  0  0  0  0  0  0
   -5.1122   -1.3056    1.8130 H   0  0  0  0  0  0  0  0  0  0  0  0
   -6.3682    0.5819    0.7976 H   0  0  0  0  0  0  0  0  0  0  0  0
   -6.6320    0.7159   -1.6684 H   0  0  0  0  0  0  0  0  0  0  0  0
   -5.6600   -1.0484   -3.1176 H   0  0  0  0  0  0  0  0  0  0  0  0
   -4.3974   -2.9268   -2.1113 H   0  0  0  0  0  0  0  0  0  0  0  0
   -4.0728   -3.2397    3.9968 H   0  0  0  0  0  0  0  0  0  0  0  0
   -3.2368   -4.2787    5.2117 H   0  0  0  0  0  0  0  0  0  0  0  0
   -3.0826   -4.6538    3.4546 H   0  0  0  0  0  0  0  0  0  0  0  0
  1  2  1  0  0  0  0
  1 23  1  0  0  0  0
  1 11  1  0  0  0  0
  2  3  1  0  0  0  0
  3  5  1  0  0  0  0
  4  3  2  0  0  0  0
  5 24  1  0  0  0  0
  5 25  1  0  0  0  0
  6  5  1  0  0  0  0
  6  7  2  0  0  0  0
  7 26  1  0  0  0  0
  8  7  1  0  0  0  0
  8 20  1  0  0  0  0
  9  8  2  0  0  0  0
 10 11  2  0  0  0  0
 10  9  1  0  0  0  0
 11  6  1  0  0  0  0
 12  9  1  0  0  0  0
 13 28  1  0  0  0  0
 13 12  1  0  0  0  0
 14 13  1  0  0  0  0
 14 15  2  0  0  0  0
 15 30  1  0  0  0  0
 16 15  1  0  0  0  0
 16 31  1  0  0  0  0
 17 16  2  0  0  0  0
 18 19  2  0  0  0  0
 18 17  1  0  0  0  0
 19 14  1  0  0  0  0
 21 20  1  0  0  0  0
 21 36  1  0  0  0  0
 22  1  1  0  0  0  0
 27 10  1  0  0  0  0
 29 13  1  0  0  0  0
 32 17  1  0  0  0  0
 33 18  1  0  0  0  0
 34 19  1  0  0  0  0
 35 21  1  0  0  0  0
 37 21  1  0  0  0  0
M  END
$$$$
