
     RDKit          3D

 37 39  0  0  0  0  0  0  0  0999 V2000
    0.1155   -0.0743    0.0027 C   0  0  0  0  0  0  0  0  0  0  0  0
    1.5414   -0.1922    0.0907 O   0  0  0  0  0  0  0  0  0  0  0  0
    2.1564   -0.1136    1.2951 C   0  0  0  0  0  0  0  0  0  0  0  0
    3.3541   -0.1461    1.3618 O   0  0  0  0  0  0  0  0  0  0  0  0
    1.2377    0.0208    2.5029 C   0  0  0  0  0  0  0  0  0  0  0  0
   -0.0187   -0.7969    2.3559 C   0  0  0  0  0  0  0  0  0  0  0  0
   -0.6158   -1.5084    3.3992 C   0  0  0  0  0  0  0  0  0  0  0  0
   -1.7879   -2.2383    3.1935 C   0  0  0  0  0  0  0  0  0  0  0  0
   -2.3784   -2.2618    1.9062 C   0  0  0  0  0  0  0  0  0  0  0  0
   -1.7589   -1.5782    0.8536 C   0  0  0  0  0  0  0  0  0  0  0  0
   -0.5895   -0.8469    1.0822 C   0  0  0  0  0  0  0  0  0  0  0  0
   -3.5401   -2.9627    1.7906 O   0  0  0  0  0  0  0  0  0  0  0  0
   -4.2049   -3.0106    0.5424 C   0  0  0  0  0  0  0  0  0  0  0  0
   -3.5011   -3.8551   -0.4988 C   0  0  0  0  0  0  0  0  0  0  0  0
   -2.6835   -4.9267   -0.1188 C   0  0  0  0  0  0  0  0  0  0  0  0
   -2.0604   -5.7170   -1.0870 C   0  0  0  0  0  0  0  0  0  0  0  0
   -2.2520   -5.4483   -2.4453 C   0  0  0  0  0  0  0  0  0  0  0  0
   -3.0673   -4.3809   -2.8309 C   0  0  0  0  0  0  0  0  0  0  0  0
   -3.6836   -3.5861   -1.8612 C   0  0  0  0  0  0  0  0  0  0  0  0
   -2.3493   -2.8694    4.2618 O   0  0  0  0  0  0  0  0  0  0  0  0
   -2.5182   -4.2772    4.1876 C   0  0  0  0  0  0  0  0  0  0  0  0
   -0.1524   -0.4365   -0.9990 H   0  0  0  0  0  0  0  0  0  0  0  0
   -0.1500    0.9994    0.0521 H   0  0  0  0  0  0  0  0  0  0  0  0
    0.9827    1.0958    2.5895 H   0  0  0  0  0  0  0  0  0  0  0  0
    1.8191   -0.2411    3.3957 H   0  0  0  0  0  0  0  0  0  0  0  0
   -0.1875   -1.5111    4.4036 H   0  0  0  0  0  0  0  0  0  0  0  0
   -2.1732   -1.6236   -0.1526 H   0  0  0  0  0  0  0  0  0  0  0  0
   -4.3793   -1.9897    0.1572 H   0  0  0  0  0  0  0  0  0  0  0  0
   -5.1913   -3.4433    0.7735 H   0  0  0  0  0  0  0  0  0  0  0  0
   -2.5282   -5.1315    0.9421 H   0  0  0  0  0  0  0  0  0  0  0  0
   -1.4190   -6.5462   -0.7790 H   0  0  0  0  0  0  0  0  0  0  0  0
   -1.7621   -6.0659   -3.2017 H   0  0  0  0  0  0  0  0  0  0  0  0
   -3.2172   -4.1602   -3.8905 H   0  0  0  0  0  0  0  0  0  0  0  0
   -4.3110   -2.7437   -2.1676 H   0  0  0  0  0  0  0  0  0  0  0  0
   -3.3248   -4.5579    3.4937 H   0  0  0  0  0  0  0  0  0  0  0  0
   -2.7752   -4.6154    5.2010 H   0  0  0  0  0  0  0  0  0  0  0  0
   -1.5812   -4.7721    3.8739 H   0  0  0  0  0  0  0  0  0  0  0  0
  1  2  1  0
  1 11  1  0
  1 22  1  0
  1 23  1  0
  2  3  1  0
  3  4  2  0
  3  5  1  0
  5  6  1  0
  5 24  1  0
  5 25  1  0
  6  7  1  0
  6 11  2  0
  7  8  2  0
  7 26  1  0
  8  9  1  0
  8 20  1  0
  9 10  2  0
  9 12  1  0
 10 11  1  0
 10 27  1  0
 12 13  1  0
 13 14  1  0
 13 28  1  0
 13 29  1  0
 14 15  2  0
 14 19  1  0
 15 16  1  0
 15 30  1  0
 16 17  2  0
 16 31  1  0
 17 18  1  0
 17 32  1  0
 18 19  2  0
 18 33  1  0
 19 34  1  0
 20 21  1  0
 21 35  1  0
 21 36  1  0
 21 37  1  0
M  END

