37
rmsd60.gzmat
C          0.00000        0.00000        0.00000
O          1.42220        0.00000        0.00000
C          2.09620        0.00000        1.18310
O          3.29240        0.10150        1.10610
C          1.32920       -0.12400        2.47180
C          0.07350       -0.90840        2.30120
C         -0.44590       -1.67350        3.34220
C         -1.63150       -2.38970        3.15020
C         -2.28280       -2.34560        1.89810
C         -1.75860       -1.57650        0.86570
C         -0.58410       -0.85560        1.07260
O         -3.43830       -3.06960        1.81700
C         -3.92900       -3.37870        0.51790
C         -4.67650       -2.23020       -0.08600
C         -5.23430       -1.24730        0.73080
C         -5.93640       -0.18790        0.16050
C         -6.08680       -0.11380       -1.22320
C         -5.53730       -1.10300       -2.03760
C         -4.82890       -2.16010       -1.47150
O         -2.01840       -3.05750        4.26470
C         -3.19130       -3.85810        4.19840
H         -0.22260       -0.36380       -1.02450
H         -0.32770        1.05570        0.09290
H          1.09780        0.89580        2.86080
H          1.99400       -0.57760        3.24450
H          0.05320       -1.72780        4.30880
H         -2.26470       -1.52380       -0.09720
H         -4.61570       -4.22310        0.75100
H         -3.10970       -3.75250       -0.12400
H         -5.11220       -1.30560        1.81300
H         -6.36820        0.58190        0.79760
H         -6.63200        0.71590       -1.66840
H         -5.66000       -1.04840       -3.11760
H         -4.39740       -2.92680       -2.11130
H         -4.07280       -3.23970        3.99680
H         -3.23680       -4.27870        5.21170
H         -3.08260       -4.65380        3.45460
