37
rmsd187.gzmat
C          0.00000        0.00000        0.00000
O          1.42260        0.00000        0.00000
C          2.09530        0.00000        1.18410
O          3.29270        0.09010        1.10960
C          1.32300       -0.10720        2.47140
C          0.07500       -0.90430        2.30260
C         -0.43910       -1.67590        3.34180
C         -1.62370       -2.39290        3.15130
C         -2.28390       -2.33940        1.90320
C         -1.75860       -1.57220        0.87020
C         -0.58280       -0.85270        1.07550
O         -3.42750       -3.08040        1.82300
C         -4.13540       -3.07950        0.58810
C         -4.77550       -1.75410        0.31330
C         -4.84840       -1.26940       -0.99310
C         -5.43140       -0.02860       -1.23940
C         -5.93930        0.72710       -0.18370
C         -5.87140        0.23780        1.12000
C         -5.29270       -1.00430        1.37000
O         -1.98900       -3.08990        4.25620
C         -3.22090       -3.79740        4.23140
H         -0.22280       -0.36860       -1.02270
H         -0.32780        1.05600        0.08910
H          1.07870        0.91750        2.83900
H          1.98620       -0.54140        3.25600
H          0.06450       -1.73220        4.30600
H         -2.26030       -1.51720       -0.09390
H         -4.89720       -3.86500        0.78860
H         -3.47140       -3.42770       -0.22450
H         -4.45110       -1.85460       -1.81980
H         -5.48810        0.35300       -2.25710
H         -6.38910        1.69880       -0.37810
H         -6.27200        0.82580        1.94420
H         -5.23170       -1.38810        2.38840
H         -4.06120       -3.11970        4.05040
H         -3.26680       -4.20820        5.24910
H         -3.19150       -4.60410        3.49100
