
     RDKit          3D

 37 39  0  0  0  0  0  0  0  0999 V2000
    0.0949    0.1609    0.1635 C   0  0  0  0  0  0  0  0  0  0  0  0
    1.5246    0.0722    0.1119 O   0  0  0  0  0  0  0  0  0  0  0  0
    2.2375   -0.0721    1.2549 C   0  0  0  0  0  0  0  0  0  0  0  0
    3.4369   -0.0779    1.2184 O   0  0  0  0  0  0  0  0  0  0  0  0
    1.4225   -0.2111    2.5344 C   0  0  0  0  0  0  0  0  0  0  0  0
    0.1671   -1.0175    2.3274 C   0  0  0  0  0  0  0  0  0  0  0  0
   -0.3534   -1.9092    3.2682 C   0  0  0  0  0  0  0  0  0  0  0  0
   -1.5320   -2.6142    3.0166 C   0  0  0  0  0  0  0  0  0  0  0  0
   -2.1991   -2.4380    1.7793 C   0  0  0  0  0  0  0  0  0  0  0  0
   -1.6795   -1.5396    0.8405 C   0  0  0  0  0  0  0  0  0  0  0  0
   -0.5044   -0.8345    1.1166 C   0  0  0  0  0  0  0  0  0  0  0  0
   -3.3087   -3.2022    1.5800 O   0  0  0  0  0  0  0  0  0  0  0  0
   -4.0067   -3.1116    0.3524 C   0  0  0  0  0  0  0  0  0  0  0  0
   -4.7687   -1.8155    0.1729 C   0  0  0  0  0  0  0  0  0  0  0  0
   -5.0206   -1.3199   -1.1126 C   0  0  0  0  0  0  0  0  0  0  0  0
   -5.7549   -0.1445   -1.2895 C   0  0  0  0  0  0  0  0  0  0  0  0
   -6.2362    0.5534   -0.1785 C   0  0  0  0  0  0  0  0  0  0  0  0
   -5.9815    0.0673    1.1073 C   0  0  0  0  0  0  0  0  0  0  0  0
   -5.2541   -1.1118    1.2823 C   0  0  0  0  0  0  0  0  0  0  0  0
   -1.9608   -3.5008    3.9567 O   0  0  0  0  0  0  0  0  0  0  0  0
   -3.2702   -3.3391    4.4804 C   0  0  0  0  0  0  0  0  0  0  0  0
   -0.2518    0.0015   -0.8664 H   0  0  0  0  0  0  0  0  0  0  0  0
   -0.1818    1.1935    0.4516 H   0  0  0  0  0  0  0  0  0  0  0  0
    1.1647    0.8170    2.8584 H   0  0  0  0  0  0  0  0  0  0  0  0
    2.0806   -0.6314    3.3052 H   0  0  0  0  0  0  0  0  0  0  0  0
    0.1466   -2.0841    4.2230 H   0  0  0  0  0  0  0  0  0  0  0  0
   -2.1859   -1.3823   -0.1109 H   0  0  0  0  0  0  0  0  0  0  0  0
   -4.7087   -3.9603    0.3729 H   0  0  0  0  0  0  0  0  0  0  0  0
   -3.3204   -3.2773   -0.4974 H   0  0  0  0  0  0  0  0  0  0  0  0
   -4.6354   -1.8563   -1.9849 H   0  0  0  0  0  0  0  0  0  0  0  0
   -5.9446    0.2315   -2.2977 H   0  0  0  0  0  0  0  0  0  0  0  0
   -6.8046    1.4764   -0.3142 H   0  0  0  0  0  0  0  0  0  0  0  0
   -6.3511    0.6108    1.9802 H   0  0  0  0  0  0  0  0  0  0  0  0
   -5.0493   -1.4891    2.2860 H   0  0  0  0  0  0  0  0  0  0  0  0
   -3.4491   -2.2913    4.7832 H   0  0  0  0  0  0  0  0  0  0  0  0
   -3.3320   -3.9799    5.3710 H   0  0  0  0  0  0  0  0  0  0  0  0
   -4.0425   -3.6418    3.7578 H   0  0  0  0  0  0  0  0  0  0  0  0
  1  2  1  0
  1 11  1  0
  1 22  1  0
  1 23  1  0
  2  3  1  0
  3  4  2  0
  3  5  1  0
  5  6  1  0
  5 24  1  0
  5 25  1  0
  6  7  1  0
  6 11  2  0
  7  8  2  0
  7 26  1  0
  8  9  1  0
  8 20  1  0
  9 10  2  0
  9 12  1  0
 10 11  1  0
 10 27  1  0
 12 13  1  0
 13 14  1  0
 13 28  1  0
 13 29  1  0
 14 15  2  0
 14 19  1  0
 15 16  1  0
 15 30  1  0
 16 17  2  0
 16 31  1  0
 17 18  1  0
 17 32  1  0
 18 19  2  0
 18 33  1  0
 19 34  1  0
 20 21  1  0
 21 35  1  0
 21 36  1  0
 21 37  1  0
M  END

