37

C         -0.35530        0.40160        0.22770
O          1.03150        0.24300       -0.09690
C          1.91980       -0.10480        0.86470
O          3.09000       -0.16930        0.60750
C          1.33280       -0.38590        2.24220
C          0.00050       -1.08420        2.16330
C         -0.40480       -2.09600        3.03790
C         -1.65560       -2.69940        2.90330
C         -2.52730       -2.28170        1.86940
C         -2.11410       -1.28060        0.98460
C         -0.85880       -0.68400        1.13720
O         -3.72320       -2.92900        1.79810
C         -4.51150       -2.80580        0.62720
C         -3.86570       -3.42590       -0.59250
C         -4.13900       -2.92800       -1.87190
C         -3.56830       -3.52240       -3.00050
C         -2.70870       -4.61450       -2.85580
C         -2.42600       -5.10990       -1.57910
C         -3.00290       -4.52110       -0.45260
O         -1.97770       -3.73850        3.72470
C         -3.06400       -3.54380        4.61920
H         -0.88750        0.40670       -0.73310
H         -0.49390        1.39720        0.69190
H          1.21870        0.59580        2.74380
H          2.07980       -0.95030        2.81430
H          0.24990       -2.45350        3.83540
H         -2.75080       -0.98270        0.15220
H         -4.77540       -1.75010        0.43540
H         -5.44730       -3.33190        0.87320
H         -4.80100       -2.06460       -1.98810
H         -3.78760       -3.12500       -3.99440
H         -2.25410       -5.07480       -3.73610
H         -1.74850       -5.95870       -1.45960
H         -2.77720       -4.89720        0.54740
H         -2.87620       -2.68170        5.28480
H         -3.13610       -4.45500        5.22880
H         -4.01200       -3.38760        4.08240
