
     RDKit          3D

 32 33  0  0  0  0  0  0  0  0999 V2000
   -0.0370   -0.0076   -0.0243 C   0  0  0  0  0  0  0  0  0  0  0  0
    1.3367   -0.2917   -0.0418 C   0  0  0  0  0  0  0  0  0  0  0  0
    2.1014   -0.2997    1.1244 C   0  0  0  0  0  0  0  0  0  0  0  0
    1.4865   -0.0247    2.3577 C   0  0  0  0  0  0  0  0  0  0  0  0
    0.1074    0.2561    2.3855 C   0  0  0  0  0  0  0  0  0  0  0  0
   -0.6391    0.2650    1.2139 C   0  0  0  0  0  0  0  0  0  0  0  0
    2.1675   -0.0046    3.5859 N   0  0  0  0  0  0  0  0  0  0  0  0
    3.4773   -0.2885    3.8581 C   0  0  0  0  0  0  0  0  0  0  0  0
    4.2617   -0.6651    2.9747 O   0  0  0  0  0  0  0  0  0  0  0  0
    3.9192   -0.1456    5.2681 C   0  0  0  0  0  0  0  0  0  0  0  0
    3.1324    0.4432    6.2802 C   0  0  0  0  0  0  0  0  0  0  0  0
    3.5755    0.5291    7.5921 C   0  0  0  0  0  0  0  0  0  0  0  0
    4.8427    0.0188    7.9210 C   0  0  0  0  0  0  0  0  0  0  0  0
    5.6504   -0.5493    6.9477 C   0  0  0  0  0  0  0  0  0  0  0  0
    5.2158   -0.6301    5.6092 C   0  0  0  0  0  0  0  0  0  0  0  0
    6.0409   -1.1623    4.7117 O   0  0  0  0  0  0  0  0  0  0  0  0
   -0.8477    0.0268   -1.2809 C   0  0  0  0  0  0  0  0  0  0  0  0
   -1.8398    0.8081   -1.5067 N   0  0  0  0  0  0  0  0  0  0  0  0
   -0.4228   -0.8428   -2.2674 N   0  0  0  0  0  0  0  0  0  0  0  0
    1.8260   -0.4899   -0.9974 H   0  0  0  0  0  0  0  0  0  0  0  0
    3.1655   -0.5145    1.0933 H   0  0  0  0  0  0  0  0  0  0  0  0
   -0.3831    0.4624    3.3413 H   0  0  0  0  0  0  0  0  0  0  0  0
   -1.7111    0.4690    1.2587 H   0  0  0  0  0  0  0  0  0  0  0  0
    1.5859    0.2092    4.3851 H   0  0  0  0  0  0  0  0  0  0  0  0
    2.1559    0.8714    6.0397 H   0  0  0  0  0  0  0  0  0  0  0  0
    2.9493    0.9945    8.3551 H   0  0  0  0  0  0  0  0  0  0  0  0
    5.2020    0.0774    8.9513 H   0  0  0  0  0  0  0  0  0  0  0  0
    6.6425   -0.9393    7.1811 H   0  0  0  0  0  0  0  0  0  0  0  0
    5.5846   -1.0885    3.8301 H   0  0  0  0  0  0  0  0  0  0  0  0
   -1.9550    1.4700   -0.7370 H   0  0  0  0  0  0  0  0  0  0  0  0
   -0.0378   -1.7324   -1.9719 H   0  0  0  0  0  0  0  0  0  0  0  0
   -1.0392   -0.8857   -3.0729 H   0  0  0  0  0  0  0  0  0  0  0  0
  1  2  2  0
  1  6  1  0
  1 17  1  0
  2  3  1  0
  2 20  1  0
  3  4  2  0
  3 21  1  0
  4  5  1  0
  4  7  1  0
  5  6  2  0
  5 22  1  0
  6 23  1  0
  7  8  1  0
  7 24  1  0
  8  9  2  0
  8 10  1  0
 10 11  2  0
 10 15  1  0
 11 12  1  0
 11 25  1  0
 12 13  2  0
 12 26  1  0
 13 14  1  0
 13 27  1  0
 14 15  2  0
 14 28  1  0
 15 16  1  0
 16 29  1  0
 17 18  2  0
 17 19  1  0
 18 30  1  0
 19 31  1  0
 19 32  1  0
M  END

