32
rmsd46.gzmat
C          0.00000        0.00000        0.00000
C          1.39470        0.00000        0.00000
C          2.08910        0.00000        1.20220
C          1.37790       -0.00600        2.41780
C         -0.02330       -0.00030        2.41490
C         -0.70440        0.00180        1.20280
N          2.14790        0.01310        3.60440
C          1.66590       -0.29940        4.86990
O          0.49990       -0.64500        5.01860
C          2.60360       -0.22750        6.00240
C          3.82590        0.46240        5.95400
C          4.67850        0.47500        7.04270
C          4.32870       -0.20150        8.22440
C          3.12390       -0.86620        8.31900
C          2.25310       -0.86210        7.20920
O          1.09510       -1.50130        7.39940
C         -0.73990        0.01760       -1.28970
N         -1.31200        1.02890       -1.85270
N         -0.74930       -1.20370       -1.97050
H          1.93710       -0.00310       -0.94780
H          3.17580       -0.00330        1.19570
H         -0.58930        0.00220        3.35060
H         -1.79610        0.00610        1.19750
H          3.13900        0.20680        3.49020
H          4.10900        1.01130        5.05530
H          5.62350        1.01000        6.99430
H          5.01710       -0.19040        9.07110
H          2.81870       -1.38560        9.22510
H          0.47610       -1.39730        6.59490
H         -1.23970        1.94470       -1.45160
H         -0.65660       -2.04180       -1.43620
H         -1.32810       -1.26920       -2.78920
