32
rmsd67.gzmat
C          0.00000        0.00000        0.00000
C          1.39440        0.00000        0.00000
C          2.09740        0.00000        1.19970
C          1.39250        0.00260        2.41040
C         -0.01550       -0.01250        2.41120
C         -0.70270       -0.01010        1.20480
N          2.03580       -0.01220        3.67160
C          3.33550        0.42980        3.88890
O          3.99930        0.86480        2.95540
C          3.86590        0.38300        5.26100
C          3.31030       -0.40440        6.28210
C          3.84580       -0.39400        7.55760
C          4.96240        0.40790        7.85170
C          5.54980        1.17670        6.86870
C          5.00830        1.14750        5.56590
O          5.65960        1.89540        4.67010
C         -0.74740        0.05110       -1.28360
N         -1.52210        0.99770       -1.69760
N         -0.52050       -1.02810       -2.14780
H          1.93650        0.00360       -0.94920
H          3.19030        0.00270        1.18390
H         -0.56860       -0.01290        3.34720
H         -1.79390       -0.01290        1.19980
H          1.45950       -0.26910        4.46680
H          2.45520       -1.04840        6.07310
H          3.41140       -1.00870        8.34180
H          5.36740        0.41220        8.86520
H          6.42280        1.79700        7.06240
H          5.27820        1.77120        3.73220
H         -1.62110        1.84470       -1.16990
H         -0.31260       -1.91650       -1.74230
H         -1.07960       -1.06070       -2.98430
