
     RDKit          3D

 32 33  0  0  0  0  0  0  0  0999 V2000
   -0.0646   -0.0540   -0.0168 C   0  0  0  0  0  0  0  0  0  0  0  0
    1.3371   -0.0139    0.0529 C   0  0  0  0  0  0  0  0  0  0  0  0
    1.9884   -0.0462    1.2814 C   0  0  0  0  0  0  0  0  0  0  0  0
    1.2585   -0.1316    2.4806 C   0  0  0  0  0  0  0  0  0  0  0  0
   -0.1459   -0.1815    2.4226 C   0  0  0  0  0  0  0  0  0  0  0  0
   -0.7829   -0.1393    1.1847 C   0  0  0  0  0  0  0  0  0  0  0  0
    1.9940   -0.1572    3.6770 N   0  0  0  0  0  0  0  0  0  0  0  0
    1.5529   -0.2608    4.9674 C   0  0  0  0  0  0  0  0  0  0  0  0
    0.3510   -0.3994    5.2385 O   0  0  0  0  0  0  0  0  0  0  0  0
    2.5820   -0.2213    6.0366 C   0  0  0  0  0  0  0  0  0  0  0  0
    3.9347    0.1096    5.8108 C   0  0  0  0  0  0  0  0  0  0  0  0
    4.8685    0.1047    6.8368 C   0  0  0  0  0  0  0  0  0  0  0  0
    4.4556   -0.2358    8.1360 C   0  0  0  0  0  0  0  0  0  0  0  0
    3.1302   -0.5477    8.3975 C   0  0  0  0  0  0  0  0  0  0  0  0
    2.1704   -0.5334    7.3653 C   0  0  0  0  0  0  0  0  0  0  0  0
    0.9086   -0.8164    7.6767 O   0  0  0  0  0  0  0  0  0  0  0  0
   -0.7818    0.0128   -1.3274 C   0  0  0  0  0  0  0  0  0  0  0  0
   -1.9115    0.5840   -1.5313 N   0  0  0  0  0  0  0  0  0  0  0  0
   -0.1033   -0.5618   -2.3881 N   0  0  0  0  0  0  0  0  0  0  0  0
    1.9184    0.0683   -0.8673 H   0  0  0  0  0  0  0  0  0  0  0  0
    3.0808    0.0029    1.3160 H   0  0  0  0  0  0  0  0  0  0  0  0
   -0.7165   -0.2617    3.3432 H   0  0  0  0  0  0  0  0  0  0  0  0
   -1.8735   -0.1935    1.1504 H   0  0  0  0  0  0  0  0  0  0  0  0
    2.9974   -0.1330    3.5533 H   0  0  0  0  0  0  0  0  0  0  0  0
    4.2705    0.4047    4.8133 H   0  0  0  0  0  0  0  0  0  0  0  0
    5.9079    0.3700    6.6362 H   0  0  0  0  0  0  0  0  0  0  0  0
    5.1821   -0.2466    8.9523 H   0  0  0  0  0  0  0  0  0  0  0  0
    2.7880   -0.8021    9.4020 H   0  0  0  0  0  0  0  0  0  0  0  0
    0.3803   -0.7095    6.8399 H   0  0  0  0  0  0  0  0  0  0  0  0
   -2.2278    1.0621   -0.6856 H   0  0  0  0  0  0  0  0  0  0  0  0
    0.4393   -1.3952   -2.1910 H   0  0  0  0  0  0  0  0  0  0  0  0
   -0.6469   -0.6013   -3.2450 H   0  0  0  0  0  0  0  0  0  0  0  0
  1  2  2  0
  1  6  1  0
  1 17  1  0
  2  3  1  0
  2 20  1  0
  3  4  2  0
  3 21  1  0
  4  5  1  0
  4  7  1  0
  5  6  2  0
  5 22  1  0
  6 23  1  0
  7  8  1  0
  7 24  1  0
  8  9  2  0
  8 10  1  0
 10 11  2  0
 10 15  1  0
 11 12  1  0
 11 25  1  0
 12 13  2  0
 12 26  1  0
 13 14  1  0
 13 27  1  0
 14 15  2  0
 14 28  1  0
 15 16  1  0
 16 29  1  0
 17 18  2  0
 17 19  1  0
 18 30  1  0
 19 31  1  0
 19 32  1  0
M  END

