rmsd67.gzmat
 OpenBabel08211713423D

 32 33  0  0  0  0  0  0  0  0999 V2000
    0.0000    0.0000    0.0000 C   0  0  0  0  0  0  0  0  0  0  0  0
    1.3944    0.0000    0.0000 C   0  0  0  0  0  0  0  0  0  0  0  0
    2.0974    0.0000    1.1997 C   0  0  0  0  0  0  0  0  0  0  0  0
    1.3925    0.0026    2.4104 C   0  0  0  0  0  0  0  0  0  0  0  0
   -0.0155   -0.0125    2.4112 C   0  0  0  0  0  0  0  0  0  0  0  0
   -0.7027   -0.0101    1.2048 C   0  0  0  0  0  0  0  0  0  0  0  0
    2.0358   -0.0122    3.6716 N   0  0  0  0  0  0  0  0  0  0  0  0
    3.3355    0.4298    3.8889 C   0  0  0  0  0  0  0  0  0  0  0  0
    3.9993    0.8648    2.9554 O   0  0  0  0  0  0  0  0  0  0  0  0
    3.8659    0.3830    5.2610 C   0  0  0  0  0  0  0  0  0  0  0  0
    3.3103   -0.4044    6.2821 C   0  0  0  0  0  0  0  0  0  0  0  0
    3.8458   -0.3940    7.5576 C   0  0  0  0  0  0  0  0  0  0  0  0
    4.9624    0.4079    7.8517 C   0  0  0  0  0  0  0  0  0  0  0  0
    5.5498    1.1767    6.8687 C   0  0  0  0  0  0  0  0  0  0  0  0
    5.0083    1.1475    5.5659 C   0  0  0  0  0  0  0  0  0  0  0  0
    5.6596    1.8954    4.6701 O   0  0  0  0  0  0  0  0  0  0  0  0
   -0.7474    0.0511   -1.2836 C   0  0  0  0  0  0  0  0  0  0  0  0
   -1.5221    0.9977   -1.6976 N   0  0  0  0  0  0  0  0  0  0  0  0
   -0.5205   -1.0281   -2.1478 N   0  0  0  0  0  0  0  0  0  0  0  0
    1.9365    0.0036   -0.9492 H   0  0  0  0  0  0  0  0  0  0  0  0
    3.1903    0.0027    1.1839 H   0  0  0  0  0  0  0  0  0  0  0  0
   -0.5686   -0.0129    3.3472 H   0  0  0  0  0  0  0  0  0  0  0  0
   -1.7939   -0.0129    1.1998 H   0  0  0  0  0  0  0  0  0  0  0  0
    1.4595   -0.2691    4.4668 H   0  0  0  0  0  0  0  0  0  0  0  0
    2.4552   -1.0484    6.0731 H   0  0  0  0  0  0  0  0  0  0  0  0
    3.4114   -1.0087    8.3418 H   0  0  0  0  0  0  0  0  0  0  0  0
    5.3674    0.4122    8.8652 H   0  0  0  0  0  0  0  0  0  0  0  0
    6.4228    1.7970    7.0624 H   0  0  0  0  0  0  0  0  0  0  0  0
    5.2782    1.7712    3.7322 H   0  0  0  0  0  0  0  0  0  0  0  0
   -1.6211    1.8447   -1.1699 H   0  0  0  0  0  0  0  0  0  0  0  0
   -0.3126   -1.9165   -1.7423 H   0  0  0  0  0  0  0  0  0  0  0  0
   -1.0796   -1.0607   -2.9843 H   0  0  0  0  0  0  0  0  0  0  0  0
  1  6  1  0  0  0  0
  2  1  2  0  0  0  0
  2  3  1  0  0  0  0
  3  4  2  0  0  0  0
  4  5  1  0  0  0  0
  4  7  1  0  0  0  0
  5 22  1  0  0  0  0
  6  5  2  0  0  0  0
  7  8  1  0  0  0  0
  7 24  1  0  0  0  0
  8 10  1  0  0  0  0
  9  8  2  0  0  0  0
 10 15  2  0  0  0  0
 10 11  1  0  0  0  0
 11 12  2  0  0  0  0
 12 13  1  0  0  0  0
 12 26  1  0  0  0  0
 13 27  1  0  0  0  0
 14 28  1  0  0  0  0
 14 13  2  0  0  0  0
 15 14  1  0  0  0  0
 16 15  1  0  0  0  0
 17  1  1  0  0  0  0
 18 17  1  0  0  0  0
 18 30  1  0  0  0  0
 19 31  1  0  0  0  0
 19 17  2  0  0  0  0
 20  2  1  0  0  0  0
 21  3  1  0  0  0  0
 23  6  1  0  0  0  0
 25 11  1  0  0  0  0
 29 16  1  0  0  0  0
 32 19  1  0  0  0  0
M  RAD  1  18   2
M  END
$$$$
