32
rmsd16.gzmat
C          0.00000        0.00000        0.00000
C          1.39440        0.00000        0.00000
C          2.09640        0.00000        1.20030
C          1.38930        0.00080        2.40980
C         -0.01840       -0.01190        2.41080
C         -0.70460       -0.00970        1.20420
N          2.02970       -0.02110        3.67120
C          3.33440        0.40370        3.89620
O          4.01150        0.84600        2.97850
C          3.83950        0.33150        5.27760
C          3.33530       -0.56490        6.23220
C          3.82640       -0.57000        7.52580
C          4.84330        0.32470        7.90060
C          5.38410        1.19870        6.97900
C          4.89480        1.18060        5.65690
O          5.49970        2.02530        4.81290
C         -0.74610        0.04460       -1.28430
N         -1.50120        0.99890       -1.71670
N         -0.54280       -1.05720       -2.12530
H          1.93680        0.00080       -0.94900
H          3.18940        0.00230        1.18850
H         -0.57080       -0.01110        3.34700
H         -1.79550       -0.01240        1.19890
H          1.44800       -0.26880        4.46630
H          2.56070       -1.28060        5.95240
H          3.43220       -1.26860        8.25950
H          5.20980        0.31670        8.92840
H          6.18180        1.89230        7.23720
H          5.18400        1.88200        3.85700
H         -1.58450        1.85680       -1.20450
H         -0.34930       -1.94030       -1.70110
H         -1.10340       -1.09730       -2.95980
