32
rmsd51.gzmat
C          0.00000        0.00000        0.00000
C          1.39460        0.00000        0.00000
C          2.09800        0.00000        1.19940
C          1.39250        0.00490        2.40970
C         -0.01570        0.00450        2.41100
C         -0.70310        0.00360        1.20530
N          2.03200       -0.02880        3.67120
C          3.35240        0.34440        3.89630
O          4.04130        0.76850        2.97760
C          3.86680        0.23670        5.27150
C          3.29710       -0.59930        6.24430
C          3.80700       -0.64140        7.52970
C          4.91290        0.15280        7.87890
C          5.51810        0.96340        6.94040
C          5.00340        0.98640        5.62760
O          5.67030        1.76780        4.77110
C         -0.75150        0.02460       -1.28120
N         -1.58840        0.92320       -1.68060
N         -0.45720       -1.02840       -2.15990
H          1.93670        0.00200       -0.94970
H          3.19120       -0.00080        1.18480
H         -0.56830        0.01410        3.34680
H         -1.79430        0.00590        1.20100
H          1.44340       -0.26080        4.46550
H          2.45180       -1.23940        5.98780
H          3.35850       -1.29160        8.27690
H          5.29610        0.11740        8.90010
H          6.38550        1.57600        7.17850
H          5.31330        1.66870        3.82230
H         -1.74050        1.75600       -1.14330
H         -0.22130       -1.91350       -1.75940
H         -1.01100       -1.07890       -2.99920
