rmsd51.gzmat
 OpenBabel08211713423D

 32 33  0  0  0  0  0  0  0  0999 V2000
    0.0000    0.0000    0.0000 C   0  0  0  0  0  0  0  0  0  0  0  0
    1.3946    0.0000    0.0000 C   0  0  0  0  0  0  0  0  0  0  0  0
    2.0980    0.0000    1.1994 C   0  0  0  0  0  0  0  0  0  0  0  0
    1.3925    0.0049    2.4097 C   0  0  0  0  0  0  0  0  0  0  0  0
   -0.0157    0.0045    2.4110 C   0  0  0  0  0  0  0  0  0  0  0  0
   -0.7031    0.0036    1.2053 C   0  0  0  0  0  0  0  0  0  0  0  0
    2.0320   -0.0288    3.6712 N   0  0  0  0  0  0  0  0  0  0  0  0
    3.3524    0.3444    3.8963 C   0  0  0  0  0  0  0  0  0  0  0  0
    4.0413    0.7685    2.9776 O   0  0  0  0  0  0  0  0  0  0  0  0
    3.8668    0.2367    5.2715 C   0  0  0  0  0  0  0  0  0  0  0  0
    3.2971   -0.5993    6.2443 C   0  0  0  0  0  0  0  0  0  0  0  0
    3.8070   -0.6414    7.5297 C   0  0  0  0  0  0  0  0  0  0  0  0
    4.9129    0.1528    7.8789 C   0  0  0  0  0  0  0  0  0  0  0  0
    5.5181    0.9634    6.9404 C   0  0  0  0  0  0  0  0  0  0  0  0
    5.0034    0.9864    5.6276 C   0  0  0  0  0  0  0  0  0  0  0  0
    5.6703    1.7678    4.7711 O   0  0  0  0  0  0  0  0  0  0  0  0
   -0.7515    0.0246   -1.2812 C   0  0  0  0  0  0  0  0  0  0  0  0
   -1.5884    0.9232   -1.6806 N   0  0  0  0  0  0  0  0  0  0  0  0
   -0.4572   -1.0284   -2.1599 N   0  0  0  0  0  0  0  0  0  0  0  0
    1.9367    0.0020   -0.9497 H   0  0  0  0  0  0  0  0  0  0  0  0
    3.1912   -0.0008    1.1848 H   0  0  0  0  0  0  0  0  0  0  0  0
   -0.5683    0.0141    3.3468 H   0  0  0  0  0  0  0  0  0  0  0  0
   -1.7943    0.0059    1.2010 H   0  0  0  0  0  0  0  0  0  0  0  0
    1.4434   -0.2608    4.4655 H   0  0  0  0  0  0  0  0  0  0  0  0
    2.4518   -1.2394    5.9878 H   0  0  0  0  0  0  0  0  0  0  0  0
    3.3585   -1.2916    8.2769 H   0  0  0  0  0  0  0  0  0  0  0  0
    5.2961    0.1174    8.9001 H   0  0  0  0  0  0  0  0  0  0  0  0
    6.3855    1.5760    7.1785 H   0  0  0  0  0  0  0  0  0  0  0  0
    5.3133    1.6687    3.8223 H   0  0  0  0  0  0  0  0  0  0  0  0
   -1.7405    1.7560   -1.1433 H   0  0  0  0  0  0  0  0  0  0  0  0
   -0.2213   -1.9135   -1.7594 H   0  0  0  0  0  0  0  0  0  0  0  0
   -1.0110   -1.0789   -2.9992 H   0  0  0  0  0  0  0  0  0  0  0  0
  1  6  1  0  0  0  0
  2  1  2  0  0  0  0
  2  3  1  0  0  0  0
  3  4  2  0  0  0  0
  4  5  1  0  0  0  0
  4  7  1  0  0  0  0
  5 22  1  0  0  0  0
  6  5  2  0  0  0  0
  7  8  1  0  0  0  0
  7 24  1  0  0  0  0
  8 10  1  0  0  0  0
  9  8  2  0  0  0  0
 10 15  2  0  0  0  0
 10 11  1  0  0  0  0
 11 12  2  0  0  0  0
 12 13  1  0  0  0  0
 12 26  1  0  0  0  0
 13 27  1  0  0  0  0
 14 28  1  0  0  0  0
 14 13  2  0  0  0  0
 15 14  1  0  0  0  0
 16 15  1  0  0  0  0
 17  1  1  0  0  0  0
 18 17  1  0  0  0  0
 18 30  1  0  0  0  0
 19 31  1  0  0  0  0
 19 17  2  0  0  0  0
 20  2  1  0  0  0  0
 21  3  1  0  0  0  0
 23  6  1  0  0  0  0
 25 11  1  0  0  0  0
 29 16  1  0  0  0  0
 32 19  1  0  0  0  0
M  RAD  1  18   2
M  END
$$$$
