32
rmsd53.gzmat
C          0.00000        0.00000        0.00000
C          1.39480        0.00000        0.00000
C          2.09870        0.00000        1.19920
C          1.39390       -0.00770        2.41010
C         -0.01420       -0.00190        2.41190
C         -0.70230        0.00250        1.20620
N          2.03680        0.01170        3.67120
C          3.34190       -0.41240        3.89210
O          4.01550       -0.84250        2.96390
C          3.85780       -0.35980        5.27020
C          3.30730        0.45600        6.27130
C          3.81200        0.43680        7.55930
C          4.89560       -0.39780        7.88380
C          5.48220       -1.19050        6.91860
C          4.97250       -1.15180        5.60420
O          5.62200       -1.91900        4.72220
C         -0.74900        0.01750       -1.28380
N         -1.59840        0.90340       -1.68660
N         -0.43430       -1.02800       -2.16150
H          1.93600        0.00320       -0.95000
H          3.19190        0.00370        1.18470
H         -0.56680       -0.01210        3.34810
H         -1.79350        0.00100        1.20240
H          1.45860        0.26920        4.46540
H          2.48160        1.12860        6.03570
H          3.37660        1.06870        8.32930
H          5.27640       -0.40730        8.90670
H          6.33080       -1.83600        7.13630
H          5.26800       -1.77750        3.77680
H         -1.76950        1.73120       -1.14800
H         -0.14410       -1.89850       -1.76530
H         -0.98960       -1.10040       -2.99710
