rmsd50.gzmat
 OpenBabel08211713423D

 32 33  0  0  0  0  0  0  0  0999 V2000
    0.0000    0.0000    0.0000 C   0  0  0  0  0  0  0  0  0  0  0  0
    1.3944    0.0000    0.0000 C   0  0  0  0  0  0  0  0  0  0  0  0
    2.1002    0.0000    1.1983 C   0  0  0  0  0  0  0  0  0  0  0  0
    1.3987    0.0045    2.4105 C   0  0  0  0  0  0  0  0  0  0  0  0
   -0.0113   -0.0017    2.4110 C   0  0  0  0  0  0  0  0  0  0  0  0
   -0.7007   -0.0028    1.2069 C   0  0  0  0  0  0  0  0  0  0  0  0
    2.0241    0.0036    3.6781 N   0  0  0  0  0  0  0  0  0  0  0  0
    3.3884    0.1417    3.9071 C   0  0  0  0  0  0  0  0  0  0  0  0
    4.1650    0.2863    2.9710 O   0  0  0  0  0  0  0  0  0  0  0  0
    3.8512    0.1434    5.3052 C   0  0  0  0  0  0  0  0  0  0  0  0
    3.0839   -0.3393    6.3780 C   0  0  0  0  0  0  0  0  0  0  0  0
    3.5558   -0.2740    7.6763 C   0  0  0  0  0  0  0  0  0  0  0  0
    4.8233    0.2733    7.9423 C   0  0  0  0  0  0  0  0  0  0  0  0
    5.6182    0.7297    6.9116 C   0  0  0  0  0  0  0  0  0  0  0  0
    5.1357    0.6448    5.5881 C   0  0  0  0  0  0  0  0  0  0  0  0
    5.9851    1.0759    4.6506 O   0  0  0  0  0  0  0  0  0  0  0  0
   -0.7494    0.0264   -1.2822 C   0  0  0  0  0  0  0  0  0  0  0  0
   -1.5990    0.9157   -1.6765 N   0  0  0  0  0  0  0  0  0  0  0  0
   -0.4350   -1.0133   -2.1683 N   0  0  0  0  0  0  0  0  0  0  0  0
    1.9364    0.0023   -0.9498 H   0  0  0  0  0  0  0  0  0  0  0  0
    3.1936   -0.0028    1.1756 H   0  0  0  0  0  0  0  0  0  0  0  0
   -0.5640   -0.0018    3.3471 H   0  0  0  0  0  0  0  0  0  0  0  0
   -1.7920   -0.0064    1.2041 H   0  0  0  0  0  0  0  0  0  0  0  0
    1.3991   -0.0510    4.4792 H   0  0  0  0  0  0  0  0  0  0  0  0
    2.1066   -0.7875    6.1948 H   0  0  0  0  0  0  0  0  0  0  0  0
    2.9519   -0.6475    8.4997 H   0  0  0  0  0  0  0  0  0  0  0  0
    5.1755    0.3271    8.9739 H   0  0  0  0  0  0  0  0  0  0  0  0
    6.6086    1.1465    7.0825 H   0  0  0  0  0  0  0  0  0  0  0  0
    5.6139    0.9234    3.7126 H   0  0  0  0  0  0  0  0  0  0  0  0
   -1.7665    1.7398   -1.1304 H   0  0  0  0  0  0  0  0  0  0  0  0
   -0.1687   -1.8930   -1.7758 H   0  0  0  0  0  0  0  0  0  0  0  0
   -0.9874   -1.0720   -3.0073 H   0  0  0  0  0  0  0  0  0  0  0  0
  1  6  1  0  0  0  0
  2  1  2  0  0  0  0
  2  3  1  0  0  0  0
  3  4  2  0  0  0  0
  4  5  1  0  0  0  0
  4  7  1  0  0  0  0
  5 22  1  0  0  0  0
  6  5  2  0  0  0  0
  7  8  1  0  0  0  0
  7 24  1  0  0  0  0
  8 10  1  0  0  0  0
  9  8  2  0  0  0  0
 10 15  2  0  0  0  0
 10 11  1  0  0  0  0
 11 12  2  0  0  0  0
 12 13  1  0  0  0  0
 12 26  1  0  0  0  0
 13 27  1  0  0  0  0
 14 28  1  0  0  0  0
 14 13  2  0  0  0  0
 15 14  1  0  0  0  0
 16 15  1  0  0  0  0
 17  1  1  0  0  0  0
 18 17  1  0  0  0  0
 18 30  1  0  0  0  0
 19 31  1  0  0  0  0
 19 17  2  0  0  0  0
 20  2  1  0  0  0  0
 21  3  1  0  0  0  0
 23  6  1  0  0  0  0
 25 11  1  0  0  0  0
 29 16  1  0  0  0  0
 32 19  1  0  0  0  0
M  RAD  1  18   2
M  END
$$$$
