
     RDKit          3D

 32 33  0  0  0  0  0  0  0  0999 V2000
   -0.0718   -0.0484   -0.0095 C   0  0  0  0  0  0  0  0  0  0  0  0
    1.3095    0.1949   -0.0424 C   0  0  0  0  0  0  0  0  0  0  0  0
    2.0730    0.2612    1.1226 C   0  0  0  0  0  0  0  0  0  0  0  0
    1.4528    0.0698    2.3690 C   0  0  0  0  0  0  0  0  0  0  0  0
    0.0684   -0.1819    2.4113 C   0  0  0  0  0  0  0  0  0  0  0  0
   -0.6792   -0.2371    1.2417 C   0  0  0  0  0  0  0  0  0  0  0  0
    2.1326    0.1071    3.5975 N   0  0  0  0  0  0  0  0  0  0  0  0
    3.4583    0.3267    3.8516 C   0  0  0  0  0  0  0  0  0  0  0  0
    4.2642    0.5819    2.9445 O   0  0  0  0  0  0  0  0  0  0  0  0
    3.8923    0.2656    5.2700 C   0  0  0  0  0  0  0  0  0  0  0  0
    3.0700   -0.1883    6.3226 C   0  0  0  0  0  0  0  0  0  0  0  0
    3.5091   -0.2011    7.6387 C   0  0  0  0  0  0  0  0  0  0  0  0
    4.8083    0.2471    7.9307 C   0  0  0  0  0  0  0  0  0  0  0  0
    5.6501    0.6823    6.9186 C   0  0  0  0  0  0  0  0  0  0  0  0
    5.2190    0.6876    5.5766 C   0  0  0  0  0  0  0  0  0  0  0  0
    6.0761    1.0920    4.6432 O   0  0  0  0  0  0  0  0  0  0  0  0
   -0.8920   -0.0892   -1.2596 C   0  0  0  0  0  0  0  0  0  0  0  0
   -2.1086    0.3036   -1.3662 N   0  0  0  0  0  0  0  0  0  0  0  0
   -0.2226   -0.5544   -2.3757 N   0  0  0  0  0  0  0  0  0  0  0  0
    1.7965    0.3617   -1.0051 H   0  0  0  0  0  0  0  0  0  0  0  0
    3.1386    0.4670    1.0818 H   0  0  0  0  0  0  0  0  0  0  0  0
   -0.4222   -0.3443    3.3755 H   0  0  0  0  0  0  0  0  0  0  0  0
   -1.7493   -0.4489    1.2949 H   0  0  0  0  0  0  0  0  0  0  0  0
    1.5407   -0.0130    4.4086 H   0  0  0  0  0  0  0  0  0  0  0  0
    2.0660   -0.5667    6.1138 H   0  0  0  0  0  0  0  0  0  0  0  0
    2.8544   -0.5621    8.4336 H   0  0  0  0  0  0  0  0  0  0  0  0
    5.1649    0.2454    8.9637 H   0  0  0  0  0  0  0  0  0  0  0  0
    6.6665    1.0224    7.1241 H   0  0  0  0  0  0  0  0  0  0  0  0
    5.6137    0.9819    3.7685 H   0  0  0  0  0  0  0  0  0  0  0  0
   -2.4235    0.7304   -0.4930 H   0  0  0  0  0  0  0  0  0  0  0  0
    0.4708   -1.2800   -2.2359 H   0  0  0  0  0  0  0  0  0  0  0  0
   -0.8149   -0.6752   -3.1913 H   0  0  0  0  0  0  0  0  0  0  0  0
  1  2  2  0
  1  6  1  0
  1 17  1  0
  2  3  1  0
  2 20  1  0
  3  4  2  0
  3 21  1  0
  4  5  1  0
  4  7  1  0
  5  6  2  0
  5 22  1  0
  6 23  1  0
  7  8  1  0
  7 24  1  0
  8  9  2  0
  8 10  1  0
 10 11  2  0
 10 15  1  0
 11 12  1  0
 11 25  1  0
 12 13  2  0
 12 26  1  0
 13 14  1  0
 13 27  1  0
 14 15  2  0
 14 28  1  0
 15 16  1  0
 16 29  1  0
 17 18  2  0
 17 19  1  0
 18 30  1  0
 19 31  1  0
 19 32  1  0
M  END

