59

C          1.53610        1.40540        0.53830
C          2.75440        1.67440        1.16940
C          2.88860        1.47150        2.54330
C          1.79240        1.00410        3.27710
C          0.56230        0.73290        2.67240
C          0.45060        0.93560        1.28270
O         -0.76110        0.67290        0.71230
C         -0.64400        0.26560        3.47050
N         -1.83750        1.09480        3.42870
C         -1.76640        2.43930        3.97800
H         -1.21190        2.36860        4.93430
C         -3.19050        2.91830        4.29920
C         -3.21140        4.33380        4.87250
N         -2.51370        5.28840        4.00140
C         -1.13880        4.89140        3.67810
C         -1.05180        3.48210        3.08980
S         -3.38800        5.98520        2.75850
O         -3.10660        5.38190        1.45440
O         -4.75820        6.11270        3.24080
N         -2.67910        7.50160        2.63100
C         -2.40560        8.36190        3.70830
C         -1.27540        9.18680        3.63760
C         -0.99010       10.07000        4.68100
C         -1.80830       10.12600        5.81490
C         -2.92190        9.28490        5.87590
C         -3.23900        8.40990        4.83770
O          0.09780       10.88720        4.50440
C          0.82760       11.32420        5.58380
C          1.27670       10.44430        6.57650
C          2.06870       10.92370        7.62010
C          2.40970       12.27470        7.65210
C          1.97620       13.15750        6.66640
C          1.17500       12.67690        5.62880
F          3.17360       12.73350        8.65520
H          1.42480        1.56300       -0.53910
H          3.59680        2.04280        0.57920
H          3.83770        1.67760        3.04250
H          1.88700        0.85190        4.35630
H         -0.72360        0.86220       -0.23430
H         -0.33820        0.14460        4.52320
H         -0.93540       -0.73680        3.11290
H         -2.21690        1.11380        2.48410
H         -3.65930        2.21000        4.99950
H         -3.79140        2.89960        3.37270
H         -4.23440        4.69300        5.03380
H         -2.68970        4.36540        5.84500
H         -0.70440        5.63710        2.99710
H         -0.56580        4.95470        4.61960
H         -1.52410        3.48260        2.09460
H          0.00520        3.21550        2.95480
H         -2.10490        7.57370        1.79760
H         -0.60500        9.15750        2.77660
H         -1.58240       10.81900        6.62530
H         -3.57360        9.32750        6.75180
H         -4.12770        7.78280        4.88180
H          1.00350        9.38910        6.52980
H          2.43280       10.26100        8.40710
H          2.26350       14.20870        6.72370
H          0.81360       13.33970        4.84110
