rmsd77.gzmat
 OpenBabel08211713433D

 59 62  0  0  0  0  0  0  0  0999 V2000
    0.0000    0.0000    0.0000 C   0  0  0  0  0  0  0  0  0  0  0  0
    1.3932    0.0000    0.0000 C   0  0  0  0  0  0  0  0  0  0  0  0
    2.0979    0.0000    1.2022 C   0  0  0  0  0  0  0  0  0  0  0  0
    1.4136   -0.0015    2.4182 C   0  0  0  0  0  0  0  0  0  0  0  0
    0.0218   -0.0126    2.4508 C   0  0  0  0  0  0  0  0  0  0  0  0
   -0.6631   -0.0062    1.2273 C   0  0  0  0  0  0  0  0  0  0  0  0
   -2.0214   -0.0270    1.3075 O   0  0  0  0  0  0  0  0  0  0  0  0
   -0.7256   -0.0679    3.7544 C   0  0  0  0  0  0  0  0  0  0  0  0
   -0.7370   -1.4033    4.3810 N   0  0  0  0  0  0  0  0  0  0  0  0
   -1.4479   -2.4293    3.5884 C   0  0  0  0  0  0  0  0  0  0  0  0
   -2.2411   -1.9327    2.9715 H   0  0  0  0  0  0  0  0  0  0  0  0
   -2.1173   -3.3925    4.5935 C   0  0  0  0  0  0  0  0  0  0  0  0
   -2.8372   -4.5221    3.8405 C   0  0  0  0  0  0  0  0  0  0  0  0
   -1.9576   -5.2606    2.9140 N   0  0  0  0  0  0  0  0  0  0  0  0
   -1.2897   -4.3529    1.9626 C   0  0  0  0  0  0  0  0  0  0  0  0
   -0.5078   -3.2265    2.6552 C   0  0  0  0  0  0  0  0  0  0  0  0
   -0.9745   -6.5162    3.6086 S   0  0  0  0  0  0  0  0  0  0  0  0
    0.4218   -6.2080    3.4327 O   0  0  0  0  0  0  0  0  0  0  0  0
   -1.5406   -6.8618    4.8831 O   0  0  0  0  0  0  0  0  0  0  0  0
   -1.2254   -7.8213    2.4856 N   0  0  0  0  0  0  0  0  0  0  0  0
   -2.4597   -8.3999    2.1737 C   0  0  0  0  0  0  0  0  0  0  0  0
   -2.5816   -9.0624    0.9397 C   0  0  0  0  0  0  0  0  0  0  0  0
   -3.8027   -9.6613    0.6319 C   0  0  0  0  0  0  0  0  0  0  0  0
   -4.9008   -9.6249    1.4878 C   0  0  0  0  0  0  0  0  0  0  0  0
   -4.7513   -8.9657    2.7076 C   0  0  0  0  0  0  0  0  0  0  0  0
   -3.5525   -8.3608    3.0616 C   0  0  0  0  0  0  0  0  0  0  0  0
   -3.7825  -10.3203   -0.5702 O   0  0  0  0  0  0  0  0  0  0  0  0
   -4.9929  -10.7138   -1.1006 C   0  0  0  0  0  0  0  0  0  0  0  0
   -5.9503   -9.7718   -1.4789 C   0  0  0  0  0  0  0  0  0  0  0  0
   -7.0957  -10.2109   -2.1351 C   0  0  0  0  0  0  0  0  0  0  0  0
   -7.2321  -11.5777   -2.3821 C   0  0  0  0  0  0  0  0  0  0  0  0
   -6.2773  -12.5236   -2.0061 C   0  0  0  0  0  0  0  0  0  0  0  0
   -5.1341  -12.0803   -1.3486 C   0  0  0  0  0  0  0  0  0  0  0  0
   -8.3237  -11.9984   -3.0041 F   0  0  0  0  0  0  0  0  0  0  0  0
   -0.5534    0.0052   -0.9327 H   0  0  0  0  0  0  0  0  0  0  0  0
    1.9324    0.0005   -0.9472 H   0  0  0  0  0  0  0  0  0  0  0  0
    3.1857    0.0031    1.1953 H   0  0  0  0  0  0  0  0  0  0  0  0
    1.9733    0.0052    3.3538 H   0  0  0  0  0  0  0  0  0  0  0  0
   -2.4471    0.0564    0.4205 H   0  0  0  0  0  0  0  0  0  0  0  0
   -1.7838    0.2659    3.6234 H   0  0  0  0  0  0  0  0  0  0  0  0
   -0.2798    0.6420    4.4920 H   0  0  0  0  0  0  0  0  0  0  0  0
    0.2050   -1.7092    4.6176 H   0  0  0  0  0  0  0  0  0  0  0  0
   -2.8329   -2.8314    5.2233 H   0  0  0  0  0  0  0  0  0  0  0  0
   -1.3690   -3.7929    5.3018 H   0  0  0  0  0  0  0  0  0  0  0  0
   -3.3102   -5.2286    4.5627 H   0  0  0  0  0  0  0  0  0  0  0  0
   -3.6736   -4.1025    3.2322 H   0  0  0  0  0  0  0  0  0  0  0  0
   -0.6172   -4.9294    1.2885 H   0  0  0  0  0  0  0  0  0  0  0  0
   -2.0835   -3.9196    1.3080 H   0  0  0  0  0  0  0  0  0  0  0  0
    0.3473   -3.6445    3.2227 H   0  0  0  0  0  0  0  0  0  0  0  0
   -0.0590   -2.5569    1.9000 H   0  0  0  0  0  0  0  0  0  0  0  0
   -0.4532   -8.0328    1.8539 H   0  0  0  0  0  0  0  0  0  0  0  0
   -1.7605   -9.1155    0.2341 H   0  0  0  0  0  0  0  0  0  0  0  0
   -5.8369  -10.1047    1.2287 H   0  0  0  0  0  0  0  0  0  0  0  0
   -5.5927   -8.9339    3.4019 H   0  0  0  0  0  0  0  0  0  0  0  0
   -3.4650   -7.8874    4.0393 H   0  0  0  0  0  0  0  0  0  0  0  0
   -5.7946   -8.7156   -1.2653 H   0  0  0  0  0  0  0  0  0  0  0  0
   -7.8612   -9.5027   -2.4500 H   0  0  0  0  0  0  0  0  0  0  0  0
   -6.4197  -13.5825   -2.2188 H   0  0  0  0  0  0  0  0  0  0  0  0
   -4.3561  -12.7746   -1.0323 H   0  0  0  0  0  0  0  0  0  0  0  0
  1  2  2  0  0  0  0
  1  6  1  0  0  0  0
  2  3  1  0  0  0  0
  3  4  2  0  0  0  0
  4  5  1  0  0  0  0
  4 38  1  0  0  0  0
  5  8  1  0  0  0  0
  6  7  1  0  0  0  0
  6  5  2  0  0  0  0
  8  9  1  0  0  0  0
  8 41  1  0  0  0  0
  9 42  1  0  0  0  0
 10  9  1  0  0  0  0
 10 12  1  0  0  0  0
 11 10  1  0  0  0  0
 12 43  1  0  0  0  0
 12 44  1  0  0  0  0
 13 45  1  0  0  0  0
 13 12  1  0  0  0  0
 14 17  1  0  0  0  0
 14 13  1  0  0  0  0
 15 16  1  0  0  0  0
 15 14  1  0  0  0  0
 16 49  1  0  0  0  0
 16 10  1  0  0  0  0
 17 19  2  0  0  0  0
 18 17  2  0  0  0  0
 20 17  1  0  0  0  0
 21 20  1  0  0  0  0
 21 26  2  0  0  0  0
 22 21  1  0  0  0  0
 23 22  2  0  0  0  0
 23 24  1  0  0  0  0
 24 25  2  0  0  0  0
 25 26  1  0  0  0  0
 25 54  1  0  0  0  0
 26 55  1  0  0  0  0
 27 23  1  0  0  0  0
 28 27  1  0  0  0  0
 29 56  1  0  0  0  0
 29 28  2  0  0  0  0
 30 29  1  0  0  0  0
 31 30  2  0  0  0  0
 31 32  1  0  0  0  0
 32 33  2  0  0  0  0
 33 28  1  0  0  0  0
 33 59  1  0  0  0  0
 34 31  1  0  0  0  0
 35  1  1  0  0  0  0
 36  2  1  0  0  0  0
 37  3  1  0  0  0  0
 39  7  1  0  0  0  0
 40  8  1  0  0  0  0
 46 13  1  0  0  0  0
 47 15  1  0  0  0  0
 48 15  1  0  0  0  0
 50 16  1  0  0  0  0
 51 20  1  0  0  0  0
 52 22  1  0  0  0  0
 53 24  1  0  0  0  0
 57 30  1  0  0  0  0
 58 32  1  0  0  0  0
M  END
$$$$
