59

C         -0.72190        0.01210       -0.00980
C          0.57690        0.13170       -0.51160
C          1.66400        0.13480        0.36260
C          1.43560        0.02280        1.73710
C          0.14640       -0.09540        2.26960
C         -0.93660       -0.09830        1.36880
O         -2.19280       -0.22080        1.89050
C         -0.06950       -0.20930        3.77170
N         -0.05540       -1.53800        4.36470
C         -1.20860       -2.41180        4.20470
H         -2.10250       -1.76290        4.19810
C         -1.31250       -3.34850        5.41880
C         -2.49730       -4.30730        5.30240
N         -2.46510       -5.08910        4.05320
C         -2.37220       -4.23670        2.85610
C         -1.21320       -3.23890        2.90620
S         -1.45700       -6.44160        4.08020
O         -0.13030       -6.13850        3.54170
O         -1.61790       -7.04560        5.39500
N         -2.19210       -7.50850        3.01080
C         -2.17830       -7.45800        1.60030
C         -1.05470       -7.01560        0.88840
C         -1.10290       -6.97500       -0.50720
C         -2.22630       -7.42150       -1.21100
C         -3.32290       -7.89320       -0.48950
C         -3.31770       -7.89810        0.90610
O         -0.03360       -6.53490       -1.24360
C          0.78240       -5.55280       -0.72640
C          2.16310       -5.75880       -0.74660
C          3.02150       -4.76160       -0.27580
C          2.47910       -3.57900        0.21940
C          1.10360       -3.36000        0.24420
C          0.25280       -4.35300       -0.23730
F          3.30370       -2.62380        0.68440
H         -1.57850        0.00630       -0.69150
H          0.73260        0.21340       -1.58960
H          2.68310        0.20770       -0.01970
H          2.28570        0.02460        2.42530
H         -2.84240       -0.15620        1.17860
H         -1.02620        0.26550        4.03520
H          0.72220        0.38100        4.26300
H          0.80860       -2.03330        4.15000
H         -1.39680       -2.74350        6.33490
H         -0.38090       -3.93420        5.50530
H         -2.54520       -5.00540        6.14670
H         -3.44630       -3.74350        5.28250
H         -2.31020       -4.87200        1.96290
H         -3.33390       -3.69820        2.79290
H         -0.26470       -3.79080        2.82860
H         -1.28430       -2.57330        2.03670
H         -3.03990       -7.88150        3.42950
H         -0.16390       -6.69610        1.42270
H         -2.22130       -7.38670       -2.30100
H         -4.20960       -8.24390       -1.02270
H         -4.19420       -8.24040        1.46120
H          2.55150       -6.70310       -1.13060
H          4.10440       -4.89640       -0.27790
H          0.71380       -2.42190        0.63280
H         -0.82750       -4.20120       -0.22840
