rmsd192.gzmat
 OpenBabel08211713423D

 59 62  0  0  0  0  0  0  0  0999 V2000
    0.0000    0.0000    0.0000 C   0  0  0  0  0  0  0  0  0  0  0  0
    1.3915    0.0000    0.0000 C   0  0  0  0  0  0  0  0  0  0  0  0
    2.0925    0.0000    1.2044 C   0  0  0  0  0  0  0  0  0  0  0  0
    1.4059   -0.0023    2.4189 C   0  0  0  0  0  0  0  0  0  0  0  0
    0.0139    0.0039    2.4518 C   0  0  0  0  0  0  0  0  0  0  0  0
   -0.6678    0.0043    1.2253 C   0  0  0  0  0  0  0  0  0  0  0  0
   -2.0253    0.0004    1.2884 O   0  0  0  0  0  0  0  0  0  0  0  0
   -0.7364    0.0019    3.7560 C   0  0  0  0  0  0  0  0  0  0  0  0
   -1.7191    1.0917    3.9055 N   0  0  0  0  0  0  0  0  0  0  0  0
   -1.1475    2.4037    4.2668 C   0  0  0  0  0  0  0  0  0  0  0  0
   -0.5033    2.2651    5.1714 H   0  0  0  0  0  0  0  0  0  0  0  0
   -2.3495    3.3081    4.6271 C   0  0  0  0  0  0  0  0  0  0  0  0
   -1.8707    4.7244    4.9718 C   0  0  0  0  0  0  0  0  0  0  0  0
   -1.0773    5.3431    3.8979 N   0  0  0  0  0  0  0  0  0  0  0  0
    0.0662    4.5063    3.5011 C   0  0  0  0  0  0  0  0  0  0  0  0
   -0.3100    3.0596    3.1459 C   0  0  0  0  0  0  0  0  0  0  0  0
   -1.9241    6.2381    2.6846 S   0  0  0  0  0  0  0  0  0  0  0  0
   -3.0259    6.9042    3.3304 O   0  0  0  0  0  0  0  0  0  0  0  0
   -0.9414    6.9185    1.8887 O   0  0  0  0  0  0  0  0  0  0  0  0
   -2.7396    5.0662    1.6709 N   0  0  0  0  0  0  0  0  0  0  0  0
   -2.1993    4.3250    0.6203 C   0  0  0  0  0  0  0  0  0  0  0  0
   -2.9414    3.2203    0.1544 C   0  0  0  0  0  0  0  0  0  0  0  0
   -2.3885    2.4373   -0.8501 C   0  0  0  0  0  0  0  0  0  0  0  0
   -1.1526    2.6997   -1.4360 C   0  0  0  0  0  0  0  0  0  0  0  0
   -0.4421    3.8032   -0.9672 C   0  0  0  0  0  0  0  0  0  0  0  0
   -0.9487    4.6132    0.0418 C   0  0  0  0  0  0  0  0  0  0  0  0
   -2.9765    1.2561   -1.2556 O   0  0  0  0  0  0  0  0  0  0  0  0
   -4.3484    1.2519   -1.3820 C   0  0  0  0  0  0  0  0  0  0  0  0
   -5.0336    2.3009   -1.9949 C   0  0  0  0  0  0  0  0  0  0  0  0
   -6.4060    2.1793   -2.1868 C   0  0  0  0  0  0  0  0  0  0  0  0
   -7.0313    1.0075   -1.7575 C   0  0  0  0  0  0  0  0  0  0  0  0
   -6.3483   -0.0438   -1.1440 C   0  0  0  0  0  0  0  0  0  0  0  0
   -4.9765    0.0827   -0.9483 C   0  0  0  0  0  0  0  0  0  0  0  0
   -8.3382    0.8883   -1.9400 F   0  0  0  0  0  0  0  0  0  0  0  0
   -0.5598   -0.0023   -0.9321 H   0  0  0  0  0  0  0  0  0  0  0  0
    1.9321   -0.0013   -0.9456 H   0  0  0  0  0  0  0  0  0  0  0  0
    3.1791   -0.0023    1.1996 H   0  0  0  0  0  0  0  0  0  0  0  0
    1.9677   -0.0092    3.3526 H   0  0  0  0  0  0  0  0  0  0  0  0
   -2.4374    0.2081    0.4079 H   0  0  0  0  0  0  0  0  0  0  0  0
   -0.0415    0.0123    4.6237 H   0  0  0  0  0  0  0  0  0  0  0  0
   -1.3205   -0.9528    3.8372 H   0  0  0  0  0  0  0  0  0  0  0  0
   -2.2917    1.1537    3.0625 H   0  0  0  0  0  0  0  0  0  0  0  0
   -2.8944    2.8668    5.4837 H   0  0  0  0  0  0  0  0  0  0  0  0
   -3.0775    3.3231    3.7969 H   0  0  0  0  0  0  0  0  0  0  0  0
   -2.7340    5.3784    5.2403 H   0  0  0  0  0  0  0  0  0  0  0  0
   -1.2241    4.6957    5.8824 H   0  0  0  0  0  0  0  0  0  0  0  0
    0.6164    4.9837    2.6568 H   0  0  0  0  0  0  0  0  0  0  0  0
    0.7795    4.5055    4.3618 H   0  0  0  0  0  0  0  0  0  0  0  0
   -0.8577    3.0113    2.1879 H   0  0  0  0  0  0  0  0  0  0  0  0
    0.6102    2.4712    2.9704 H   0  0  0  0  0  0  0  0  0  0  0  0
   -3.7358    4.9309    1.8483 H   0  0  0  0  0  0  0  0  0  0  0  0
   -3.9072    2.9734    0.5815 H   0  0  0  0  0  0  0  0  0  0  0  0
   -0.7656    2.0676   -2.2276 H   0  0  0  0  0  0  0  0  0  0  0  0
    0.5291    4.0391   -1.4068 H   0  0  0  0  0  0  0  0  0  0  0  0
   -0.3733    5.4904    0.3475 H   0  0  0  0  0  0  0  0  0  0  0  0
   -4.4996    3.1938   -2.3182 H   0  0  0  0  0  0  0  0  0  0  0  0
   -6.9724    2.9790   -2.6634 H   0  0  0  0  0  0  0  0  0  0  0  0
   -6.8731   -0.9433   -0.8218 H   0  0  0  0  0  0  0  0  0  0  0  0
   -4.4035   -0.7122   -0.4731 H   0  0  0  0  0  0  0  0  0  0  0  0
  1  2  2  0  0  0  0
  1  6  1  0  0  0  0
  2  3  1  0  0  0  0
  3  4  2  0  0  0  0
  4  5  1  0  0  0  0
  4 38  1  0  0  0  0
  5  8  1  0  0  0  0
  6  7  1  0  0  0  0
  6  5  2  0  0  0  0
  8 41  1  0  0  0  0
  8  9  1  0  0  0  0
  8 40  1  0  0  0  0
  9 10  1  0  0  0  0
 10 12  1  0  0  0  0
 10 11  1  0  0  0  0
 12 13  1  0  0  0  0
 12 43  1  0  0  0  0
 13 45  1  0  0  0  0
 13 46  1  0  0  0  0
 14 13  1  0  0  0  0
 15 14  1  0  0  0  0
 15 48  1  0  0  0  0
 16 15  1  0  0  0  0
 16 10  1  0  0  0  0
 17 18  2  0  0  0  0
 17 14  1  0  0  0  0
 19 17  2  0  0  0  0
 20 51  1  0  0  0  0
 20 17  1  0  0  0  0
 21 20  1  0  0  0  0
 22 52  1  0  0  0  0
 22 21  1  0  0  0  0
 23 22  2  0  0  0  0
 24 25  2  0  0  0  0
 24 23  1  0  0  0  0
 25 26  1  0  0  0  0
 26 55  1  0  0  0  0
 26 21  2  0  0  0  0
 27 23  1  0  0  0  0
 28 27  1  0  0  0  0
 28 33  2  0  0  0  0
 29 28  1  0  0  0  0
 30 29  2  0  0  0  0
 30 31  1  0  0  0  0
 31 32  2  0  0  0  0
 32 33  1  0  0  0  0
 32 58  1  0  0  0  0
 33 59  1  0  0  0  0
 34 31  1  0  0  0  0
 35  1  1  0  0  0  0
 36  2  1  0  0  0  0
 37  3  1  0  0  0  0
 39  7  1  0  0  0  0
 42  9  1  0  0  0  0
 44 12  1  0  0  0  0
 47 15  1  0  0  0  0
 49 16  1  0  0  0  0
 50 16  1  0  0  0  0
 53 24  1  0  0  0  0
 54 25  1  0  0  0  0
 56 29  1  0  0  0  0
 57 30  1  0  0  0  0
M  END
$$$$
