
     RDKit          3D

 59 62  0  0  0  0  0  0  0  0999 V2000
    0.6653   -0.0146   -0.0730 C   0  0  0  0  0  0  0  0  0  0  0  0
    2.0187   -0.0207    0.2741 C   0  0  0  0  0  0  0  0  0  0  0  0
    2.3973   -0.1177    1.6142 C   0  0  0  0  0  0  0  0  0  0  0  0
    1.4094   -0.1967    2.6015 C   0  0  0  0  0  0  0  0  0  0  0  0
    0.0488   -0.1769    2.2822 C   0  0  0  0  0  0  0  0  0  0  0  0
   -0.3125   -0.0951    0.9232 C   0  0  0  0  0  0  0  0  0  0  0  0
   -1.6445   -0.0974    0.6356 O   0  0  0  0  0  0  0  0  0  0  0  0
   -1.0391   -0.2128    3.3427 C   0  0  0  0  0  0  0  0  0  0  0  0
   -1.9862    0.8934    3.3532 N   0  0  0  0  0  0  0  0  0  0  0  0
   -1.5379    2.1901    3.8310 C   0  0  0  0  0  0  0  0  0  0  0  0
   -1.0903    2.0313    4.8319 H   0  0  0  0  0  0  0  0  0  0  0  0
   -2.7733    3.0836    4.0133 C   0  0  0  0  0  0  0  0  0  0  0  0
   -2.4110    4.4712    4.5372 C   0  0  0  0  0  0  0  0  0  0  0  0
   -1.4016    5.1202    3.7000 N   0  0  0  0  0  0  0  0  0  0  0  0
   -0.1896    4.3286    3.4697 C   0  0  0  0  0  0  0  0  0  0  0  0
   -0.4920    2.9181    2.9573 C   0  0  0  0  0  0  0  0  0  0  0  0
   -1.8713    6.3008    2.6373 S   0  0  0  0  0  0  0  0  0  0  0  0
   -2.9313    7.0638    3.2826 O   0  0  0  0  0  0  0  0  0  0  0  0
   -0.6530    6.9031    2.1134 O   0  0  0  0  0  0  0  0  0  0  0  0
   -2.6854    5.6030    1.3076 N   0  0  0  0  0  0  0  0  0  0  0  0
   -2.1076    4.7025    0.3965 C   0  0  0  0  0  0  0  0  0  0  0  0
   -2.8278    3.5526    0.0297 C   0  0  0  0  0  0  0  0  0  0  0  0
   -2.2756    2.6583   -0.8889 C   0  0  0  0  0  0  0  0  0  0  0  0
   -1.0081    2.8737   -1.4329 C   0  0  0  0  0  0  0  0  0  0  0  0
   -0.2987    4.0116   -1.0477 C   0  0  0  0  0  0  0  0  0  0  0  0
   -0.8362    4.9365   -0.1534 C   0  0  0  0  0  0  0  0  0  0  0  0
   -2.9127    1.4875   -1.2552 O   0  0  0  0  0  0  0  0  0  0  0  0
   -4.2785    1.3684   -1.0416 C   0  0  0  0  0  0  0  0  0  0  0  0
   -5.1691    2.0990   -1.8327 C   0  0  0  0  0  0  0  0  0  0  0  0
   -6.5427    1.9521   -1.6397 C   0  0  0  0  0  0  0  0  0  0  0  0
   -6.9982    1.0703   -0.6599 C   0  0  0  0  0  0  0  0  0  0  0  0
   -6.1170    0.3361    0.1298 C   0  0  0  0  0  0  0  0  0  0  0  0
   -4.7413    0.4908   -0.0592 C   0  0  0  0  0  0  0  0  0  0  0  0
   -8.3168    0.9267   -0.4759 F   0  0  0  0  0  0  0  0  0  0  0  0
    0.3609    0.0452   -1.1208 H   0  0  0  0  0  0  0  0  0  0  0  0
    2.7762    0.0451   -0.5104 H   0  0  0  0  0  0  0  0  0  0  0  0
    3.4537   -0.1286    1.8907 H   0  0  0  0  0  0  0  0  0  0  0  0
    1.6987   -0.2605    3.6546 H   0  0  0  0  0  0  0  0  0  0  0  0
   -1.8261    0.2028   -0.2715 H   0  0  0  0  0  0  0  0  0  0  0  0
   -0.5678   -0.2781    4.3369 H   0  0  0  0  0  0  0  0  0  0  0  0
   -1.6218   -1.1418    3.2131 H   0  0  0  0  0  0  0  0  0  0  0  0
   -2.4117    0.9820    2.4326 H   0  0  0  0  0  0  0  0  0  0  0  0
   -3.4810    2.5858    4.6934 H   0  0  0  0  0  0  0  0  0  0  0  0
   -3.2807    3.1835    3.0371 H   0  0  0  0  0  0  0  0  0  0  0  0
   -3.2836    5.1321    4.6096 H   0  0  0  0  0  0  0  0  0  0  0  0
   -1.9860    4.3902    5.5536 H   0  0  0  0  0  0  0  0  0  0  0  0
    0.4628    4.8822    2.7838 H   0  0  0  0  0  0  0  0  0  0  0  0
    0.3377    4.2688    4.4392 H   0  0  0  0  0  0  0  0  0  0  0  0
   -0.8682    2.9665    1.9240 H   0  0  0  0  0  0  0  0  0  0  0  0
    0.4461    2.3476    2.9224 H   0  0  0  0  0  0  0  0  0  0  0  0
   -3.6594    5.4412    1.5484 H   0  0  0  0  0  0  0  0  0  0  0  0
   -3.8061    3.3546    0.4683 H   0  0  0  0  0  0  0  0  0  0  0  0
   -0.6034    2.1588   -2.1494 H   0  0  0  0  0  0  0  0  0  0  0  0
    0.6919    4.1928   -1.4706 H   0  0  0  0  0  0  0  0  0  0  0  0
   -0.2910    5.8353    0.1262 H   0  0  0  0  0  0  0  0  0  0  0  0
   -4.7803    2.7781   -2.5934 H   0  0  0  0  0  0  0  0  0  0  0  0
   -7.2658    2.5051   -2.2414 H   0  0  0  0  0  0  0  0  0  0  0  0
   -6.5128   -0.3444    0.8855 H   0  0  0  0  0  0  0  0  0  0  0  0
   -4.0268   -0.0668    0.5475 H   0  0  0  0  0  0  0  0  0  0  0  0
  1  2  2  0
  1  6  1  0
  1 35  1  0
  2  3  1  0
  2 36  1  0
  3  4  2  0
  3 37  1  0
  4  5  1  0
  4 38  1  0
  5  6  2  0
  5  8  1  0
  6  7  1  0
  7 39  1  0
  8  9  1  0
  8 40  1  0
  8 41  1  0
  9 10  1  0
  9 42  1  0
 10 11  1  0
 10 12  1  0
 10 16  1  0
 12 13  1  0
 12 43  1  0
 12 44  1  0
 13 14  1  0
 13 45  1  0
 13 46  1  0
 14 15  1  0
 14 17  1  0
 15 16  1  0
 15 47  1  0
 15 48  1  0
 16 49  1  0
 16 50  1  0
 17 18  2  0
 17 19  2  0
 17 20  1  0
 20 21  1  0
 20 51  1  0
 21 22  2  0
 21 26  1  0
 22 23  1  0
 22 52  1  0
 23 24  2  0
 23 27  1  0
 24 25  1  0
 24 53  1  0
 25 26  2  0
 25 54  1  0
 26 55  1  0
 27 28  1  0
 28 29  2  0
 28 33  1  0
 29 30  1  0
 29 56  1  0
 30 31  2  0
 30 57  1  0
 31 32  1  0
 31 34  1  0
 32 33  2  0
 32 58  1  0
 33 59  1  0
M  END

