
     RDKit          3D

 59 62  0  0  0  0  0  0  0  0999 V2000
    1.5361    1.4054    0.5383 C   0  0  0  0  0  0  0  0  0  0  0  0
    2.7544    1.6744    1.1694 C   0  0  0  0  0  0  0  0  0  0  0  0
    2.8886    1.4715    2.5433 C   0  0  0  0  0  0  0  0  0  0  0  0
    1.7924    1.0041    3.2771 C   0  0  0  0  0  0  0  0  0  0  0  0
    0.5623    0.7329    2.6724 C   0  0  0  0  0  0  0  0  0  0  0  0
    0.4506    0.9356    1.2827 C   0  0  0  0  0  0  0  0  0  0  0  0
   -0.7611    0.6729    0.7123 O   0  0  0  0  0  0  0  0  0  0  0  0
   -0.6440    0.2656    3.4705 C   0  0  0  0  0  0  0  0  0  0  0  0
   -1.8375    1.0948    3.4287 N   0  0  0  0  0  0  0  0  0  0  0  0
   -1.7664    2.4393    3.9780 C   0  0  0  0  0  0  0  0  0  0  0  0
   -1.2119    2.3686    4.9343 H   0  0  0  0  0  0  0  0  0  0  0  0
   -3.1905    2.9183    4.2992 C   0  0  0  0  0  0  0  0  0  0  0  0
   -3.2114    4.3338    4.8725 C   0  0  0  0  0  0  0  0  0  0  0  0
   -2.5137    5.2884    4.0014 N   0  0  0  0  0  0  0  0  0  0  0  0
   -1.1388    4.8914    3.6781 C   0  0  0  0  0  0  0  0  0  0  0  0
   -1.0518    3.4821    3.0898 C   0  0  0  0  0  0  0  0  0  0  0  0
   -3.3880    5.9852    2.7585 S   0  0  0  0  0  0  0  0  0  0  0  0
   -3.1066    5.3819    1.4544 O   0  0  0  0  0  0  0  0  0  0  0  0
   -4.7582    6.1127    3.2408 O   0  0  0  0  0  0  0  0  0  0  0  0
   -2.6791    7.5016    2.6310 N   0  0  0  0  0  0  0  0  0  0  0  0
   -2.4056    8.3619    3.7083 C   0  0  0  0  0  0  0  0  0  0  0  0
   -1.2754    9.1868    3.6376 C   0  0  0  0  0  0  0  0  0  0  0  0
   -0.9901   10.0700    4.6810 C   0  0  0  0  0  0  0  0  0  0  0  0
   -1.8083   10.1260    5.8149 C   0  0  0  0  0  0  0  0  0  0  0  0
   -2.9219    9.2849    5.8759 C   0  0  0  0  0  0  0  0  0  0  0  0
   -3.2390    8.4099    4.8377 C   0  0  0  0  0  0  0  0  0  0  0  0
    0.0978   10.8872    4.5044 O   0  0  0  0  0  0  0  0  0  0  0  0
    0.8276   11.3242    5.5838 C   0  0  0  0  0  0  0  0  0  0  0  0
    1.2767   10.4443    6.5765 C   0  0  0  0  0  0  0  0  0  0  0  0
    2.0687   10.9237    7.6201 C   0  0  0  0  0  0  0  0  0  0  0  0
    2.4097   12.2747    7.6521 C   0  0  0  0  0  0  0  0  0  0  0  0
    1.9762   13.1575    6.6664 C   0  0  0  0  0  0  0  0  0  0  0  0
    1.1750   12.6769    5.6288 C   0  0  0  0  0  0  0  0  0  0  0  0
    3.1736   12.7335    8.6552 F   0  0  0  0  0  0  0  0  0  0  0  0
    1.4248    1.5630   -0.5391 H   0  0  0  0  0  0  0  0  0  0  0  0
    3.5968    2.0428    0.5792 H   0  0  0  0  0  0  0  0  0  0  0  0
    3.8377    1.6776    3.0425 H   0  0  0  0  0  0  0  0  0  0  0  0
    1.8870    0.8519    4.3563 H   0  0  0  0  0  0  0  0  0  0  0  0
   -0.7236    0.8622   -0.2343 H   0  0  0  0  0  0  0  0  0  0  0  0
   -0.3382    0.1446    4.5232 H   0  0  0  0  0  0  0  0  0  0  0  0
   -0.9354   -0.7368    3.1129 H   0  0  0  0  0  0  0  0  0  0  0  0
   -2.2169    1.1138    2.4841 H   0  0  0  0  0  0  0  0  0  0  0  0
   -3.6593    2.2100    4.9995 H   0  0  0  0  0  0  0  0  0  0  0  0
   -3.7914    2.8996    3.3727 H   0  0  0  0  0  0  0  0  0  0  0  0
   -4.2344    4.6930    5.0338 H   0  0  0  0  0  0  0  0  0  0  0  0
   -2.6897    4.3654    5.8450 H   0  0  0  0  0  0  0  0  0  0  0  0
   -0.7044    5.6371    2.9971 H   0  0  0  0  0  0  0  0  0  0  0  0
   -0.5658    4.9547    4.6196 H   0  0  0  0  0  0  0  0  0  0  0  0
   -1.5241    3.4826    2.0946 H   0  0  0  0  0  0  0  0  0  0  0  0
    0.0052    3.2155    2.9548 H   0  0  0  0  0  0  0  0  0  0  0  0
   -2.1049    7.5737    1.7976 H   0  0  0  0  0  0  0  0  0  0  0  0
   -0.6050    9.1575    2.7766 H   0  0  0  0  0  0  0  0  0  0  0  0
   -1.5824   10.8190    6.6253 H   0  0  0  0  0  0  0  0  0  0  0  0
   -3.5736    9.3275    6.7518 H   0  0  0  0  0  0  0  0  0  0  0  0
   -4.1277    7.7828    4.8818 H   0  0  0  0  0  0  0  0  0  0  0  0
    1.0035    9.3891    6.5298 H   0  0  0  0  0  0  0  0  0  0  0  0
    2.4328   10.2610    8.4071 H   0  0  0  0  0  0  0  0  0  0  0  0
    2.2635   14.2087    6.7237 H   0  0  0  0  0  0  0  0  0  0  0  0
    0.8136   13.3397    4.8411 H   0  0  0  0  0  0  0  0  0  0  0  0
  1  2  2  0
  1  6  1  0
  1 35  1  0
  2  3  1  0
  2 36  1  0
  3  4  2  0
  3 37  1  0
  4  5  1  0
  4 38  1  0
  5  6  2  0
  5  8  1  0
  6  7  1  0
  7 39  1  0
  8  9  1  0
  8 40  1  0
  8 41  1  0
  9 10  1  0
  9 42  1  0
 10 11  1  0
 10 12  1  0
 10 16  1  0
 12 13  1  0
 12 43  1  0
 12 44  1  0
 13 14  1  0
 13 45  1  0
 13 46  1  0
 14 15  1  0
 14 17  1  0
 15 16  1  0
 15 47  1  0
 15 48  1  0
 16 49  1  0
 16 50  1  0
 17 18  2  0
 17 19  2  0
 17 20  1  0
 20 21  1  0
 20 51  1  0
 21 22  2  0
 21 26  1  0
 22 23  1  0
 22 52  1  0
 23 24  2  0
 23 27  1  0
 24 25  1  0
 24 53  1  0
 25 26  2  0
 25 54  1  0
 26 55  1  0
 27 28  1  0
 28 29  2  0
 28 33  1  0
 29 30  1  0
 29 56  1  0
 30 31  2  0
 30 57  1  0
 31 32  1  0
 31 34  1  0
 32 33  2  0
 32 58  1  0
 33 59  1  0
M  END

