59
rmsd226.gzmat
C          0.00000        0.00000        0.00000
C          1.39360        0.00000        0.00000
C          2.09710        0.00000        1.20200
C          1.41280        0.00190        2.41890
C          0.02180        0.01070        2.45140
C         -0.66290        0.00390        1.22640
O         -2.02080        0.02160        1.31020
C         -0.73440        0.04440        3.75070
N         -1.56070        1.25080        3.94510
C         -0.79100        2.49660        4.13000
H          0.11630        2.26970        4.74440
C         -1.70160        3.47050        4.91040
C         -0.96680        4.79950        5.13450
N         -0.52140        5.43410        3.87830
C          0.31860        4.51870        3.08360
C         -0.34950        3.16260        2.80520
S         -1.71260        6.35700        3.00390
O         -1.34560        6.36760        1.61140
O         -3.02660        6.00170        3.46110
N         -1.35270        7.97370        3.55090
C         -1.43360        8.37210        4.89330
C         -0.47110        9.27030        5.38490
C         -0.56340        9.66750        6.71650
C         -1.56280        9.21570        7.57540
C         -2.51660        8.34030        7.05860
C         -2.46580        7.91810        5.73580
O          0.37150       10.60960        7.07540
C          0.86550       10.57900        8.35600
C          1.20300       11.83910        8.86280
C          1.82210       11.91500       10.10450
C          2.07280       10.72710       10.79410
C          1.73570        9.46920       10.29540
C          1.12060        9.39570        9.04890
F          2.66110       10.79900       11.97960
H         -0.55310       -0.00340       -0.93330
H          1.93360       -0.00070       -0.94660
H          3.18440       -0.00280        1.19490
H          1.97540       -0.00130        3.35260
H         -2.45010       -0.02980        0.42130
H         -0.04850       -0.06290        4.62060
H         -1.43180       -0.83140        3.79940
H         -2.23940        1.33480        3.18760
H         -1.99420        3.01780        5.87530
H         -2.65540        3.63140        4.36850
H         -1.60760        5.50340        5.71360
H         -0.05730        4.63490        5.76020
H          0.61410        5.00550        2.12380
H          1.26550        4.36450        3.65430
H         -1.21440        3.28280        2.12800
H          0.35460        2.50560        2.26270
H         -0.69870        8.50150        2.97160
H          0.33210        9.64760        4.76030
H         -1.61060        9.55120        8.60540
H         -3.32230        7.98610        7.70390
H         -3.25390        7.26590        5.35060
H          0.98350       12.73410        8.28260
H          2.10140       12.87990       10.52660
H          1.94990        8.56320       10.86060
H          0.85020        8.43240        8.61940
