rmsd69.gzmat
 OpenBabel08211713433D

 59 62  0  0  0  0  0  0  0  0999 V2000
    0.0000    0.0000    0.0000 C   0  0  0  0  0  0  0  0  0  0  0  0
    1.3931    0.0000    0.0000 C   0  0  0  0  0  0  0  0  0  0  0  0
    2.0960    0.0000    1.2028 C   0  0  0  0  0  0  0  0  0  0  0  0
    1.4117   -0.0067    2.4191 C   0  0  0  0  0  0  0  0  0  0  0  0
    0.0201   -0.0169    2.4514 C   0  0  0  0  0  0  0  0  0  0  0  0
   -0.6631   -0.0062    1.2273 C   0  0  0  0  0  0  0  0  0  0  0  0
   -2.0215   -0.0230    1.3066 O   0  0  0  0  0  0  0  0  0  0  0  0
   -0.7288   -0.0635    3.7543 C   0  0  0  0  0  0  0  0  0  0  0  0
   -0.7525   -1.3916    4.3932 N   0  0  0  0  0  0  0  0  0  0  0  0
   -1.5230   -2.4095    3.6496 C   0  0  0  0  0  0  0  0  0  0  0  0
   -2.3702   -1.9072    3.1161 H   0  0  0  0  0  0  0  0  0  0  0  0
   -2.0861   -3.3929    4.6994 C   0  0  0  0  0  0  0  0  0  0  0  0
   -2.8716   -4.5106    3.9995 C   0  0  0  0  0  0  0  0  0  0  0  0
   -2.0783   -5.2427    2.9930 N   0  0  0  0  0  0  0  0  0  0  0  0
   -1.5077   -4.3187    1.9937 C   0  0  0  0  0  0  0  0  0  0  0  0
   -0.6713   -3.1918    2.6212 C   0  0  0  0  0  0  0  0  0  0  0  0
   -0.9847   -6.4667    3.5812 S   0  0  0  0  0  0  0  0  0  0  0  0
   -0.2043   -6.9176    2.4575 O   0  0  0  0  0  0  0  0  0  0  0  0
   -0.3823   -6.0500    4.8161 O   0  0  0  0  0  0  0  0  0  0  0  0
   -2.0764   -7.7843    3.9027 N   0  0  0  0  0  0  0  0  0  0  0  0
   -2.9211   -7.9193    5.0077 C   0  0  0  0  0  0  0  0  0  0  0  0
   -2.7046   -7.2173    6.2034 C   0  0  0  0  0  0  0  0  0  0  0  0
   -3.6105   -7.3955    7.2434 C   0  0  0  0  0  0  0  0  0  0  0  0
   -4.7090   -8.2587    7.1585 C   0  0  0  0  0  0  0  0  0  0  0  0
   -4.8850   -8.9669    5.9751 C   0  0  0  0  0  0  0  0  0  0  0  0
   -4.0144   -8.8057    4.9027 C   0  0  0  0  0  0  0  0  0  0  0  0
   -3.5128   -6.7685    8.4555 O   0  0  0  0  0  0  0  0  0  0  0  0
   -2.5263   -5.8066    8.5848 C   0  0  0  0  0  0  0  0  0  0  0  0
   -2.6741   -4.5666    7.9631 C   0  0  0  0  0  0  0  0  0  0  0  0
   -1.7213   -3.5817    8.2058 C   0  0  0  0  0  0  0  0  0  0  0  0
   -0.6663   -3.8844    9.0681 C   0  0  0  0  0  0  0  0  0  0  0  0
   -0.5209   -5.1203    9.7000 C   0  0  0  0  0  0  0  0  0  0  0  0
   -1.4718   -6.1047    9.4472 C   0  0  0  0  0  0  0  0  0  0  0  0
    0.2433   -2.9492    9.2996 F   0  0  0  0  0  0  0  0  0  0  0  0
   -0.5531    0.0049   -0.9326 H   0  0  0  0  0  0  0  0  0  0  0  0
    1.9336    0.0007   -0.9464 H   0  0  0  0  0  0  0  0  0  0  0  0
    3.1837    0.0072    1.1952 H   0  0  0  0  0  0  0  0  0  0  0  0
    1.9725   -0.0032    3.3544 H   0  0  0  0  0  0  0  0  0  0  0  0
   -2.4455    0.0609    0.4187 H   0  0  0  0  0  0  0  0  0  0  0  0
   -1.7826    0.2816    3.6202 H   0  0  0  0  0  0  0  0  0  0  0  0
   -0.2748    0.6466    4.4875 H   0  0  0  0  0  0  0  0  0  0  0  0
    0.1877   -1.7210    4.6038 H   0  0  0  0  0  0  0  0  0  0  0  0
   -2.7340   -2.8466    5.4081 H   0  0  0  0  0  0  0  0  0  0  0  0
   -1.2616   -3.8117    5.3140 H   0  0  0  0  0  0  0  0  0  0  0  0
   -3.2898   -5.2212    4.7477 H   0  0  0  0  0  0  0  0  0  0  0  0
   -3.7557   -4.0812    3.4700 H   0  0  0  0  0  0  0  0  0  0  0  0
   -0.9038   -4.8884    1.2478 H   0  0  0  0  0  0  0  0  0  0  0  0
   -2.3611   -3.8834    1.4216 H   0  0  0  0  0  0  0  0  0  0  0  0
    0.2370   -3.5960    3.1043 H   0  0  0  0  0  0  0  0  0  0  0  0
   -0.3054   -2.5118    1.8314 H   0  0  0  0  0  0  0  0  0  0  0  0
   -2.2466   -8.4233    3.1265 H   0  0  0  0  0  0  0  0  0  0  0  0
   -1.8242   -6.5863    6.3476 H   0  0  0  0  0  0  0  0  0  0  0  0
   -5.3881   -8.3675    7.9964 H   0  0  0  0  0  0  0  0  0  0  0  0
   -5.7258   -9.6562    5.8842 H   0  0  0  0  0  0  0  0  0  0  0  0
   -4.1798   -9.3616    3.9868 H   0  0  0  0  0  0  0  0  0  0  0  0
   -3.5183   -4.3828    7.3018 H   0  0  0  0  0  0  0  0  0  0  0  0
   -1.7954   -2.6038    7.7279 H   0  0  0  0  0  0  0  0  0  0  0  0
    0.3172   -5.3179   10.3667 H   0  0  0  0  0  0  0  0  0  0  0  0
   -1.4022   -7.0907    9.9042 H   0  0  0  0  0  0  0  0  0  0  0  0
  1  6  1  0  0  0  0
  2  1  2  0  0  0  0
  2  3  1  0  0  0  0
  3  4  2  0  0  0  0
  4  5  1  0  0  0  0
  4 38  1  0  0  0  0
  5  8  1  0  0  0  0
  6  7  1  0  0  0  0
  6  5  2  0  0  0  0
  8  9  1  0  0  0  0
  8 41  1  0  0  0  0
  9 42  1  0  0  0  0
 10  9  1  0  0  0  0
 10 12  1  0  0  0  0
 11 10  1  0  0  0  0
 12 44  1  0  0  0  0
 12 43  1  0  0  0  0
 13 12  1  0  0  0  0
 13 45  1  0  0  0  0
 14 17  1  0  0  0  0
 14 13  1  0  0  0  0
 15 16  1  0  0  0  0
 15 14  1  0  0  0  0
 16 49  1  0  0  0  0
 16 10  1  0  0  0  0
 17 20  1  0  0  0  0
 17 19  2  0  0  0  0
 18 17  2  0  0  0  0
 20 21  1  0  0  0  0
 21 22  1  0  0  0  0
 22 52  1  0  0  0  0
 22 23  2  0  0  0  0
 23 27  1  0  0  0  0
 24 23  1  0  0  0  0
 24 53  1  0  0  0  0
 25 24  2  0  0  0  0
 26 21  2  0  0  0  0
 26 25  1  0  0  0  0
 27 28  1  0  0  0  0
 28 33  2  0  0  0  0
 29 30  2  0  0  0  0
 29 28  1  0  0  0  0
 30 31  1  0  0  0  0
 31 34  1  0  0  0  0
 31 32  2  0  0  0  0
 32 58  1  0  0  0  0
 33 32  1  0  0  0  0
 33 59  1  0  0  0  0
 35  1  1  0  0  0  0
 36  2  1  0  0  0  0
 37  3  1  0  0  0  0
 39  7  1  0  0  0  0
 40  8  1  0  0  0  0
 46 13  1  0  0  0  0
 47 15  1  0  0  0  0
 48 15  1  0  0  0  0
 50 16  1  0  0  0  0
 51 20  1  0  0  0  0
 54 25  1  0  0  0  0
 55 26  1  0  0  0  0
 56 29  1  0  0  0  0
 57 30  1  0  0  0  0
M  END
$$$$
