
     RDKit          3D

 59 62  0  0  0  0  0  0  0  0999 V2000
    1.8857   -0.9242    1.4537 C   0  0  0  0  0  0  0  0  0  0  0  0
    2.8255   -1.2048    2.4463 C   0  0  0  0  0  0  0  0  0  0  0  0
    2.4432   -1.1902    3.7897 C   0  0  0  0  0  0  0  0  0  0  0  0
    1.1185   -0.8965    4.1216 C   0  0  0  0  0  0  0  0  0  0  0  0
    0.1524   -0.6231    3.1442 C   0  0  0  0  0  0  0  0  0  0  0  0
    0.5601   -0.6321    1.7987 C   0  0  0  0  0  0  0  0  0  0  0  0
   -0.3832   -0.3717    0.8446 O   0  0  0  0  0  0  0  0  0  0  0  0
   -1.2878   -0.3513    3.5549 C   0  0  0  0  0  0  0  0  0  0  0  0
   -1.9939   -1.4687    4.1675 N   0  0  0  0  0  0  0  0  0  0  0  0
   -2.6076   -2.4716    3.3148 C   0  0  0  0  0  0  0  0  0  0  0  0
   -3.3987   -1.9618    2.7286 H   0  0  0  0  0  0  0  0  0  0  0  0
   -3.2850   -3.5026    4.2265 C   0  0  0  0  0  0  0  0  0  0  0  0
   -3.9589   -4.6226    3.4356 C   0  0  0  0  0  0  0  0  0  0  0  0
   -3.0711   -5.2700    2.4599 N   0  0  0  0  0  0  0  0  0  0  0  0
   -2.4287   -4.2979    1.5543 C   0  0  0  0  0  0  0  0  0  0  0  0
   -1.6865   -3.1849    2.3008 C   0  0  0  0  0  0  0  0  0  0  0  0
   -2.0108   -6.4436    3.0278 S   0  0  0  0  0  0  0  0  0  0  0  0
   -1.4760   -7.1191    1.8501 O   0  0  0  0  0  0  0  0  0  0  0  0
   -1.0948   -5.9303    4.0517 O   0  0  0  0  0  0  0  0  0  0  0  0
   -3.1007   -7.4999    3.7893 N   0  0  0  0  0  0  0  0  0  0  0  0
   -2.9667   -7.8478    5.1534 C   0  0  0  0  0  0  0  0  0  0  0  0
   -2.8796   -6.8345    6.1126 C   0  0  0  0  0  0  0  0  0  0  0  0
   -2.6593   -7.1589    7.4499 C   0  0  0  0  0  0  0  0  0  0  0  0
   -2.6326   -8.4941    7.8661 C   0  0  0  0  0  0  0  0  0  0  0  0
   -2.7917   -9.4983    6.9096 C   0  0  0  0  0  0  0  0  0  0  0  0
   -2.9309   -9.1911    5.5532 C   0  0  0  0  0  0  0  0  0  0  0  0
   -2.4953   -6.1848    8.4015 O   0  0  0  0  0  0  0  0  0  0  0  0
   -1.9912   -4.9553    8.0387 C   0  0  0  0  0  0  0  0  0  0  0  0
   -2.6200   -3.8206    8.5588 C   0  0  0  0  0  0  0  0  0  0  0  0
   -2.1307   -2.5485    8.2538 C   0  0  0  0  0  0  0  0  0  0  0  0
   -1.0205   -2.4378    7.4233 C   0  0  0  0  0  0  0  0  0  0  0  0
   -0.3839   -3.5572    6.8937 C   0  0  0  0  0  0  0  0  0  0  0  0
   -0.8685   -4.8266    7.2101 C   0  0  0  0  0  0  0  0  0  0  0  0
   -0.5614   -1.2101    7.1025 F   0  0  0  0  0  0  0  0  0  0  0  0
    2.1776   -0.9341    0.3985 H   0  0  0  0  0  0  0  0  0  0  0  0
    3.8564   -1.4320    2.1651 H   0  0  0  0  0  0  0  0  0  0  0  0
    3.1731   -1.3996    4.5746 H   0  0  0  0  0  0  0  0  0  0  0  0
    0.8165   -0.8760    5.1718 H   0  0  0  0  0  0  0  0  0  0  0  0
    0.0277   -0.4130   -0.0285 H   0  0  0  0  0  0  0  0  0  0  0  0
   -1.8651   -0.0050    2.6867 H   0  0  0  0  0  0  0  0  0  0  0  0
   -1.2784    0.4795    4.2818 H   0  0  0  0  0  0  0  0  0  0  0  0
   -1.4134   -1.9125    4.8747 H   0  0  0  0  0  0  0  0  0  0  0  0
   -4.0217   -2.9941    4.8673 H   0  0  0  0  0  0  0  0  0  0  0  0
   -2.5173   -3.9309    4.8906 H   0  0  0  0  0  0  0  0  0  0  0  0
   -4.3833   -5.3943    4.0914 H   0  0  0  0  0  0  0  0  0  0  0  0
   -4.7989   -4.2156    2.8469 H   0  0  0  0  0  0  0  0  0  0  0  0
   -1.7654   -4.8491    0.8747 H   0  0  0  0  0  0  0  0  0  0  0  0
   -3.2415   -3.8725    0.9407 H   0  0  0  0  0  0  0  0  0  0  0  0
   -0.8192   -3.6087    2.8314 H   0  0  0  0  0  0  0  0  0  0  0  0
   -1.3093   -2.4617    1.5651 H   0  0  0  0  0  0  0  0  0  0  0  0
   -3.3243   -8.2590    3.1503 H   0  0  0  0  0  0  0  0  0  0  0  0
   -2.9287   -5.7932    5.8153 H   0  0  0  0  0  0  0  0  0  0  0  0
   -2.4776   -8.7223    8.9213 H   0  0  0  0  0  0  0  0  0  0  0  0
   -2.7717  -10.5449    7.2219 H   0  0  0  0  0  0  0  0  0  0  0  0
   -2.9963   -9.9861    4.8072 H   0  0  0  0  0  0  0  0  0  0  0  0
   -3.4951   -3.9495    9.1976 H   0  0  0  0  0  0  0  0  0  0  0  0
   -2.6062   -1.6456    8.6397 H   0  0  0  0  0  0  0  0  0  0  0  0
    0.4772   -3.4360    6.2344 H   0  0  0  0  0  0  0  0  0  0  0  0
   -0.3960   -5.7090    6.7790 H   0  0  0  0  0  0  0  0  0  0  0  0
  1  2  2  0
  1  6  1  0
  1 35  1  0
  2  3  1  0
  2 36  1  0
  3  4  2  0
  3 37  1  0
  4  5  1  0
  4 38  1  0
  5  6  2  0
  5  8  1  0
  6  7  1  0
  7 39  1  0
  8  9  1  0
  8 40  1  0
  8 41  1  0
  9 10  1  0
  9 42  1  0
 10 11  1  0
 10 12  1  0
 10 16  1  0
 12 13  1  0
 12 43  1  0
 12 44  1  0
 13 14  1  0
 13 45  1  0
 13 46  1  0
 14 15  1  0
 14 17  1  0
 15 16  1  0
 15 47  1  0
 15 48  1  0
 16 49  1  0
 16 50  1  0
 17 18  2  0
 17 19  2  0
 17 20  1  0
 20 21  1  0
 20 51  1  0
 21 22  2  0
 21 26  1  0
 22 23  1  0
 22 52  1  0
 23 24  2  0
 23 27  1  0
 24 25  1  0
 24 53  1  0
 25 26  2  0
 25 54  1  0
 26 55  1  0
 27 28  1  0
 28 29  2  0
 28 33  1  0
 29 30  1  0
 29 56  1  0
 30 31  2  0
 30 57  1  0
 31 32  1  0
 31 34  1  0
 32 33  2  0
 32 58  1  0
 33 59  1  0
M  END

