rmsd197.gzmat
 OpenBabel08211713423D

 59 62  0  0  0  0  0  0  0  0999 V2000
    0.0000    0.0000    0.0000 C   0  0  0  0  0  0  0  0  0  0  0  0
    1.3933    0.0000    0.0000 C   0  0  0  0  0  0  0  0  0  0  0  0
    2.0964    0.0000    1.2031 C   0  0  0  0  0  0  0  0  0  0  0  0
    1.4120    0.0120    2.4183 C   0  0  0  0  0  0  0  0  0  0  0  0
    0.0192    0.0170    2.4509 C   0  0  0  0  0  0  0  0  0  0  0  0
   -0.6635    0.0088    1.2271 C   0  0  0  0  0  0  0  0  0  0  0  0
   -2.0224   -0.0084    1.3063 O   0  0  0  0  0  0  0  0  0  0  0  0
   -0.7192    0.0466    3.7603 C   0  0  0  0  0  0  0  0  0  0  0  0
   -0.5830   -1.1829    4.5639 N   0  0  0  0  0  0  0  0  0  0  0  0
   -1.5668   -2.2370    4.2442 C   0  0  0  0  0  0  0  0  0  0  0  0
   -2.5727   -1.7579    4.1321 H   0  0  0  0  0  0  0  0  0  0  0  0
   -1.5974   -3.1985    5.4548 C   0  0  0  0  0  0  0  0  0  0  0  0
   -2.5668   -4.3613    5.1898 C   0  0  0  0  0  0  0  0  0  0  0  0
   -2.2718   -5.0954    3.9442 N   0  0  0  0  0  0  0  0  0  0  0  0
   -2.2337   -4.1818    2.7861 C   0  0  0  0  0  0  0  0  0  0  0  0
   -1.2366   -3.0265    2.9581 C   0  0  0  0  0  0  0  0  0  0  0  0
   -1.0059   -6.2904    4.0403 S   0  0  0  0  0  0  0  0  0  0  0  0
    0.1605   -5.8228    3.3456 O   0  0  0  0  0  0  0  0  0  0  0  0
   -0.9646   -6.7747    5.3962 O   0  0  0  0  0  0  0  0  0  0  0  0
   -1.7072   -7.6068    3.1397 N   0  0  0  0  0  0  0  0  0  0  0  0
   -1.9258   -7.6117    1.7567 C   0  0  0  0  0  0  0  0  0  0  0  0
   -1.0878   -6.9083    0.8779 C   0  0  0  0  0  0  0  0  0  0  0  0
   -1.3784   -6.9504   -0.4811 C   0  0  0  0  0  0  0  0  0  0  0  0
   -2.4480   -7.6836   -1.0085 C   0  0  0  0  0  0  0  0  0  0  0  0
   -3.2420   -8.4015   -0.1215 C   0  0  0  0  0  0  0  0  0  0  0  0
   -3.0000   -8.3711    1.2480 C   0  0  0  0  0  0  0  0  0  0  0  0
   -0.6447   -6.3097   -1.4430 O   0  0  0  0  0  0  0  0  0  0  0  0
    0.3533   -5.4558   -1.0115 C   0  0  0  0  0  0  0  0  0  0  0  0
    1.6510   -5.7816   -1.4052 C   0  0  0  0  0  0  0  0  0  0  0  0
    2.6827   -4.9011   -1.0922 C   0  0  0  0  0  0  0  0  0  0  0  0
    2.3672   -3.7398   -0.3865 C   0  0  0  0  0  0  0  0  0  0  0  0
    1.0696   -3.4099    0.0070 C   0  0  0  0  0  0  0  0  0  0  0  0
    0.0393   -4.2836   -0.3222 C   0  0  0  0  0  0  0  0  0  0  0  0
    3.3501   -2.9066   -0.0770 F   0  0  0  0  0  0  0  0  0  0  0  0
   -0.5521   -0.0031   -0.9338 H   0  0  0  0  0  0  0  0  0  0  0  0
    1.9349   -0.0041   -0.9460 H   0  0  0  0  0  0  0  0  0  0  0  0
    3.1849   -0.0086    1.1959 H   0  0  0  0  0  0  0  0  0  0  0  0
    1.9727    0.0226    3.3539 H   0  0  0  0  0  0  0  0  0  0  0  0
   -2.4465    0.0618    0.4173 H   0  0  0  0  0  0  0  0  0  0  0  0
   -1.7995    0.2770    3.6085 H   0  0  0  0  0  0  0  0  0  0  0  0
   -0.3258    0.8814    4.3947 H   0  0  0  0  0  0  0  0  0  0  0  0
    0.3684   -1.5453    4.5256 H   0  0  0  0  0  0  0  0  0  0  0  0
   -1.9045   -2.6416    6.3599 H   0  0  0  0  0  0  0  0  0  0  0  0
   -0.5811   -3.5697    5.6793 H   0  0  0  0  0  0  0  0  0  0  0  0
   -2.5748   -5.0655    6.0550 H   0  0  0  0  0  0  0  0  0  0  0  0
   -3.6102   -3.9750    5.1036 H   0  0  0  0  0  0  0  0  0  0  0  0
   -2.0123   -4.7549    1.8569 H   0  0  0  0  0  0  0  0  0  0  0  0
   -3.2653   -3.7767    2.6516 H   0  0  0  0  0  0  0  0  0  0  0  0
   -0.1972   -3.4104    2.9906 H   0  0  0  0  0  0  0  0  0  0  0  0
   -1.2801   -2.3540    2.0830 H   0  0  0  0  0  0  0  0  0  0  0  0
   -2.2626   -8.2694    3.6804 H   0  0  0  0  0  0  0  0  0  0  0  0
   -0.1973   -6.3854    1.2369 H   0  0  0  0  0  0  0  0  0  0  0  0
   -2.6350   -7.6895   -2.0762 H   0  0  0  0  0  0  0  0  0  0  0  0
   -4.0743   -8.9925   -0.5060 H   0  0  0  0  0  0  0  0  0  0  0  0
   -3.6413   -8.9289    1.9208 H   0  0  0  0  0  0  0  0  0  0  0  0
    1.8425   -6.7087   -1.9430 H   0  0  0  0  0  0  0  0  0  0  0  0
    3.7081   -5.1228   -1.3835 H   0  0  0  0  0  0  0  0  0  0  0  0
    0.8668   -2.4936    0.5635 H   0  0  0  0  0  0  0  0  0  0  0  0
   -0.9906   -4.0667   -0.0469 H   0  0  0  0  0  0  0  0  0  0  0  0
  1  2  2  0  0  0  0
  1  6  1  0  0  0  0
  2  3  1  0  0  0  0
  3  4  2  0  0  0  0
  4  5  1  0  0  0  0
  4 38  1  0  0  0  0
  5  8  1  0  0  0  0
  6  7  1  0  0  0  0
  6  5  2  0  0  0  0
  8 41  1  0  0  0  0
  8  9  1  0  0  0  0
 10  9  1  0  0  0  0
 10 12  1  0  0  0  0
 11 10  1  0  0  0  0
 12 44  1  0  0  0  0
 12 43  1  0  0  0  0
 13 12  1  0  0  0  0
 13 45  1  0  0  0  0
 14 17  1  0  0  0  0
 14 13  1  0  0  0  0
 15 16  1  0  0  0  0
 15 14  1  0  0  0  0
 16 49  1  0  0  0  0
 16 10  1  0  0  0  0
 17 19  2  0  0  0  0
 18 17  2  0  0  0  0
 20 51  1  0  0  0  0
 20 17  1  0  0  0  0
 21 20  1  0  0  0  0
 22 52  1  0  0  0  0
 22 21  2  0  0  0  0
 23 22  1  0  0  0  0
 24 23  2  0  0  0  0
 24 25  1  0  0  0  0
 25 26  2  0  0  0  0
 26 21  1  0  0  0  0
 26 55  1  0  0  0  0
 27 28  1  0  0  0  0
 27 23  1  0  0  0  0
 28 33  2  0  0  0  0
 29 30  2  0  0  0  0
 29 28  1  0  0  0  0
 30 31  1  0  0  0  0
 31 34  1  0  0  0  0
 31 32  2  0  0  0  0
 32 58  1  0  0  0  0
 33 59  1  0  0  0  0
 33 32  1  0  0  0  0
 35  1  1  0  0  0  0
 36  2  1  0  0  0  0
 37  3  1  0  0  0  0
 39  7  1  0  0  0  0
 40  8  1  0  0  0  0
 42  9  1  0  0  0  0
 46 13  1  0  0  0  0
 47 15  1  0  0  0  0
 48 15  1  0  0  0  0
 50 16  1  0  0  0  0
 53 24  1  0  0  0  0
 54 25  1  0  0  0  0
 56 29  1  0  0  0  0
 57 30  1  0  0  0  0
M  END
$$$$
