rmsd51.gzmat
 OpenBabel08211713393D

 50 53  0  0  1  0  0  0  0  0999 V2000
    0.0000    0.0000    0.0000 Br  0  0  0  0  0  0  0  0  0  0  0  0
    1.9555    0.0000    0.0000 C   0  0  2  0  0  0  0  0  0  0  0  0
    2.2603    0.0000    1.0766 H   0  0  0  0  0  0  0  0  0  0  0  0
    2.4204    1.2475   -0.7179 C   0  0  0  0  0  0  0  0  0  0  0  0
    1.7662    1.8472   -1.5338 O   0  0  0  0  0  0  0  0  0  0  0  0
    3.6963    1.7365   -0.3842 N   0  0  0  0  0  0  0  0  0  0  0  0
    4.7073    1.0489    0.3336 C   0  0  0  0  0  0  0  0  0  0  0  0
    4.5041    0.1130    1.0754 O   0  0  0  0  0  0  0  0  0  0  0  0
    5.9472    1.5754   -0.0168 N   0  0  0  0  0  0  0  0  0  0  0  0
    7.0652    1.4286    0.9086 C   0  0  0  0  0  0  0  0  0  0  0  0
    5.8200    2.7816   -0.8686 C   0  0  1  0  0  0  0  0  0  0  0  0
    6.3763    2.5671   -1.8192 H   0  0  0  0  0  0  0  0  0  0  0  0
    4.2698    2.8488   -1.1841 C   0  0  2  0  0  0  0  0  0  0  0  0
    4.1019    2.6240   -2.2756 H   0  0  0  0  0  0  0  0  0  0  0  0
    3.6437    4.1685   -0.8247 C   0  0  0  0  0  0  0  0  0  0  0  0
    3.1968    4.4368    0.4700 C   0  0  0  0  0  0  0  0  0  0  0  0
    2.6175    5.6689    0.7646 C   0  0  0  0  0  0  0  0  0  0  0  0
    2.4913    6.6383   -0.2283 C   0  0  0  0  0  0  0  0  0  0  0  0
    2.9388    6.3713   -1.5214 C   0  0  0  0  0  0  0  0  0  0  0  0
    3.5095    5.1369   -1.8223 C   0  0  0  0  0  0  0  0  0  0  0  0
    6.3664    4.0512   -0.2284 C   0  0  0  0  0  0  0  0  0  0  0  0
    2.4832   -1.2651   -0.6952 C   0  0  0  0  0  0  0  0  0  0  0  0
    2.0551   -1.3546   -2.0802 N   0  0  0  0  0  0  0  0  0  0  0  0
    2.6052   -0.5587   -3.1246 C   0  0  0  0  0  0  0  0  0  0  0  0
    3.5774    0.1318   -2.9924 O   0  0  0  0  0  0  0  0  0  0  0  0
    1.7506   -0.8175   -4.3208 C   0  0  0  0  0  0  0  0  0  0  0  0
    1.8325   -0.3106   -5.5953 C   0  0  0  0  0  0  0  0  0  0  0  0
    0.8622   -0.7306   -6.5259 C   0  0  0  0  0  0  0  0  0  0  0  0
   -0.1420   -1.6184   -6.1645 C   0  0  0  0  0  0  0  0  0  0  0  0
   -0.2242   -2.1310   -4.8553 C   0  0  0  0  0  0  0  0  0  0  0  0
    0.7280   -1.7228   -3.9527 C   0  0  0  0  0  0  0  0  0  0  0  0
    0.9038   -2.0803   -2.5121 C   0  0  0  0  0  0  0  0  0  0  0  0
    0.2893   -2.8361   -1.8167 O   0  0  0  0  0  0  0  0  0  0  0  0
    8.0159    1.5120    0.3541 H   0  0  0  0  0  0  0  0  0  0  0  0
    7.0258    0.4192    1.3685 H   0  0  0  0  0  0  0  0  0  0  0  0
    7.0557    2.1756    1.7206 H   0  0  0  0  0  0  0  0  0  0  0  0
    3.2878    3.6805    1.2489 H   0  0  0  0  0  0  0  0  0  0  0  0
    2.2580    5.8710    1.7716 H   0  0  0  0  0  0  0  0  0  0  0  0
    2.0367    7.5987    0.0037 H   0  0  0  0  0  0  0  0  0  0  0  0
    2.8342    7.1245   -2.2994 H   0  0  0  0  0  0  0  0  0  0  0  0
    3.8375    4.9266   -2.8386 H   0  0  0  0  0  0  0  0  0  0  0  0
    5.8966    4.2609    0.7419 H   0  0  0  0  0  0  0  0  0  0  0  0
    6.1793    4.9268   -0.8669 H   0  0  0  0  0  0  0  0  0  0  0  0
    7.4497    3.9932   -0.0707 H   0  0  0  0  0  0  0  0  0  0  0  0
    3.6050   -1.2718   -0.6553 H   0  0  0  0  0  0  0  0  0  0  0  0
    2.1430   -2.1804   -0.1459 H   0  0  0  0  0  0  0  0  0  0  0  0
    2.6146    0.3939   -5.8775 H   0  0  0  0  0  0  0  0  0  0  0  0
    0.9055   -0.3454   -7.5447 H   0  0  0  0  0  0  0  0  0  0  0  0
   -0.8852   -1.9268   -6.8999 H   0  0  0  0  0  0  0  0  0  0  0  0
   -1.0180   -2.8223   -4.5718 H   0  0  0  0  0  0  0  0  0  0  0  0
  2  1  1  0  0  0  0
  2  3  1  1  0  0  0
  4  6  1  0  0  0  0
  4  2  1  0  0  0  0
  5  4  2  0  0  0  0
  6  7  1  0  0  0  0
  7  8  2  0  0  0  0
  9  7  1  0  0  0  0
  9 10  1  0  0  0  0
 10 35  1  0  0  0  0
 10 36  1  0  0  0  0
 11 13  1  0  0  0  0
 11 21  1  0  0  0  0
 11  9  1  0  0  0  0
 11 12  1  6  0  0  0
 13 14  1  6  0  0  0
 13 15  1  0  0  0  0
 13  6  1  0  0  0  0
 15 16  2  0  0  0  0
 16 17  1  0  0  0  0
 16 37  1  0  0  0  0
 17 38  1  0  0  0  0
 18 39  1  0  0  0  0
 18 17  2  0  0  0  0
 19 18  1  0  0  0  0
 20 19  2  0  0  0  0
 20 15  1  0  0  0  0
 21 44  1  0  0  0  0
 21 42  1  0  0  0  0
 22 45  1  0  0  0  0
 22 46  1  0  0  0  0
 22  2  1  0  0  0  0
 23 22  1  0  0  0  0
 24 25  2  0  0  0  0
 24 23  1  0  0  0  0
 26 31  1  0  0  0  0
 26 24  1  0  0  0  0
 27 26  2  0  0  0  0
 28 29  2  0  0  0  0
 28 27  1  0  0  0  0
 29 30  1  0  0  0  0
 30 50  1  0  0  0  0
 30 31  2  0  0  0  0
 31 32  1  0  0  0  0
 32 23  1  0  0  0  0
 32 33  2  0  0  0  0
 34 10  1  0  0  0  0
 40 19  1  0  0  0  0
 41 20  1  0  0  0  0
 43 21  1  0  0  0  0
 47 27  1  0  0  0  0
 48 28  1  0  0  0  0
 49 29  1  0  0  0  0
M  END
$$$$
