50
rmsd38.gzmat
Br         0.00000        0.00000        0.00000
C          1.95710        0.00000        0.00000
H          2.26740        0.00000        1.07800
C          2.41510        1.23640       -0.72710
O          2.98260        1.20500       -1.79360
N          2.14500        2.47450       -0.13520
C          1.80960        2.73220        1.22110
O          1.52570        1.88410        2.03090
N          1.98620        4.09720        1.46880
C          1.21000        4.70300        2.54780
C          2.25150        4.85620        0.22320
H          3.24280        5.36300        0.36400
C          2.40440        3.72930       -0.88060
H          3.46430        3.71070       -1.25390
C          1.45330        3.90190       -2.03500
C          1.92460        4.49750       -3.20680
C          1.06250        4.69240       -4.28330
C         -0.26790        4.28630       -4.19660
C         -0.73480        3.67850       -3.03250
C          0.12260        3.48940       -1.95130
C          1.19290        5.89750       -0.11400
C          2.47350       -1.25300       -0.72370
N          1.97270       -2.45310       -0.07800
C          0.89950       -3.24270       -0.58630
O          0.41120       -3.09800       -1.66930
C          0.60300       -4.24260        0.48490
C         -0.33200       -5.24840        0.52120
C         -0.38600       -6.04540        1.68100
C          0.47710       -5.82270        2.74520
C          1.43280       -4.78910        2.70380
C          1.47910       -4.01250        1.57120
C          2.35350       -2.84930        1.23500
O          3.21670       -2.31270        1.86980
H          1.72630        5.61290        2.90050
H          1.15250        3.99330        3.39930
H          0.18000        4.96390        2.25170
H          2.96650        4.80160       -3.28840
H          1.43200        5.15660       -5.19570
H         -0.93920        4.43770       -5.03920
H         -1.76970        3.34660       -2.96690
H         -0.24690        3.01100       -1.04480
H          0.18790        5.46090       -0.18900
H          1.40290        6.37480       -1.08170
H          1.15420        6.69540        0.63660
H          2.17270       -1.25330       -1.80430
H          3.59330       -1.25650       -0.70550
H         -1.01080       -5.42490       -0.31320
H         -1.12150       -6.84800        1.73630
H          0.41980       -6.45310        3.63270
H          2.10640       -4.61350        3.54280
