50
rmsd36.gzmat
Br         0.00000        0.00000        0.00000
C          1.95530        0.00000        0.00000
H          2.26070        0.00000        1.07640
C          2.41990        1.24790       -0.71700
O          1.76530        1.84800       -1.53190
N          3.69630        1.73570       -0.38550
C          4.70490        1.05230        0.33940
O          4.49960        0.11970        1.08460
N          5.94520        1.57960       -0.00840
C          7.05980        1.44060        0.92240
C          5.81880        2.78350       -0.86390
H          6.38310        2.56960       -1.80980
C          4.27110        2.84350       -1.19050
H          4.11060        2.60960       -2.28140
C          3.63830        4.16390       -0.84540
C          3.17350        4.43650        0.44190
C          2.58770        5.66830        0.72440
C          2.47100        6.63280       -0.27460
C          2.93620        6.36170       -1.56040
C          3.51460        5.12800       -1.84890
C          6.35550        4.05640       -0.22230
C          2.48400       -1.26400       -0.69630
N          2.06670       -1.34590       -2.08520
C          0.90860       -2.05490       -2.52710
O          0.28260       -2.80750       -1.83890
C          0.74390       -1.68600       -3.96610
C         -0.20840       -2.07640       -4.87620
C         -0.11500       -1.55440       -6.18100
C          0.90060       -0.67540       -6.53120
C          1.87130       -0.27390       -5.59300
C          1.77740       -0.78920       -4.32270
C          2.62890       -0.54800       -3.12130
O          3.60830        0.13100       -2.98080
H          8.01170        1.52080        0.36920
H          7.01980        0.43500        1.39010
H          7.04760        2.19360        1.72870
H          3.25480        3.68290        1.22440
H          2.21490        5.87310        1.72590
H          2.01070        7.59280       -0.05290
H          2.83890        7.11090       -2.34350
H          3.85650        4.91430       -2.85960
H          5.87840        4.26730        0.74390
H          6.16910        4.92960       -0.86390
H          7.43760        4.00270       -0.05760
H          3.60560       -1.27390       -0.64710
H          2.13620       -2.18090       -0.15460
H         -1.01110       -2.76050       -4.60130
H         -0.85870       -1.84800       -6.92180
H          0.95260       -0.28190       -7.54630
H          2.66300        0.42290       -5.86680
