
     RDKit          3D

 50 53  0  0  0  0  0  0  0  0999 V2000
   -0.1759   -0.0585   -0.3249 Br  0  0  0  0  0  0  0  0  0  0  0  0
    1.7791    0.0265    0.0043 C   0  0  2  0  0  0  0  0  0  0  0  0
    1.8552    0.1340    1.0900 H   0  0  0  0  0  0  0  0  0  0  0  0
    2.3005    1.2560   -0.7230 C   0  0  0  0  0  0  0  0  0  0  0  0
    2.8652    1.1710   -1.7952 O   0  0  0  0  0  0  0  0  0  0  0  0
    2.0967    2.4960   -0.1393 N   0  0  0  0  0  0  0  0  0  0  0  0
    1.5824    2.8033    1.1425 C   0  0  0  0  0  0  0  0  0  0  0  0
    1.2312    2.0133    1.9920 O   0  0  0  0  0  0  0  0  0  0  0  0
    1.5678    4.1708    1.2364 N   0  0  0  0  0  0  0  0  0  0  0  0
    1.3011    4.8228    2.4962 C   0  0  0  0  0  0  0  0  0  0  0  0
    2.3329    4.8106    0.1719 C   0  0  1  0  0  0  0  0  0  0  0  0
    3.3747    4.9599    0.5228 H   0  0  0  0  0  0  0  0  0  0  0  0
    2.3478    3.7068   -0.9277 C   0  0  2  0  0  0  0  0  0  0  0  0
    3.3427    3.6420   -1.3861 H   0  0  0  0  0  0  0  0  0  0  0  0
    1.3230    3.8907   -2.0296 C   0  0  0  0  0  0  0  0  0  0  0  0
    1.7210    4.4199   -3.2624 C   0  0  0  0  0  0  0  0  0  0  0  0
    0.7864    4.6476   -4.2750 C   0  0  0  0  0  0  0  0  0  0  0  0
   -0.5600    4.3398   -4.0644 C   0  0  0  0  0  0  0  0  0  0  0  0
   -0.9631    3.8006   -2.8393 C   0  0  0  0  0  0  0  0  0  0  0  0
   -0.0279    3.5782   -1.8267 C   0  0  0  0  0  0  0  0  0  0  0  0
    1.7728    6.1576   -0.2580 C   0  0  0  0  0  0  0  0  0  0  0  0
    2.4630   -1.2328   -0.5129 C   0  0  0  0  0  0  0  0  0  0  0  0
    1.9488   -2.4360    0.0968 N   0  0  0  0  0  0  0  0  0  0  0  0
    1.2347   -3.4248   -0.6071 C   0  0  0  0  0  0  0  0  0  0  0  0
    1.0210   -3.4248   -1.7940 O   0  0  0  0  0  0  0  0  0  0  0  0
    0.8419   -4.4344    0.4237 C   0  0  0  0  0  0  0  0  0  0  0  0
    0.1241   -5.6157    0.2911 C   0  0  0  0  0  0  0  0  0  0  0  0
   -0.0952   -6.3725    1.4519 C   0  0  0  0  0  0  0  0  0  0  0  0
    0.3953   -5.9488    2.6955 C   0  0  0  0  0  0  0  0  0  0  0  0
    1.1211   -4.7546    2.8184 C   0  0  0  0  0  0  0  0  0  0  0  0
    1.3314   -4.0124    1.6638 C   0  0  0  0  0  0  0  0  0  0  0  0
    2.0503   -2.7173    1.4656 C   0  0  0  0  0  0  0  0  0  0  0  0
    2.6153   -2.0217    2.2780 O   0  0  0  0  0  0  0  0  0  0  0  0
    2.2294    5.2180    2.9494 H   0  0  0  0  0  0  0  0  0  0  0  0
    0.8650    4.0798    3.1764 H   0  0  0  0  0  0  0  0  0  0  0  0
    0.5921    5.6554    2.3696 H   0  0  0  0  0  0  0  0  0  0  0  0
    2.7769    4.6449   -3.4352 H   0  0  0  0  0  0  0  0  0  0  0  0
    1.1128    5.0551   -5.2348 H   0  0  0  0  0  0  0  0  0  0  0  0
   -1.2924    4.5093   -4.8572 H   0  0  0  0  0  0  0  0  0  0  0  0
   -2.0118    3.5443   -2.6719 H   0  0  0  0  0  0  0  0  0  0  0  0
   -0.3524    3.1399   -0.8817 H   0  0  0  0  0  0  0  0  0  0  0  0
    0.7164    6.0734   -0.5481 H   0  0  0  0  0  0  0  0  0  0  0  0
    2.3337    6.5424   -1.1223 H   0  0  0  0  0  0  0  0  0  0  0  0
    1.8624    6.8926    0.5558 H   0  0  0  0  0  0  0  0  0  0  0  0
    2.3399   -1.3256   -1.5983 H   0  0  0  0  0  0  0  0  0  0  0  0
    3.5395   -1.1388   -0.2943 H   0  0  0  0  0  0  0  0  0  0  0  0
   -0.2523   -5.9335   -0.6831 H   0  0  0  0  0  0  0  0  0  0  0  0
   -0.6574   -7.3070    1.3887 H   0  0  0  0  0  0  0  0  0  0  0  0
    0.2073   -6.5599    3.5813 H   0  0  0  0  0  0  0  0  0  0  0  0
    1.5082   -4.4127    3.7803 H   0  0  0  0  0  0  0  0  0  0  0  0
  1  2  1  0
  2  3  1  1
  2  4  1  0
  2 22  1  0
  4  5  2  0
  4  6  1  0
  6  7  1  0
  6 13  1  0
  7  8  2  0
  7  9  1  0
  9 10  1  0
  9 11  1  0
 10 34  1  0
 10 35  1  0
 10 36  1  0
 11 12  1  1
 11 13  1  0
 11 21  1  0
 13 14  1  6
 13 15  1  0
 15 16  2  0
 15 20  1  0
 16 17  1  0
 16 37  1  0
 17 18  2  0
 17 38  1  0
 18 19  1  0
 18 39  1  0
 19 20  2  0
 19 40  1  0
 20 41  1  0
 21 42  1  0
 21 43  1  0
 21 44  1  0
 22 23  1  0
 22 45  1  0
 22 46  1  0
 23 24  1  0
 23 32  1  0
 24 25  2  0
 24 26  1  0
 26 27  1  0
 26 31  2  0
 27 28  2  0
 27 47  1  0
 28 29  1  0
 28 48  1  0
 29 30  2  0
 29 49  1  0
 30 31  1  0
 30 50  1  0
 31 32  1  0
 32 33  2  0
M  END

