50
rmsd6.gzmat
Br         0.00000        0.00000        0.00000
C          1.95580        0.00000        0.00000
H          2.26090        0.00000        1.07620
C          2.41540        1.25210       -0.71330
O          1.76610        1.84780       -1.53470
N          3.67570        1.76230       -0.34810
C          4.69560        1.07110        0.35390
O          4.51220        0.08850        1.03780
N          5.92240        1.66070        0.05750
C          7.03910        1.47330        0.97740
C          5.75590        2.94290       -0.66730
H          6.40610        2.89650       -1.57820
C          4.23510        2.91010       -1.10770
H          4.16810        2.67020       -2.20700
C          3.51030        4.19550       -0.81890
C          2.88340        4.42740        0.40580
C          2.23250        5.63740        0.63660
C          2.20870        6.61850       -0.35240
C          2.83170        6.38600       -1.57770
C          3.47670        5.17500       -1.81520
C          6.11780        4.16480        0.16910
C          2.48470       -1.26620       -0.69210
N          1.99370       -1.39870       -2.05190
C          0.84530       -2.16650       -2.41100
O          0.29630       -2.93470       -1.67530
C          0.57550       -1.82920       -3.84160
C         -0.41350       -2.27700       -4.68350
C         -0.42960       -1.76880       -5.99700
C          0.51880       -0.84840       -6.42160
C          1.53010       -0.39190       -5.55410
C          1.54310       -0.89290       -4.27480
C          2.45930       -0.59770       -3.13400
O          3.42050        0.11610       -3.06440
H          7.98710        1.66790        0.44660
H          7.05150        0.41980        1.32470
H          6.98330        2.12320        1.86680
H          2.89080        3.65940        1.17840
H          1.73930        5.81330        1.59070
H          1.69950        7.56240       -0.17170
H          2.80800        7.14950       -2.35230
H          3.94190        4.99040       -2.78150
H          5.53300        4.21730        1.09730
H          5.91930        5.09440       -0.38270
H          7.17870        4.17190        0.44250
H          3.60710       -1.24410       -0.70380
H          2.19480       -2.17680       -0.10690
H         -1.16170       -2.99580       -4.35000
H         -1.20490       -2.10650       -6.68470
H          0.48610       -0.46430       -7.44090
H          2.26860        0.33680       -5.88680
