rmsd36.gzmat
 OpenBabel08211713393D

 50 53  0  0  1  0  0  0  0  0999 V2000
    0.0000    0.0000    0.0000 Br  0  0  0  0  0  0  0  0  0  0  0  0
    1.9553    0.0000    0.0000 C   0  0  2  0  0  0  0  0  0  0  0  0
    2.2607    0.0000    1.0764 H   0  0  0  0  0  0  0  0  0  0  0  0
    2.4199    1.2479   -0.7170 C   0  0  0  0  0  0  0  0  0  0  0  0
    1.7653    1.8480   -1.5319 O   0  0  0  0  0  0  0  0  0  0  0  0
    3.6963    1.7357   -0.3855 N   0  0  0  0  0  0  0  0  0  0  0  0
    4.7049    1.0523    0.3394 C   0  0  0  0  0  0  0  0  0  0  0  0
    4.4996    0.1197    1.0846 O   0  0  0  0  0  0  0  0  0  0  0  0
    5.9452    1.5796   -0.0084 N   0  0  0  0  0  0  0  0  0  0  0  0
    7.0598    1.4406    0.9224 C   0  0  0  0  0  0  0  0  0  0  0  0
    5.8188    2.7835   -0.8639 C   0  0  1  0  0  0  0  0  0  0  0  0
    6.3831    2.5696   -1.8098 H   0  0  0  0  0  0  0  0  0  0  0  0
    4.2711    2.8435   -1.1905 C   0  0  2  0  0  0  0  0  0  0  0  0
    4.1106    2.6096   -2.2814 H   0  0  0  0  0  0  0  0  0  0  0  0
    3.6383    4.1639   -0.8454 C   0  0  0  0  0  0  0  0  0  0  0  0
    3.1735    4.4365    0.4419 C   0  0  0  0  0  0  0  0  0  0  0  0
    2.5877    5.6683    0.7244 C   0  0  0  0  0  0  0  0  0  0  0  0
    2.4710    6.6328   -0.2746 C   0  0  0  0  0  0  0  0  0  0  0  0
    2.9362    6.3617   -1.5604 C   0  0  0  0  0  0  0  0  0  0  0  0
    3.5146    5.1280   -1.8489 C   0  0  0  0  0  0  0  0  0  0  0  0
    6.3555    4.0564   -0.2223 C   0  0  0  0  0  0  0  0  0  0  0  0
    2.4840   -1.2640   -0.6963 C   0  0  0  0  0  0  0  0  0  0  0  0
    2.0667   -1.3459   -2.0852 N   0  0  0  0  0  0  0  0  0  0  0  0
    0.9086   -2.0549   -2.5271 C   0  0  0  0  0  0  0  0  0  0  0  0
    0.2826   -2.8075   -1.8389 O   0  0  0  0  0  0  0  0  0  0  0  0
    0.7439   -1.6860   -3.9661 C   0  0  0  0  0  0  0  0  0  0  0  0
   -0.2084   -2.0764   -4.8762 C   0  0  0  0  0  0  0  0  0  0  0  0
   -0.1150   -1.5544   -6.1810 C   0  0  0  0  0  0  0  0  0  0  0  0
    0.9006   -0.6754   -6.5312 C   0  0  0  0  0  0  0  0  0  0  0  0
    1.8713   -0.2739   -5.5930 C   0  0  0  0  0  0  0  0  0  0  0  0
    1.7774   -0.7892   -4.3227 C   0  0  0  0  0  0  0  0  0  0  0  0
    2.6289   -0.5480   -3.1213 C   0  0  0  0  0  0  0  0  0  0  0  0
    3.6083    0.1310   -2.9808 O   0  0  0  0  0  0  0  0  0  0  0  0
    8.0117    1.5208    0.3692 H   0  0  0  0  0  0  0  0  0  0  0  0
    7.0198    0.4350    1.3901 H   0  0  0  0  0  0  0  0  0  0  0  0
    7.0476    2.1936    1.7287 H   0  0  0  0  0  0  0  0  0  0  0  0
    3.2548    3.6829    1.2244 H   0  0  0  0  0  0  0  0  0  0  0  0
    2.2149    5.8731    1.7259 H   0  0  0  0  0  0  0  0  0  0  0  0
    2.0107    7.5928   -0.0529 H   0  0  0  0  0  0  0  0  0  0  0  0
    2.8389    7.1109   -2.3435 H   0  0  0  0  0  0  0  0  0  0  0  0
    3.8565    4.9143   -2.8596 H   0  0  0  0  0  0  0  0  0  0  0  0
    5.8784    4.2673    0.7439 H   0  0  0  0  0  0  0  0  0  0  0  0
    6.1691    4.9296   -0.8639 H   0  0  0  0  0  0  0  0  0  0  0  0
    7.4376    4.0027   -0.0576 H   0  0  0  0  0  0  0  0  0  0  0  0
    3.6056   -1.2739   -0.6471 H   0  0  0  0  0  0  0  0  0  0  0  0
    2.1362   -2.1809   -0.1546 H   0  0  0  0  0  0  0  0  0  0  0  0
   -1.0111   -2.7605   -4.6013 H   0  0  0  0  0  0  0  0  0  0  0  0
   -0.8587   -1.8480   -6.9218 H   0  0  0  0  0  0  0  0  0  0  0  0
    0.9526   -0.2819   -7.5463 H   0  0  0  0  0  0  0  0  0  0  0  0
    2.6630    0.4229   -5.8668 H   0  0  0  0  0  0  0  0  0  0  0  0
  1  2  1  0  0  0  0
  2  3  1  1  0  0  0
  4  6  1  0  0  0  0
  4  2  1  0  0  0  0
  5  4  2  0  0  0  0
  6  7  1  0  0  0  0
  7  8  2  0  0  0  0
  9  7  1  0  0  0  0
  9 10  1  0  0  0  0
 10 35  1  0  0  0  0
 10 36  1  0  0  0  0
 11 13  1  0  0  0  0
 11 21  1  0  0  0  0
 11  9  1  0  0  0  0
 11 12  1  6  0  0  0
 13 14  1  6  0  0  0
 13 15  1  0  0  0  0
 13  6  1  0  0  0  0
 15 16  2  0  0  0  0
 16 17  1  0  0  0  0
 16 37  1  0  0  0  0
 17 38  1  0  0  0  0
 18 39  1  0  0  0  0
 18 17  2  0  0  0  0
 19 18  1  0  0  0  0
 20 19  2  0  0  0  0
 20 15  1  0  0  0  0
 21 44  1  0  0  0  0
 21 42  1  0  0  0  0
 22 45  1  0  0  0  0
 22 46  1  0  0  0  0
 22  2  1  0  0  0  0
 23 22  1  0  0  0  0
 24 23  1  0  0  0  0
 24 25  2  0  0  0  0
 26 24  1  0  0  0  0
 27 47  1  0  0  0  0
 27 26  2  0  0  0  0
 28 27  1  0  0  0  0
 29 28  2  0  0  0  0
 29 30  1  0  0  0  0
 30 31  2  0  0  0  0
 31 26  1  0  0  0  0
 31 32  1  0  0  0  0
 32 33  2  0  0  0  0
 32 23  1  0  0  0  0
 34 10  1  0  0  0  0
 40 19  1  0  0  0  0
 41 20  1  0  0  0  0
 43 21  1  0  0  0  0
 48 28  1  0  0  0  0
 49 29  1  0  0  0  0
 50 30  1  0  0  0  0
M  END
$$$$
