rmsd37.gzmat
 OpenBabel08211713393D

 50 53  0  0  1  0  0  0  0  0999 V2000
    0.0000    0.0000    0.0000 Br  0  0  0  0  0  0  0  0  0  0  0  0
    1.9555    0.0000    0.0000 C   0  0  2  0  0  0  0  0  0  0  0  0
    2.2592    0.0000    1.0769 H   0  0  0  0  0  0  0  0  0  0  0  0
    2.4176    1.2506   -0.7145 C   0  0  0  0  0  0  0  0  0  0  0  0
    1.7720    1.8463   -1.5385 O   0  0  0  0  0  0  0  0  0  0  0  0
    3.6794    1.7545   -0.3468 N   0  0  0  0  0  0  0  0  0  0  0  0
    4.6916    1.0653    0.3657 C   0  0  0  0  0  0  0  0  0  0  0  0
    4.5045    0.0752    1.0377 O   0  0  0  0  0  0  0  0  0  0  0  0
    5.9196    1.6668    0.0975 N   0  0  0  0  0  0  0  0  0  0  0  0
    7.0116    1.4889    1.0487 C   0  0  0  0  0  0  0  0  0  0  0  0
    5.7579    2.9483   -0.6305 C   0  0  1  0  0  0  0  0  0  0  0  0
    6.4098    2.8937   -1.5403 H   0  0  0  0  0  0  0  0  0  0  0  0
    4.2377    2.9216   -1.0759 C   0  0  2  0  0  0  0  0  0  0  0  0
    4.1751    2.7105   -2.1811 H   0  0  0  0  0  0  0  0  0  0  0  0
    3.4993    4.1911   -0.7510 C   0  0  0  0  0  0  0  0  0  0  0  0
    2.9146    4.3974    0.4994 C   0  0  0  0  0  0  0  0  0  0  0  0
    2.2340    5.5840    0.7623 C   0  0  0  0  0  0  0  0  0  0  0  0
    2.1413    6.5692   -0.2190 C   0  0  0  0  0  0  0  0  0  0  0  0
    2.7235    6.3625   -1.4689 C   0  0  0  0  0  0  0  0  0  0  0  0
    3.3986    5.1744   -1.7377 C   0  0  0  0  0  0  0  0  0  0  0  0
    6.1280    4.1729    0.1982 C   0  0  0  0  0  0  0  0  0  0  0  0
    2.4861   -1.2644   -0.6937 C   0  0  0  0  0  0  0  0  0  0  0  0
    1.9934   -1.3970   -2.0530 N   0  0  0  0  0  0  0  0  0  0  0  0
    2.4640   -0.6082   -3.1419 C   0  0  0  0  0  0  0  0  0  0  0  0
    3.4267    0.1042   -3.0787 O   0  0  0  0  0  0  0  0  0  0  0  0
    1.5514   -0.9154   -4.2832 C   0  0  0  0  0  0  0  0  0  0  0  0
    1.5460   -0.4316   -5.5694 C   0  0  0  0  0  0  0  0  0  0  0  0
    0.5410   -0.9015   -6.4370 C   0  0  0  0  0  0  0  0  0  0  0  0
   -0.4096   -1.8166   -6.0056 C   0  0  0  0  0  0  0  0  0  0  0  0
   -0.4023   -2.3057   -4.6851 C   0  0  0  0  0  0  0  0  0  0  0  0
    0.5819   -1.8466   -3.8434 C   0  0  0  0  0  0  0  0  0  0  0  0
    0.8464   -2.1680   -2.4084 C   0  0  0  0  0  0  0  0  0  0  0  0
    0.2954   -2.9285   -1.6660 O   0  0  0  0  0  0  0  0  0  0  0  0
    7.9737    1.6796    0.5418 H   0  0  0  0  0  0  0  0  0  0  0  0
    7.0149    0.4379    1.4056 H   0  0  0  0  0  0  0  0  0  0  0  0
    6.9317    2.1471    1.9306 H   0  0  0  0  0  0  0  0  0  0  0  0
    2.9769    3.6267    1.2668 H   0  0  0  0  0  0  0  0  0  0  0  0
    1.7687    5.7372    1.7342 H   0  0  0  0  0  0  0  0  0  0  0  0
    1.6094    7.4952   -0.0124 H   0  0  0  0  0  0  0  0  0  0  0  0
    2.6421    7.1260   -2.2398 H   0  0  0  0  0  0  0  0  0  0  0  0
    3.8334    5.0107   -2.7219 H   0  0  0  0  0  0  0  0  0  0  0  0
    5.5561    4.2289    1.1339 H   0  0  0  0  0  0  0  0  0  0  0  0
    5.9217    5.1010   -0.3536 H   0  0  0  0  0  0  0  0  0  0  0  0
    7.1927    4.1819    0.4576 H   0  0  0  0  0  0  0  0  0  0  0  0
    3.6085   -1.2401   -0.7060 H   0  0  0  0  0  0  0  0  0  0  0  0
    2.1985   -2.1761   -0.1093 H   0  0  0  0  0  0  0  0  0  0  0  0
    2.2877    0.2917   -5.9078 H   0  0  0  0  0  0  0  0  0  0  0  0
    0.5142   -0.5343   -7.4629 H   0  0  0  0  0  0  0  0  0  0  0  0
   -1.1795   -2.1662   -6.6935 H   0  0  0  0  0  0  0  0  0  0  0  0
   -1.1535   -3.0195   -4.3466 H   0  0  0  0  0  0  0  0  0  0  0  0
  2  1  1  0  0  0  0
  2  3  1  1  0  0  0
  4  6  1  0  0  0  0
  4  2  1  0  0  0  0
  5  4  2  0  0  0  0
  6  7  1  0  0  0  0
  7  8  2  0  0  0  0
  9  7  1  0  0  0  0
  9 10  1  0  0  0  0
 10 35  1  0  0  0  0
 10 36  1  0  0  0  0
 11 13  1  0  0  0  0
 11  9  1  0  0  0  0
 11 21  1  0  0  0  0
 11 12  1  6  0  0  0
 13 14  1  6  0  0  0
 13 15  1  0  0  0  0
 13  6  1  0  0  0  0
 15 16  2  0  0  0  0
 16 17  1  0  0  0  0
 16 37  1  0  0  0  0
 17 38  1  0  0  0  0
 18 39  1  0  0  0  0
 18 17  2  0  0  0  0
 19 18  1  0  0  0  0
 20 19  2  0  0  0  0
 20 15  1  0  0  0  0
 21 44  1  0  0  0  0
 21 42  1  0  0  0  0
 22 46  1  0  0  0  0
 22  2  1  0  0  0  0
 23 22  1  0  0  0  0
 24 25  2  0  0  0  0
 24 23  1  0  0  0  0
 26 31  1  0  0  0  0
 26 24  1  0  0  0  0
 27 26  2  0  0  0  0
 28 29  2  0  0  0  0
 28 27  1  0  0  0  0
 29 30  1  0  0  0  0
 30 50  1  0  0  0  0
 30 31  2  0  0  0  0
 31 32  1  0  0  0  0
 32 23  1  0  0  0  0
 32 33  2  0  0  0  0
 34 10  1  0  0  0  0
 40 19  1  0  0  0  0
 41 20  1  0  0  0  0
 43 21  1  0  0  0  0
 45 22  1  0  0  0  0
 47 27  1  0  0  0  0
 48 28  1  0  0  0  0
 49 29  1  0  0  0  0
M  END
$$$$
