50
rmsd212.gzmat
Br         0.00000        0.00000        0.00000
C          1.95760        0.00000        0.00000
H          2.26820        0.00000        1.07900
C          2.41990        1.23870       -0.72030
O          3.02090        1.21070       -1.76760
N          2.09780        2.47310       -0.14540
C          1.75740        2.72720        1.21060
O          1.56340        1.87440        2.04160
N          1.81270        4.10950        1.42560
C          1.02720        4.65820        2.52840
C          1.91260        4.85570        0.14750
H          2.74350        5.59800        0.26250
C          2.35120        3.73540       -0.88330
H          3.45790        3.81760       -1.06700
C          1.61160        3.79670       -2.19120
C          2.23140        4.41940       -3.27710
C          1.57930        4.48670       -4.50590
C          0.31130        3.92790       -4.65660
C         -0.30590        3.30340       -3.57460
C          0.34050        3.24040       -2.34240
C          0.62900        5.57700       -0.24580
C          2.47030       -1.25390       -0.72390
N          1.97010       -2.45100       -0.07090
C          0.90230       -3.24960       -0.57680
O          0.43560       -3.13370       -1.67280
C          0.57830       -4.21620        0.51730
C         -0.36190       -5.21690        0.56500
C         -0.45250       -5.96950        1.75210
C          0.37980       -5.70920        2.83210
C          1.34410       -4.68430        2.77700
C          1.42750       -3.95280        1.61690
C          2.31750       -2.80740        1.26340
O          3.16830       -2.25420        1.90080
H          1.41600        5.65650        2.79280
H          1.14150        4.00030        3.41530
H         -0.04880        4.73890        2.30020
H          3.22980        4.83950       -3.17320
H          2.06730        4.96490       -5.35270
H         -0.19200        3.97220       -5.62010
H         -1.29110        2.85510       -3.69190
H         -0.14410        2.74420       -1.50240
H         -0.23220        4.89710       -0.28820
H          0.71990        6.03420       -1.24120
H          0.38330        6.38190        0.45650
H          2.16570       -1.25640       -1.80310
H          3.59030       -1.25910       -0.70950
H         -1.01840       -5.42290       -0.28040
H         -1.19340       -6.76650        1.81690
H          0.29010       -6.30220        3.74240
H          1.99650       -4.48020        3.62630
