50
rmsd37.gzmat
Br         0.00000        0.00000        0.00000
C          1.95550        0.00000        0.00000
H          2.25920        0.00000        1.07690
C          2.41760        1.25060       -0.71450
O          1.77200        1.84630       -1.53850
N          3.67940        1.75450       -0.34680
C          4.69160        1.06530        0.36570
O          4.50450        0.07520        1.03770
N          5.91960        1.66680        0.09750
C          7.01160        1.48890        1.04870
C          5.75790        2.94830       -0.63050
H          6.40980        2.89370       -1.54030
C          4.23770        2.92160       -1.07590
H          4.17510        2.71050       -2.18110
C          3.49930        4.19110       -0.75100
C          2.91460        4.39740        0.49940
C          2.23400        5.58400        0.76230
C          2.14130        6.56920       -0.21900
C          2.72350        6.36250       -1.46890
C          3.39860        5.17440       -1.73770
C          6.12800        4.17290        0.19820
C          2.48610       -1.26440       -0.69370
N          1.99340       -1.39700       -2.05300
C          2.46400       -0.60820       -3.14190
O          3.42670        0.10420       -3.07870
C          1.55140       -0.91540       -4.28320
C          1.54600       -0.43160       -5.56940
C          0.54100       -0.90150       -6.43700
C         -0.40960       -1.81660       -6.00560
C         -0.40230       -2.30570       -4.68510
C          0.58190       -1.84660       -3.84340
C          0.84640       -2.16800       -2.40840
O          0.29540       -2.92850       -1.66600
H          7.97370        1.67960        0.54180
H          7.01490        0.43790        1.40560
H          6.93170        2.14710        1.93060
H          2.97690        3.62670        1.26680
H          1.76870        5.73720        1.73420
H          1.60940        7.49520       -0.01240
H          2.64210        7.12600       -2.23980
H          3.83340        5.01070       -2.72190
H          5.55610        4.22890        1.13390
H          5.92170        5.10100       -0.35360
H          7.19270        4.18190        0.45760
H          3.60850       -1.24010       -0.70600
H          2.19850       -2.17610       -0.10930
H          2.28770        0.29170       -5.90780
H          0.51420       -0.53430       -7.46290
H         -1.17950       -2.16620       -6.69350
H         -1.15350       -3.01950       -4.34660
