rmsd214.gzmat
 OpenBabel08211713393D

 50 53  0  0  1  0  0  0  0  0999 V2000
    0.0000    0.0000    0.0000 Br  0  0  0  0  0  0  0  0  0  0  0  0
    1.9576    0.0000    0.0000 C   0  0  2  0  0  0  0  0  0  0  0  0
    2.2667    0.0000    1.0780 H   0  0  0  0  0  0  0  0  0  0  0  0
    2.4193    1.2367   -0.7256 C   0  0  0  0  0  0  0  0  0  0  0  0
    3.0221    1.2024   -1.7723 O   0  0  0  0  0  0  0  0  0  0  0  0
    2.1037    2.4772   -0.1608 N   0  0  0  0  0  0  0  0  0  0  0  0
    1.7490    2.7517    1.1868 C   0  0  0  0  0  0  0  0  0  0  0  0
    1.5131    1.9097    2.0179 O   0  0  0  0  0  0  0  0  0  0  0  0
    1.8468    4.1316    1.3982 N   0  0  0  0  0  0  0  0  0  0  0  0
    1.0233    4.7221    2.4507 C   0  0  0  0  0  0  0  0  0  0  0  0
    2.0722    4.8701    0.1319 C   0  0  1  0  0  0  0  0  0  0  0  0
    3.0206    5.4547    0.2677 H   0  0  0  0  0  0  0  0  0  0  0  0
    2.3242    3.7240   -0.9322 C   0  0  2  0  0  0  0  0  0  0  0  0
    3.3973    3.7527   -1.2652 H   0  0  0  0  0  0  0  0  0  0  0  0
    1.4110    3.8097   -2.1261 C   0  0  0  0  0  0  0  0  0  0  0  0
    1.9023    4.3737   -3.3053 C   0  0  0  0  0  0  0  0  0  0  0  0
    1.0804    4.4693   -4.4260 C   0  0  0  0  0  0  0  0  0  0  0  0
   -0.2291    3.9946   -4.3754 C   0  0  0  0  0  0  0  0  0  0  0  0
   -0.7180    3.4271   -3.2000 C   0  0  0  0  0  0  0  0  0  0  0  0
    0.0978    3.3400   -2.0746 C   0  0  0  0  0  0  0  0  0  0  0  0
    0.9431    5.8186   -0.2498 C   0  0  0  0  0  0  0  0  0  0  0  0
    2.4722   -1.2524   -0.7274 C   0  0  0  0  0  0  0  0  0  0  0  0
    1.9389   -2.4545   -0.1127 N   0  0  0  0  0  0  0  0  0  0  0  0
    2.3053   -2.8944    1.1903 C   0  0  0  0  0  0  0  0  0  0  0  0
    3.1766   -2.3937    1.8432 O   0  0  0  0  0  0  0  0  0  0  0  0
    1.4064   -4.0492    1.4900 C   0  0  0  0  0  0  0  0  0  0  0  0
    1.3390   -4.8563    2.6000 C   0  0  0  0  0  0  0  0  0  0  0  0
    0.3668   -5.8751    2.6061 C   0  0  0  0  0  0  0  0  0  0  0  0
   -0.4933   -6.0526    1.5311 C   0  0  0  0  0  0  0  0  0  0  0  0
   -0.4197   -5.2230    0.3954 C   0  0  0  0  0  0  0  0  0  0  0  0
    0.5332   -4.2332    0.3926 C   0  0  0  0  0  0  0  0  0  0  0  0
    0.8544   -3.2100   -0.6490 C   0  0  0  0  0  0  0  0  0  0  0  0
    0.3768   -3.0279   -1.7311 O   0  0  0  0  0  0  0  0  0  0  0  0
    1.4682    5.6822    2.7651 H   0  0  0  0  0  0  0  0  0  0  0  0
    1.0160    4.0456    3.3305 H   0  0  0  0  0  0  0  0  0  0  0  0
   -0.0221    4.8935    2.1437 H   0  0  0  0  0  0  0  0  0  0  0  0
    2.9297    4.7284   -3.3584 H   0  0  0  0  0  0  0  0  0  0  0  0
    1.4664    4.9064   -5.3448 H   0  0  0  0  0  0  0  0  0  0  0  0
   -0.8675    4.0616   -5.2536 H   0  0  0  0  0  0  0  0  0  0  0  0
   -1.7374    3.0453   -3.1616 H   0  0  0  0  0  0  0  0  0  0  0  0
   -0.2898    2.8962   -1.1583 H   0  0  0  0  0  0  0  0  0  0  0  0
   -0.0305    5.3121   -0.2964 H   0  0  0  0  0  0  0  0  0  0  0  0
    1.1166    6.2602   -1.2416 H   0  0  0  0  0  0  0  0  0  0  0  0
    0.8537    6.6493    0.4601 H   0  0  0  0  0  0  0  0  0  0  0  0
    2.1967   -1.2332   -1.8148 H   0  0  0  0  0  0  0  0  0  0  0  0
    3.5913   -1.2732   -0.6830 H   0  0  0  0  0  0  0  0  0  0  0  0
    2.0098   -4.7160    3.4478 H   0  0  0  0  0  0  0  0  0  0  0  0
    0.2947   -6.5312    3.4738 H   0  0  0  0  0  0  0  0  0  0  0  0
   -1.2412   -6.8452    1.5591 H   0  0  0  0  0  0  0  0  0  0  0  0
   -1.0974   -5.3628   -0.4469 H   0  0  0  0  0  0  0  0  0  0  0  0
  1  2  1  0  0  0  0
  2  3  1  1  0  0  0
  4  6  1  0  0  0  0
  4  2  1  0  0  0  0
  5  4  2  0  0  0  0
  6  7  1  0  0  0  0
  7  9  1  0  0  0  0
  7  8  2  0  0  0  0
  9 10  1  0  0  0  0
 10 34  1  0  0  0  0
 10 35  1  0  0  0  0
 11 13  1  0  0  0  0
 11 12  1  1  0  0  0
 11  9  1  0  0  0  0
 13 14  1  6  0  0  0
 13  6  1  0  0  0  0
 15 20  1  0  0  0  0
 15 13  1  0  0  0  0
 16 15  2  0  0  0  0
 17 18  2  0  0  0  0
 17 16  1  0  0  0  0
 18 19  1  0  0  0  0
 19 40  1  0  0  0  0
 19 20  2  0  0  0  0
 20 41  1  0  0  0  0
 21 11  1  0  0  0  0
 21 44  1  0  0  0  0
 22 46  1  0  0  0  0
 22 23  1  0  0  0  0
 22  2  1  0  0  0  0
 23 24  1  0  0  0  0
 24 26  1  0  0  0  0
 24 25  2  0  0  0  0
 26 27  2  0  0  0  0
 27 28  1  0  0  0  0
 27 47  1  0  0  0  0
 28 48  1  0  0  0  0
 29 49  1  0  0  0  0
 29 28  2  0  0  0  0
 30 29  1  0  0  0  0
 31 30  2  0  0  0  0
 31 26  1  0  0  0  0
 32 23  1  0  0  0  0
 32 31  1  0  0  0  0
 33 32  2  0  0  0  0
 36 10  1  0  0  0  0
 37 16  1  0  0  0  0
 38 17  1  0  0  0  0
 39 18  1  0  0  0  0
 42 21  1  0  0  0  0
 43 21  1  0  0  0  0
 45 22  1  0  0  0  0
 50 30  1  0  0  0  0
M  END
$$$$
