50
rmsd217.gzmat
Br         0.00000        0.00000        0.00000
C          1.95550        0.00000        0.00000
H          2.26450        0.00000        1.07830
C          2.42290        1.23200       -0.72950
O          2.99350        1.18920       -1.79420
N          2.15750        2.47680       -0.15070
C          1.84420        2.75410        1.20680
O          1.57840        1.91810        2.03450
N          2.01910        4.12470        1.42610
C          1.28880        4.74210        2.52990
C          2.21030        4.86710        0.15700
H          3.15270        5.46390        0.27000
C          2.44980        3.71920       -0.90670
H          3.53460        3.70690       -1.20250
C          1.58750        3.84770       -2.13320
C          2.13490        4.43770       -3.27470
C          1.36360        4.56980       -4.42680
C          0.04860        4.10810       -4.44520
C         -0.49520        3.51260       -3.30860
C          0.27060        3.38620       -2.15190
C          1.05740        5.79690       -0.19880
C          2.47440       -1.24650       -0.73160
N          2.04280       -2.45660       -0.05680
C          2.51570       -2.84680        1.22690
O          3.34900       -2.24450        1.84260
C          1.77590       -4.10060        1.56040
C          1.86400       -4.91500        2.66310
C          1.03720       -6.05440        2.69820
C          0.16570       -6.34010        1.65650
C          0.07640       -5.49960        0.53000
C          0.88690       -4.39090        0.49950
C          1.03480       -3.33490       -0.54900
O          0.48900       -3.21000       -1.60690
H          1.75150        5.71210        2.77880
H          1.36500        4.08840        3.42320
H          0.21890        4.89810        2.31270
H          3.16720        4.78230       -3.27440
H          1.79280        5.02530       -5.31690
H         -0.55020        4.20600       -5.34830
H         -1.51760        3.13870       -3.32410
H         -0.15890        2.91540       -1.26780
H          0.09490        5.27010       -0.23810
H          1.20870        6.25400       -1.18720
H          0.95900        6.61650        0.52250
H          2.12830       -1.26630       -1.79840
H          3.59400       -1.21480       -0.76350
H          2.54750       -4.69220        3.48260
H          1.08940       -6.71840        3.56090
H         -0.46280       -7.22930        1.70260
H         -0.61120       -5.72520       -0.28520
