50
rmsd214.gzmat
Br         0.00000        0.00000        0.00000
C          1.95760        0.00000        0.00000
H          2.26670        0.00000        1.07800
C          2.41930        1.23670       -0.72560
O          3.02210        1.20240       -1.77230
N          2.10370        2.47720       -0.16080
C          1.74900        2.75170        1.18680
O          1.51310        1.90970        2.01790
N          1.84680        4.13160        1.39820
C          1.02330        4.72210        2.45070
C          2.07220        4.87010        0.13190
H          3.02060        5.45470        0.26770
C          2.32420        3.72400       -0.93220
H          3.39730        3.75270       -1.26520
C          1.41100        3.80970       -2.12610
C          1.90230        4.37370       -3.30530
C          1.08040        4.46930       -4.42600
C         -0.22910        3.99460       -4.37540
C         -0.71800        3.42710       -3.20000
C          0.09780        3.34000       -2.07460
C          0.94310        5.81860       -0.24980
C          2.47220       -1.25240       -0.72740
N          1.93890       -2.45450       -0.11270
C          2.30530       -2.89440        1.19030
O          3.17660       -2.39370        1.84320
C          1.40640       -4.04920        1.49000
C          1.33900       -4.85630        2.60000
C          0.36680       -5.87510        2.60610
C         -0.49330       -6.05260        1.53110
C         -0.41970       -5.22300        0.39540
C          0.53320       -4.23320        0.39260
C          0.85440       -3.21000       -0.64900
O          0.37680       -3.02790       -1.73110
H          1.46820        5.68220        2.76510
H          1.01600        4.04560        3.33050
H         -0.02210        4.89350        2.14370
H          2.92970        4.72840       -3.35840
H          1.46640        4.90640       -5.34480
H         -0.86750        4.06160       -5.25360
H         -1.73740        3.04530       -3.16160
H         -0.28980        2.89620       -1.15830
H         -0.03050        5.31210       -0.29640
H          1.11660        6.26020       -1.24160
H          0.85370        6.64930        0.46010
H          2.19670       -1.23320       -1.81480
H          3.59130       -1.27320       -0.68300
H          2.00980       -4.71600        3.44780
H          0.29470       -6.53120        3.47380
H         -1.24120       -6.84520        1.55910
H         -1.09740       -5.36280       -0.44690
