44
rmsd23.gzmat
N          0.00000        0.00000        0.00000
N          1.35460        0.00000        0.00000
C          2.00500        0.00000        1.14670
C          1.34280       -0.00630        2.42750
C         -0.01470       -0.01500        2.42970
C         -0.77950       -0.01300        1.16250
O         -1.99420       -0.01210        1.13180
O         -0.70540       -0.00550        3.57790
C          2.13420       -0.01600        3.68820
O          2.42440       -1.05600        4.22450
C          2.54450        1.29590        4.23540
C          2.64940        2.42660        3.42420
C          3.06420        3.63610        3.97460
C          3.36400        3.71770        5.33420
C          3.25490        2.58920        6.14520
C          2.85040        1.37510        5.59540
C          3.47650        0.04500        1.07840
C          4.10710        1.10720        0.42680
C          5.49760        1.18440        0.42440
C          6.25280        0.19880        1.05800
C          5.62020       -0.87330        1.68590
C          4.23020       -0.95520        1.69610
C         -0.59310       -0.01330       -1.31170
C         -1.72410        0.77360       -1.55480
C         -2.30320        0.74700       -2.82060
C         -1.75860       -0.04680       -3.82880
C         -0.62630       -0.82040       -3.57650
C         -0.03430       -0.81040       -2.31720
H         -1.69790       -0.02990        3.39900
H          2.41900        2.36600        2.36000
H          3.15400        4.51730        3.34300
H          3.68380        4.66600        5.76330
H          3.48670        2.65530        7.20630
H          2.77100        0.48150        6.21930
H          3.51270        1.86690       -0.08020
H          5.99420        2.01510       -0.07240
H          7.33940        0.26460        1.06100
H          6.21220       -1.64570        2.17440
H          3.73280       -1.79210        2.19210
H         -2.15770        1.38990       -0.76650
H         -3.18780        1.35120       -3.01930
H         -2.21880       -0.06290       -4.81470
H         -0.20150       -1.43820       -4.36660
H          0.85550       -1.40830       -2.11510
