rmsd27.gzmat
 OpenBabel08211713393D

 44 47  0  0  0  0  0  0  0  0999 V2000
    0.0000    0.0000    0.0000 N   0  0  0  0  0  0  0  0  0  0  0  0
    1.3557    0.0000    0.0000 N   0  0  0  0  0  0  0  0  0  0  0  0
    2.0098    0.0000    1.1440 C   0  0  0  0  0  0  0  0  0  0  0  0
    1.3536   -0.0038    2.4275 C   0  0  0  0  0  0  0  0  0  0  0  0
   -0.0037    0.0045    2.4325 C   0  0  0  0  0  0  0  0  0  0  0  0
   -0.7730    0.0153    1.1669 C   0  0  0  0  0  0  0  0  0  0  0  0
   -1.9881    0.0272    1.1477 O   0  0  0  0  0  0  0  0  0  0  0  0
   -0.6912   -0.0145    3.5822 O   0  0  0  0  0  0  0  0  0  0  0  0
    2.1498   -0.0016    3.6851 C   0  0  0  0  0  0  0  0  0  0  0  0
    2.4345    1.0361    4.2296 O   0  0  0  0  0  0  0  0  0  0  0  0
    2.5749   -1.3153    4.2170 C   0  0  0  0  0  0  0  0  0  0  0  0
    2.9291   -1.3962    5.5657 C   0  0  0  0  0  0  0  0  0  0  0  0
    3.3468   -2.6124    6.1010 C   0  0  0  0  0  0  0  0  0  0  0  0
    3.4239   -3.7409    5.2863 C   0  0  0  0  0  0  0  0  0  0  0  0
    3.0779   -3.6578    3.9377 C   0  0  0  0  0  0  0  0  0  0  0  0
    2.6469   -2.4466    3.4031 C   0  0  0  0  0  0  0  0  0  0  0  0
    3.4814   -0.0207    1.0675 C   0  0  0  0  0  0  0  0  0  0  0  0
    4.2172    1.0008    1.6723 C   0  0  0  0  0  0  0  0  0  0  0  0
    5.6082    0.9535    1.6454 C   0  0  0  0  0  0  0  0  0  0  0  0
    6.2591   -0.1047    1.0122 C   0  0  0  0  0  0  0  0  0  0  0  0
    5.5211   -1.1126    0.3938 C   0  0  0  0  0  0  0  0  0  0  0  0
    4.1290   -1.0716    0.4153 C   0  0  0  0  0  0  0  0  0  0  0  0
   -0.5881    0.0275   -1.3137 C   0  0  0  0  0  0  0  0  0  0  0  0
   -1.7879   -0.6550   -1.5432 C   0  0  0  0  0  0  0  0  0  0  0  0
   -2.3575   -0.6094   -2.8132 C   0  0  0  0  0  0  0  0  0  0  0  0
   -1.7357    0.0945   -3.8428 C   0  0  0  0  0  0  0  0  0  0  0  0
   -0.5335    0.7603   -3.6061 C   0  0  0  0  0  0  0  0  0  0  0  0
    0.0483    0.7338   -2.3427 C   0  0  0  0  0  0  0  0  0  0  0  0
   -1.6841    0.0168    3.4064 H   0  0  0  0  0  0  0  0  0  0  0  0
    2.8773   -0.5017    6.1917 H   0  0  0  0  0  0  0  0  0  0  0  0
    3.6138   -2.6802    7.1537 H   0  0  0  0  0  0  0  0  0  0  0  0
    3.7554   -4.6906    5.7038 H   0  0  0  0  0  0  0  0  0  0  0  0
    3.1429   -4.5392    3.3031 H   0  0  0  0  0  0  0  0  0  0  0  0
    2.3772   -2.3859    2.3484 H   0  0  0  0  0  0  0  0  0  0  0  0
    3.7046    1.8270    2.1704 H   0  0  0  0  0  0  0  0  0  0  0  0
    6.1869    1.7422    2.1232 H   0  0  0  0  0  0  0  0  0  0  0  0
    7.3468   -0.1426    0.9996 H   0  0  0  0  0  0  0  0  0  0  0  0
    6.0320   -1.9323   -0.1069 H   0  0  0  0  0  0  0  0  0  0  0  0
    3.5478   -1.8507   -0.0771 H   0  0  0  0  0  0  0  0  0  0  0  0
   -2.2843   -1.2087   -0.7447 H   0  0  0  0  0  0  0  0  0  0  0  0
   -3.2968   -1.1298   -2.9975 H   0  0  0  0  0  0  0  0  0  0  0  0
   -2.1880    0.1239   -4.8319 H   0  0  0  0  0  0  0  0  0  0  0  0
   -0.0445    1.3058   -4.4124 H   0  0  0  0  0  0  0  0  0  0  0  0
    0.9926    1.2490   -2.1574 H   0  0  0  0  0  0  0  0  0  0  0  0
  1  6  1  0  0  0  0
  2  1  1  0  0  0  0
  2  3  2  0  0  0  0
  3  4  1  0  0  0  0
  4  5  2  0  0  0  0
  4  9  1  0  0  0  0
  5  8  1  0  0  0  0
  6  5  1  0  0  0  0
  7  6  2  0  0  0  0
  9 11  1  0  0  0  0
  9 10  2  0  0  0  0
 11 12  2  0  0  0  0
 12 13  1  0  0  0  0
 12 30  1  0  0  0  0
 13 31  1  0  0  0  0
 14 32  1  0  0  0  0
 14 13  2  0  0  0  0
 15 14  1  0  0  0  0
 16 15  2  0  0  0  0
 16 11  1  0  0  0  0
 17  3  1  0  0  0  0
 17 18  2  0  0  0  0
 18 35  1  0  0  0  0
 19 18  1  0  0  0  0
 19 36  1  0  0  0  0
 20 19  2  0  0  0  0
 21 22  2  0  0  0  0
 21 20  1  0  0  0  0
 22 17  1  0  0  0  0
 23  1  1  0  0  0  0
 24 23  1  0  0  0  0
 24 40  1  0  0  0  0
 25 24  2  0  0  0  0
 26 27  2  0  0  0  0
 26 25  1  0  0  0  0
 27 28  1  0  0  0  0
 28 44  1  0  0  0  0
 28 23  2  0  0  0  0
 29  8  1  0  0  0  0
 33 15  1  0  0  0  0
 34 16  1  0  0  0  0
 37 20  1  0  0  0  0
 38 21  1  0  0  0  0
 39 22  1  0  0  0  0
 41 25  1  0  0  0  0
 42 26  1  0  0  0  0
 43 27  1  0  0  0  0
M  END
$$$$
