rmsd3.gzmat
 OpenBabel08211713393D

 44 47  0  0  0  0  0  0  0  0999 V2000
    0.0000    0.0000    0.0000 N   0  0  0  0  0  0  0  0  0  0  0  0
    1.3547    0.0000    0.0000 N   0  0  0  0  0  0  0  0  0  0  0  0
    2.0070    0.0000    1.1459 C   0  0  0  0  0  0  0  0  0  0  0  0
    1.3461    0.0027    2.4273 C   0  0  0  0  0  0  0  0  0  0  0  0
   -0.0114    0.0136    2.4294 C   0  0  0  0  0  0  0  0  0  0  0  0
   -0.7777    0.0173    1.1633 C   0  0  0  0  0  0  0  0  0  0  0  0
   -1.9923    0.0253    1.1361 O   0  0  0  0  0  0  0  0  0  0  0  0
   -0.7023   -0.0007    3.5774 O   0  0  0  0  0  0  0  0  0  0  0  0
    2.1346    0.0048    3.6901 C   0  0  0  0  0  0  0  0  0  0  0  0
    2.3971    1.0410    4.2483 O   0  0  0  0  0  0  0  0  0  0  0  0
    2.5779   -1.3069    4.2120 C   0  0  0  0  0  0  0  0  0  0  0  0
    2.9293   -1.3939    5.5610 C   0  0  0  0  0  0  0  0  0  0  0  0
    3.3647   -2.6079    6.0869 C   0  0  0  0  0  0  0  0  0  0  0  0
    3.4620   -3.7279    5.2627 C   0  0  0  0  0  0  0  0  0  0  0  0
    3.1180   -3.6387    3.9140 C   0  0  0  0  0  0  0  0  0  0  0  0
    2.6700   -2.4299    3.3884 C   0  0  0  0  0  0  0  0  0  0  0  0
    3.4781   -0.0452    1.0714 C   0  0  0  0  0  0  0  0  0  0  0  0
    4.2386    0.9280    1.7232 C   0  0  0  0  0  0  0  0  0  0  0  0
    5.6277    0.8376    1.7094 C   0  0  0  0  0  0  0  0  0  0  0  0
    6.2539   -0.2123    1.0389 C   0  0  0  0  0  0  0  0  0  0  0  0
    5.4926   -1.1670    0.3665 C   0  0  0  0  0  0  0  0  0  0  0  0
    4.1026   -1.0837    0.3759 C   0  0  0  0  0  0  0  0  0  0  0  0
   -0.5917    0.0080   -1.3122 C   0  0  0  0  0  0  0  0  0  0  0  0
   -0.0157    0.7789   -2.3289 C   0  0  0  0  0  0  0  0  0  0  0  0
   -0.6047    0.7812   -3.5895 C   0  0  0  0  0  0  0  0  0  0  0  0
   -1.7522    0.0276   -3.8326 C   0  0  0  0  0  0  0  0  0  0  0  0
   -2.3147   -0.7386   -2.8132 C   0  0  0  0  0  0  0  0  0  0  0  0
   -1.7379   -0.7596   -1.5463 C   0  0  0  0  0  0  0  0  0  0  0  0
   -1.6946    0.0286    3.3980 H   0  0  0  0  0  0  0  0  0  0  0  0
    2.8621   -0.5059    6.1948 H   0  0  0  0  0  0  0  0  0  0  0  0
    3.6308   -2.6806    7.1394 H   0  0  0  0  0  0  0  0  0  0  0  0
    3.8073   -4.6760    5.6725 H   0  0  0  0  0  0  0  0  0  0  0  0
    3.1981   -4.5138    3.2724 H   0  0  0  0  0  0  0  0  0  0  0  0
    2.4030   -2.3647    2.3331 H   0  0  0  0  0  0  0  0  0  0  0  0
    3.7481    1.7515    2.2473 H   0  0  0  0  0  0  0  0  0  0  0  0
    6.2236    1.5874    2.2271 H   0  0  0  0  0  0  0  0  0  0  0  0
    7.3398   -0.2852    1.0386 H   0  0  0  0  0  0  0  0  0  0  0  0
    5.9829   -1.9787   -0.1666 H   0  0  0  0  0  0  0  0  0  0  0  0
    3.5036   -1.8207   -0.1587 H   0  0  0  0  0  0  0  0  0  0  0  0
    0.8855    1.3625   -2.1346 H   0  0  0  0  0  0  0  0  0  0  0  0
   -0.1658    1.3769   -4.3887 H   0  0  0  0  0  0  0  0  0  0  0  0
   -2.2100    0.0374   -4.8197 H   0  0  0  0  0  0  0  0  0  0  0  0
   -3.2119   -1.3260   -3.0044 H   0  0  0  0  0  0  0  0  0  0  0  0
   -2.1850   -1.3565   -0.7507 H   0  0  0  0  0  0  0  0  0  0  0  0
  1  2  1  0  0  0  0
  1  6  1  0  0  0  0
  2  3  2  0  0  0  0
  3  4  1  0  0  0  0
  4  5  2  0  0  0  0
  4  9  1  0  0  0  0
  5  8  1  0  0  0  0
  6  5  1  0  0  0  0
  7  6  2  0  0  0  0
  9 11  1  0  0  0  0
  9 10  2  0  0  0  0
 11 12  2  0  0  0  0
 12 13  1  0  0  0  0
 12 30  1  0  0  0  0
 13 31  1  0  0  0  0
 14 32  1  0  0  0  0
 14 13  2  0  0  0  0
 15 14  1  0  0  0  0
 16 15  2  0  0  0  0
 16 11  1  0  0  0  0
 17  3  1  0  0  0  0
 17 18  2  0  0  0  0
 18 35  1  0  0  0  0
 19 18  1  0  0  0  0
 19 36  1  0  0  0  0
 20 19  2  0  0  0  0
 21 22  2  0  0  0  0
 21 20  1  0  0  0  0
 22 17  1  0  0  0  0
 23  1  1  0  0  0  0
 24 40  1  0  0  0  0
 24 23  2  0  0  0  0
 25 24  1  0  0  0  0
 26 25  2  0  0  0  0
 26 27  1  0  0  0  0
 27 28  2  0  0  0  0
 28 23  1  0  0  0  0
 28 44  1  0  0  0  0
 29  8  1  0  0  0  0
 33 15  1  0  0  0  0
 34 16  1  0  0  0  0
 37 20  1  0  0  0  0
 38 21  1  0  0  0  0
 39 22  1  0  0  0  0
 41 25  1  0  0  0  0
 42 26  1  0  0  0  0
 43 27  1  0  0  0  0
M  END
$$$$
