rmsd18.gzmat
 OpenBabel08211713393D

 44 47  0  0  0  0  0  0  0  0999 V2000
    0.0000    0.0000    0.0000 N   0  0  0  0  0  0  0  0  0  0  0  0
    1.3548    0.0000    0.0000 N   0  0  0  0  0  0  0  0  0  0  0  0
    2.0095    0.0000    1.1445 C   0  0  0  0  0  0  0  0  0  0  0  0
    1.3531    0.0036    2.4277 C   0  0  0  0  0  0  0  0  0  0  0  0
   -0.0045   -0.0045    2.4310 C   0  0  0  0  0  0  0  0  0  0  0  0
   -0.7737   -0.0173    1.1662 C   0  0  0  0  0  0  0  0  0  0  0  0
   -1.9886   -0.0334    1.1446 O   0  0  0  0  0  0  0  0  0  0  0  0
   -0.6929    0.0105    3.5807 O   0  0  0  0  0  0  0  0  0  0  0  0
    2.1391    0.0008    3.6919 C   0  0  0  0  0  0  0  0  0  0  0  0
    2.4744   -1.0355    4.2084 O   0  0  0  0  0  0  0  0  0  0  0  0
    2.4761    1.3192    4.2736 C   0  0  0  0  0  0  0  0  0  0  0  0
    2.5787    1.4220    5.6622 C   0  0  0  0  0  0  0  0  0  0  0  0
    2.9121    2.6436    6.2426 C   0  0  0  0  0  0  0  0  0  0  0  0
    3.1513    3.7546    5.4354 C   0  0  0  0  0  0  0  0  0  0  0  0
    3.0522    3.6488    4.0481 C   0  0  0  0  0  0  0  0  0  0  0  0
    2.7114    2.4314    3.4648 C   0  0  0  0  0  0  0  0  0  0  0  0
    3.4803    0.0189    1.0597 C   0  0  0  0  0  0  0  0  0  0  0  0
    4.1234    1.0478    0.3681 C   0  0  0  0  0  0  0  0  0  0  0  0
    5.5151    1.0884    0.3357 C   0  0  0  0  0  0  0  0  0  0  0  0
    6.2576    0.0999    0.9801 C   0  0  0  0  0  0  0  0  0  0  0  0
    5.6113   -0.9395    1.6478 C   0  0  0  0  0  0  0  0  0  0  0  0
    4.2206   -0.9850    1.6876 C   0  0  0  0  0  0  0  0  0  0  0  0
   -0.5917   -0.0378   -1.3117 C   0  0  0  0  0  0  0  0  0  0  0  0
   -1.7768    0.6672   -1.5489 C   0  0  0  0  0  0  0  0  0  0  0  0
   -2.3567    0.6043   -2.8133 C   0  0  0  0  0  0  0  0  0  0  0  0
   -1.7571   -0.1366   -3.8300 C   0  0  0  0  0  0  0  0  0  0  0  0
   -0.5672   -0.8218   -3.5871 C   0  0  0  0  0  0  0  0  0  0  0  0
    0.0234   -0.7797   -2.3281 C   0  0  0  0  0  0  0  0  0  0  0  0
   -1.6854   -0.0218    3.4031 H   0  0  0  0  0  0  0  0  0  0  0  0
    2.3958    0.5439    6.2851 H   0  0  0  0  0  0  0  0  0  0  0  0
    2.9867    2.7295    7.3247 H   0  0  0  0  0  0  0  0  0  0  0  0
    3.4178    4.7078    5.8890 H   0  0  0  0  0  0  0  0  0  0  0  0
    3.2387    4.5185    3.4215 H   0  0  0  0  0  0  0  0  0  0  0  0
    2.6402    2.3493    2.3799 H   0  0  0  0  0  0  0  0  0  0  0  0
    3.5375    1.8087   -0.1475 H   0  0  0  0  0  0  0  0  0  0  0  0
    6.0222    1.8927   -0.1925 H   0  0  0  0  0  0  0  0  0  0  0  0
    7.3450    0.1389    0.9606 H   0  0  0  0  0  0  0  0  0  0  0  0
    6.1921   -1.7153    2.1441 H   0  0  0  0  0  0  0  0  0  0  0  0
    3.7123   -1.7977    2.2123 H   0  0  0  0  0  0  0  0  0  0  0  0
   -2.2531    1.2506   -0.7595 H   0  0  0  0  0  0  0  0  0  0  0  0
   -3.2866    1.1392   -3.0042 H   0  0  0  0  0  0  0  0  0  0  0  0
   -2.2189   -0.1800   -4.8144 H   0  0  0  0  0  0  0  0  0  0  0  0
   -0.0958   -1.3957   -4.3841 H   0  0  0  0  0  0  0  0  0  0  0  0
    0.9573   -1.3103   -2.1357 H   0  0  0  0  0  0  0  0  0  0  0  0
  1  6  1  0  0  0  0
  2  1  1  0  0  0  0
  2  3  2  0  0  0  0
  3  4  1  0  0  0  0
  4  5  2  0  0  0  0
  4  9  1  0  0  0  0
  5  8  1  0  0  0  0
  6  5  1  0  0  0  0
  7  6  2  0  0  0  0
  9 10  2  0  0  0  0
  9 11  1  0  0  0  0
 11 12  2  0  0  0  0
 12 13  1  0  0  0  0
 12 30  1  0  0  0  0
 13 31  1  0  0  0  0
 14 32  1  0  0  0  0
 14 13  2  0  0  0  0
 15 14  1  0  0  0  0
 16 15  2  0  0  0  0
 16 11  1  0  0  0  0
 17  3  1  0  0  0  0
 17 22  2  0  0  0  0
 18 17  1  0  0  0  0
 19 18  2  0  0  0  0
 19 20  1  0  0  0  0
 20 21  2  0  0  0  0
 21 22  1  0  0  0  0
 21 38  1  0  0  0  0
 22 39  1  0  0  0  0
 23  1  1  0  0  0  0
 24 23  1  0  0  0  0
 24 40  1  0  0  0  0
 25 24  2  0  0  0  0
 26 27  2  0  0  0  0
 26 25  1  0  0  0  0
 27 28  1  0  0  0  0
 28 44  1  0  0  0  0
 28 23  2  0  0  0  0
 29  8  1  0  0  0  0
 33 15  1  0  0  0  0
 34 16  1  0  0  0  0
 35 18  1  0  0  0  0
 36 19  1  0  0  0  0
 37 20  1  0  0  0  0
 41 25  1  0  0  0  0
 42 26  1  0  0  0  0
 43 27  1  0  0  0  0
M  END
$$$$
