
     RDKit          3D

 44 47  0  0  0  0  0  0  0  0999 V2000
   -0.0910   -0.0155    0.0431 N   0  0  0  0  0  0  0  0  0  0  0  0
    1.2581   -0.0695    0.1148 N   0  0  0  0  0  0  0  0  0  0  0  0
    1.8569   -0.0456    1.2767 C   0  0  0  0  0  0  0  0  0  0  0  0
    1.1412    0.0270    2.5267 C   0  0  0  0  0  0  0  0  0  0  0  0
   -0.2203    0.1407    2.4435 C   0  0  0  0  0  0  0  0  0  0  0  0
   -0.9114    0.1180    1.1480 C   0  0  0  0  0  0  0  0  0  0  0  0
   -2.1418    0.1978    1.1320 O   0  0  0  0  0  0  0  0  0  0  0  0
   -1.0452    0.2162    3.4780 O   0  0  0  0  0  0  0  0  0  0  0  0
    1.8107   -0.0323    3.8797 C   0  0  0  0  0  0  0  0  0  0  0  0
    1.7431    0.9179    4.6345 O   0  0  0  0  0  0  0  0  0  0  0  0
    2.5328   -1.2864    4.2468 C   0  0  0  0  0  0  0  0  0  0  0  0
    3.3010   -1.2867    5.4225 C   0  0  0  0  0  0  0  0  0  0  0  0
    3.9969   -2.4302    5.8057 C   0  0  0  0  0  0  0  0  0  0  0  0
    3.9256   -3.5877    5.0208 C   0  0  0  0  0  0  0  0  0  0  0  0
    3.1542   -3.5984    3.8553 C   0  0  0  0  0  0  0  0  0  0  0  0
    2.4606   -2.4514    3.4679 C   0  0  0  0  0  0  0  0  0  0  0  0
    3.3416   -0.1172    1.2329 C   0  0  0  0  0  0  0  0  0  0  0  0
    4.1334    0.6575    2.0954 C   0  0  0  0  0  0  0  0  0  0  0  0
    5.5256    0.5680    2.0448 C   0  0  0  0  0  0  0  0  0  0  0  0
    6.1424   -0.2925    1.1335 C   0  0  0  0  0  0  0  0  0  0  0  0
    5.3597   -1.0557    0.2610 C   0  0  0  0  0  0  0  0  0  0  0  0
    3.9691   -0.9660    0.3069 C   0  0  0  0  0  0  0  0  0  0  0  0
   -0.6145   -0.0282   -1.2983 C   0  0  0  0  0  0  0  0  0  0  0  0
    0.1848    0.4851   -2.3289 C   0  0  0  0  0  0  0  0  0  0  0  0
   -0.2850    0.4694   -3.6413 C   0  0  0  0  0  0  0  0  0  0  0  0
   -1.5463   -0.0567   -3.9355 C   0  0  0  0  0  0  0  0  0  0  0  0
   -2.3345   -0.5694   -2.9033 C   0  0  0  0  0  0  0  0  0  0  0  0
   -1.8794   -0.5593   -1.5830 C   0  0  0  0  0  0  0  0  0  0  0  0
   -1.9415    0.2541    3.0707 H   0  0  0  0  0  0  0  0  0  0  0  0
    3.3360   -0.3712    6.0156 H   0  0  0  0  0  0  0  0  0  0  0  0
    4.5984   -2.4245    6.7176 H   0  0  0  0  0  0  0  0  0  0  0  0
    4.4726   -4.4850    5.3206 H   0  0  0  0  0  0  0  0  0  0  0  0
    3.0943   -4.5027    3.2457 H   0  0  0  0  0  0  0  0  0  0  0  0
    1.8582   -2.4639    2.5585 H   0  0  0  0  0  0  0  0  0  0  0  0
    3.6646    1.3494    2.7963 H   0  0  0  0  0  0  0  0  0  0  0  0
    6.1303    1.1784    2.7193 H   0  0  0  0  0  0  0  0  0  0  0  0
    7.2320   -0.3665    1.1001 H   0  0  0  0  0  0  0  0  0  0  0  0
    5.8364   -1.7283   -0.4560 H   0  0  0  0  0  0  0  0  0  0  0  0
    3.3490   -1.5580   -0.3680 H   0  0  0  0  0  0  0  0  0  0  0  0
    1.1693    0.8822   -2.0878 H   0  0  0  0  0  0  0  0  0  0  0  0
    0.3412    0.8751   -4.4392 H   0  0  0  0  0  0  0  0  0  0  0  0
   -1.9127   -0.0656   -4.9645 H   0  0  0  0  0  0  0  0  0  0  0  0
   -3.3207   -0.9858   -3.1214 H   0  0  0  0  0  0  0  0  0  0  0  0
   -2.5038   -0.9465   -0.7827 H   0  0  0  0  0  0  0  0  0  0  0  0
  1  2  1  0
  1  6  1  0
  1 23  1  0
  2  3  2  0
  3  4  1  0
  3 17  1  0
  4  5  2  0
  4  9  1  0
  5  6  1  0
  5  8  1  0
  6  7  2  0
  8 29  1  0
  9 10  2  0
  9 11  1  0
 11 12  2  0
 11 16  1  0
 12 13  1  0
 12 30  1  0
 13 14  2  0
 13 31  1  0
 14 15  1  0
 14 32  1  0
 15 16  2  0
 15 33  1  0
 16 34  1  0
 17 18  2  0
 17 22  1  0
 18 19  1  0
 18 35  1  0
 19 20  2  0
 19 36  1  0
 20 21  1  0
 20 37  1  0
 21 22  2  0
 21 38  1  0
 22 39  1  0
 23 24  2  0
 23 28  1  0
 24 25  1  0
 24 40  1  0
 25 26  2  0
 25 41  1  0
 26 27  1  0
 26 42  1  0
 27 28  2  0
 27 43  1  0
 28 44  1  0
M  END

