rmsd4.gzmat
 OpenBabel08211713393D

 44 46  0  0  0  0  0  0  0  0999 V2000
    0.0000    0.0000    0.0000 N   0  0  0  0  0  0  0  0  0  0  0  0
    1.3546    0.0000    0.0000 N   0  0  0  0  0  0  0  0  0  0  0  0
    2.0115    0.0000    1.1437 C   0  0  0  0  0  0  0  0  0  0  0  0
    1.3543    0.0095    2.4262 C   0  0  0  0  0  0  0  0  0  0  0  0
   -0.0035    0.0297    2.4293 C   0  0  0  0  0  0  0  0  0  0  0  0
   -0.7740    0.0216    1.1657 C   0  0  0  0  0  0  0  0  0  0  0  0
   -1.9890    0.0364    1.1444 O   0  0  0  0  0  0  0  0  0  0  0  0
   -0.6919    0.0704    3.5785 O   0  0  0  0  0  0  0  0  0  0  0  0
    2.1344   -0.0135    3.6938 C   0  0  0  0  0  0  0  0  0  0  0  0
    2.4772   -1.0567    4.1902 O   0  0  0  0  0  0  0  0  0  0  0  0
    2.4472    1.2972    4.3051 C   0  0  0  0  0  0  0  0  0  0  0  0
    2.4757    1.3898    5.6975 C   0  0  0  0  0  0  0  0  0  0  0  0
    2.7706    2.6094    6.3025 C   0  0  0  0  0  0  0  0  0  0  0  0
    3.0503    3.7260    5.5161 C   0  0  0  0  0  0  0  0  0  0  0  0
    3.0359    3.6269    4.1247 C   0  0  0  0  0  0  0  0  0  0  0  0
    2.7271    2.4133    3.5162 C   0  0  0  0  0  0  0  0  0  0  0  0
    3.4820    0.0316    1.0475 C   0  0  0  0  0  0  0  0  0  0  0  0
    4.1020    1.0656    0.3407 C   0  0  0  0  0  0  0  0  0  0  0  0
    5.4919    1.1221    0.2807 C   0  0  0  0  0  0  0  0  0  0  0  0
    6.2579    0.1460    0.9163 C   0  0  0  0  0  0  0  0  0  0  0  0
    5.6356   -0.8952    1.6038 C   0  0  0  0  0  0  0  0  0  0  0  0
    4.2458   -0.9586    1.6684 C   0  0  0  0  0  0  0  0  0  0  0  0
   -0.5905    0.0227   -1.3126 C   0  0  0  0  0  0  0  0  0  0  0  0
    0.0232    0.7579   -2.3348 C   0  0  0  0  0  0  0  0  0  0  0  0
   -0.5678    0.7899   -3.5938 C   0  0  0  0  0  0  0  0  0  0  0  0
   -1.7543    0.0977   -3.8328 C   0  0  0  0  0  0  0  0  0  0  0  0
   -2.3497   -0.6404   -2.8118 C   0  0  0  0  0  0  0  0  0  0  0  0
   -1.7726   -0.6887   -1.5453 C   0  0  0  0  0  0  0  0  0  0  0  0
   -1.6848    0.0790    3.4000 H   0  0  0  0  0  0  0  0  0  0  0  0
    2.2671    0.5057    6.3040 H   0  0  0  0  0  0  0  0  0  0  0  0
    2.7849    2.6890    7.3876 H   0  0  0  0  0  0  0  0  0  0  0  0
    3.2814    4.6791    5.9897 H   0  0  0  0  0  0  0  0  0  0  0  0
    3.2651    4.4976    3.5143 H   0  0  0  0  0  0  0  0  0  0  0  0
    2.7153    2.3357    2.4284 H   0  0  0  0  0  0  0  0  0  0  0  0
    3.4994    1.8184   -0.1664 H   0  0  0  0  0  0  0  0  0  0  0  0
    5.9791    1.9277   -0.2639 H   0  0  0  0  0  0  0  0  0  0  0  0
    7.3444    0.1955    0.8733 H   0  0  0  0  0  0  0  0  0  0  0  0
    6.2355   -1.6605    2.0937 H   0  0  0  0  0  0  0  0  0  0  0  0
    3.7580   -1.7761    2.2052 H   0  0  0  0  0  0  0  0  0  0  0  0
    0.9574    1.2886   -2.1482 H   0  0  0  0  0  0  0  0  0  0  0  0
   -0.0990    1.3594   -4.3948 H   0  0  0  0  0  0  0  0  0  0  0  0
   -2.2147    0.1326   -4.8182 H   0  0  0  0  0  0  0  0  0  0  0  0
   -3.2740   -1.1854   -3.0014 H   0  0  0  0  0  0  0  0  0  0  0  0
   -2.2474   -1.2666   -0.7504 H   0  0  0  0  0  0  0  0  0  0  0  0
  1  2  1  0  0  0  0
  1  6  1  0  0  0  0
  2  3  2  0  0  0  0
  3  4  1  0  0  0  0
  4  5  2  0  0  0  0
  4  9  1  0  0  0  0
  5  8  1  0  0  0  0
  6  5  1  0  0  0  0
  7  6  2  0  0  0  0
  9 10  2  0  0  0  0
  9 11  1  0  0  0  0
 11 12  2  0  0  0  0
 12 13  1  0  0  0  0
 12 30  1  0  0  0  0
 13 31  1  0  0  0  0
 14 32  1  0  0  0  0
 14 13  2  0  0  0  0
 15 14  1  0  0  0  0
 16 15  2  0  0  0  0
 16 11  1  0  0  0  0
 17  3  1  0  0  0  0
 17 22  2  0  0  0  0
 18 17  1  0  0  0  0
 19 18  2  0  0  0  0
 19 20  1  0  0  0  0
 20 21  2  0  0  0  0
 21 22  1  0  0  0  0
 21 38  1  0  0  0  0
 22 39  1  0  0  0  0
 23  1  1  0  0  0  0
 24 40  1  0  0  0  0
 24 23  2  0  0  0  0
 25 24  1  0  0  0  0
 26 25  2  0  0  0  0
 26 27  1  0  0  0  0
 27 28  2  0  0  0  0
 28 23  1  0  0  0  0
 28 44  1  0  0  0  0
 29  8  1  0  0  0  0
 33 15  1  0  0  0  0
 35 18  1  0  0  0  0
 36 19  1  0  0  0  0
 37 20  1  0  0  0  0
 41 25  1  0  0  0  0
 42 26  1  0  0  0  0
 43 27  1  0  0  0  0
M  RAD  2  16   2  34   2
M  END
$$$$
