
     RDKit          3D

 44 47  0  0  0  0  0  0  0  0999 V2000
   -0.0984   -0.0958    0.0222 N   0  0  0  0  0  0  0  0  0  0  0  0
    1.2468    0.0180    0.1128 N   0  0  0  0  0  0  0  0  0  0  0  0
    1.8275    0.0126    1.2842 C   0  0  0  0  0  0  0  0  0  0  0  0
    1.0985   -0.0987    2.5233 C   0  0  0  0  0  0  0  0  0  0  0  0
   -0.2580   -0.2471    2.4216 C   0  0  0  0  0  0  0  0  0  0  0  0
   -0.9307   -0.2438    1.1166 C   0  0  0  0  0  0  0  0  0  0  0  0
   -2.1591   -0.3470    1.0848 O   0  0  0  0  0  0  0  0  0  0  0  0
   -1.0956   -0.3352    3.4451 O   0  0  0  0  0  0  0  0  0  0  0  0
    1.7521   -0.0413    3.8844 C   0  0  0  0  0  0  0  0  0  0  0  0
    1.7108   -1.0081    4.6196 O   0  0  0  0  0  0  0  0  0  0  0  0
    2.4267    1.2294    4.2823 C   0  0  0  0  0  0  0  0  0  0  0  0
    2.3185    2.4064    3.5261 C   0  0  0  0  0  0  0  0  0  0  0  0
    2.9668    3.5697    3.9421 C   0  0  0  0  0  0  0  0  0  0  0  0
    3.7296    3.5631    5.1134 C   0  0  0  0  0  0  0  0  0  0  0  0
    3.8371    2.3932    5.8754 C   0  0  0  0  0  0  0  0  0  0  0  0
    3.1858    1.2334    5.4640 C   0  0  0  0  0  0  0  0  0  0  0  0
    3.3094    0.1374    1.2705 C   0  0  0  0  0  0  0  0  0  0  0  0
    3.9257    1.0505    0.4008 C   0  0  0  0  0  0  0  0  0  0  0  0
    5.3129    1.1903    0.3896 C   0  0  0  0  0  0  0  0  0  0  0  0
    6.1039    0.4135    1.2423 C   0  0  0  0  0  0  0  0  0  0  0  0
    5.4990   -0.5092    2.0991 C   0  0  0  0  0  0  0  0  0  0  0  0
    4.1101   -0.6483    2.1146 C   0  0  0  0  0  0  0  0  0  0  0  0
   -0.6143   -0.0121   -1.3194 C   0  0  0  0  0  0  0  0  0  0  0  0
    0.0984    0.7437   -2.2601 C   0  0  0  0  0  0  0  0  0  0  0  0
   -0.3649    0.8336   -3.5716 C   0  0  0  0  0  0  0  0  0  0  0  0
   -1.5348    0.1718   -3.9554 C   0  0  0  0  0  0  0  0  0  0  0  0
   -2.2361   -0.5841   -3.0141 C   0  0  0  0  0  0  0  0  0  0  0  0
   -1.7858   -0.6822   -1.6957 C   0  0  0  0  0  0  0  0  0  0  0  0
   -1.9852   -0.3925    3.0255 H   0  0  0  0  0  0  0  0  0  0  0  0
    1.7223    2.4151    2.6126 H   0  0  0  0  0  0  0  0  0  0  0  0
    2.8784    4.4837    3.3507 H   0  0  0  0  0  0  0  0  0  0  0  0
    4.2413    4.4733    5.4357 H   0  0  0  0  0  0  0  0  0  0  0  0
    4.4318    2.3906    6.7918 H   0  0  0  0  0  0  0  0  0  0  0  0
    3.2493    0.3080    6.0389 H   0  0  0  0  0  0  0  0  0  0  0  0
    3.3015    1.6574   -0.2569 H   0  0  0  0  0  0  0  0  0  0  0  0
    5.7802    1.9126   -0.2839 H   0  0  0  0  0  0  0  0  0  0  0  0
    7.1906    0.5259    1.2362 H   0  0  0  0  0  0  0  0  0  0  0  0
    6.1108   -1.1293    2.7582 H   0  0  0  0  0  0  0  0  0  0  0  0
    3.6502   -1.3857    2.7738 H   0  0  0  0  0  0  0  0  0  0  0  0
    1.0159    1.2429   -1.9545 H   0  0  0  0  0  0  0  0  0  0  0  0
    0.1948    1.4270   -4.2983 H   0  0  0  0  0  0  0  0  0  0  0  0
   -1.8965    0.2446   -4.9835 H   0  0  0  0  0  0  0  0  0  0  0  0
   -3.1488   -1.1102   -3.3033 H   0  0  0  0  0  0  0  0  0  0  0  0
   -2.3438   -1.2620   -0.9659 H   0  0  0  0  0  0  0  0  0  0  0  0
  1  2  1  0
  1  6  1  0
  1 23  1  0
  2  3  2  0
  3  4  1  0
  3 17  1  0
  4  5  2  0
  4  9  1  0
  5  6  1  0
  5  8  1  0
  6  7  2  0
  8 29  1  0
  9 10  2  0
  9 11  1  0
 11 12  2  0
 11 16  1  0
 12 13  1  0
 12 30  1  0
 13 14  2  0
 13 31  1  0
 14 15  1  0
 14 32  1  0
 15 16  2  0
 15 33  1  0
 16 34  1  0
 17 18  2  0
 17 22  1  0
 18 19  1  0
 18 35  1  0
 19 20  2  0
 19 36  1  0
 20 21  1  0
 20 37  1  0
 21 22  2  0
 21 38  1  0
 22 39  1  0
 23 24  2  0
 23 28  1  0
 24 25  1  0
 24 40  1  0
 25 26  2  0
 25 41  1  0
 26 27  1  0
 26 42  1  0
 27 28  2  0
 27 43  1  0
 28 44  1  0
M  END

