44
rmsd12.gzmat
N          0.00000        0.00000        0.00000
N          1.35460        0.00000        0.00000
C          2.00740        0.00000        1.14580
C          1.34770       -0.00800        2.42770
C         -0.00980       -0.00760        2.43030
C         -0.77640       -0.00730        1.16420
O         -1.99140       -0.00590        1.13860
O         -0.70110        0.00760        3.57810
C          2.13880       -0.04870        3.68800
O          2.38470       -1.10490        4.21710
C          2.61770        1.23750        4.23910
C          2.60110        2.41230        3.48560
C          3.09700        3.59240        4.03320
C          3.59910        3.60140        5.33440
C          3.60920        2.43010        6.09020
C          3.12140        1.24620        5.54250
C          3.47840        0.03780        1.06380
C          4.10590        1.07800        0.37490
C          5.49680        1.13810        0.33670
C          6.25520        0.15880        0.97600
C          5.62500       -0.88880        1.64670
C          4.23510       -0.95460        1.69010
C         -0.59400       -0.03910       -1.31070
C         -1.75100        0.70860       -1.55630
C         -2.33650        0.64800       -2.81800
C         -1.77180       -0.13660       -3.82220
C         -0.61000       -0.86510       -3.56970
C         -0.01280       -0.82380       -2.31350
H         -1.69350       -0.01610        3.39760
H          2.20920        2.41030        2.46820
H          3.09280        4.50790        3.44520
H          3.98400        4.52630        5.76160
H          4.00000        2.43970        7.10570
H          3.13040        0.32050        6.12410
H          3.50840        1.83440       -0.13370
H          5.99030        1.94960       -0.19430
H          7.34200        0.21070        0.94960
H          6.21890       -1.65730        2.13910
H          3.74020       -1.77650        2.21340
H         -2.20070        1.32100       -0.77350
H         -3.24300        1.21840       -3.01720
H         -2.24010       -0.17990       -4.80360
H         -0.16610       -1.47280       -4.35690
H          0.89870       -1.38920       -2.11290
