rmsd17.gzmat
 OpenBabel08211713393D

 44 47  0  0  0  0  0  0  0  0999 V2000
    0.0000    0.0000    0.0000 N   0  0  0  0  0  0  0  0  0  0  0  0
    1.3549    0.0000    0.0000 N   0  0  0  0  0  0  0  0  0  0  0  0
    2.0092    0.0000    1.1443 C   0  0  0  0  0  0  0  0  0  0  0  0
    1.3514    0.0167    2.4267 C   0  0  0  0  0  0  0  0  0  0  0  0
   -0.0062    0.0214    2.4303 C   0  0  0  0  0  0  0  0  0  0  0  0
   -0.7753    0.0071    1.1651 C   0  0  0  0  0  0  0  0  0  0  0  0
   -1.9904    0.0066    1.1420 O   0  0  0  0  0  0  0  0  0  0  0  0
   -0.6954    0.0560    3.5790 O   0  0  0  0  0  0  0  0  0  0  0  0
    2.1434    0.0245    3.6871 C   0  0  0  0  0  0  0  0  0  0  0  0
    2.4957   -1.0051    4.2047 O   0  0  0  0  0  0  0  0  0  0  0  0
    2.4658    1.3519    4.2567 C   0  0  0  0  0  0  0  0  0  0  0  0
    2.5859    1.4700    5.6422 C   0  0  0  0  0  0  0  0  0  0  0  0
    2.8973    2.7055    6.2058 C   0  0  0  0  0  0  0  0  0  0  0  0
    3.1036    3.8130    5.3850 C   0  0  0  0  0  0  0  0  0  0  0  0
    2.9944    3.6900    3.9999 C   0  0  0  0  0  0  0  0  0  0  0  0
    2.6686    2.4606    3.4343 C   0  0  0  0  0  0  0  0  0  0  0  0
    3.4806    0.0074    1.0590 C   0  0  0  0  0  0  0  0  0  0  0  0
    4.1334    1.0558    0.4071 C   0  0  0  0  0  0  0  0  0  0  0  0
    5.5252    1.0761    0.3612 C   0  0  0  0  0  0  0  0  0  0  0  0
    6.2589    0.0489    0.9528 C   0  0  0  0  0  0  0  0  0  0  0  0
    5.6030   -1.0044    1.5885 C   0  0  0  0  0  0  0  0  0  0  0  0
    4.2116   -1.0291    1.6438 C   0  0  0  0  0  0  0  0  0  0  0  0
   -0.5893    0.0371   -1.3126 C   0  0  0  0  0  0  0  0  0  0  0  0
   -1.7645   -0.6815   -1.5577 C   0  0  0  0  0  0  0  0  0  0  0  0
   -2.3411   -0.6179   -2.8238 C   0  0  0  0  0  0  0  0  0  0  0  0
   -1.7489    0.1386   -3.8335 C   0  0  0  0  0  0  0  0  0  0  0  0
   -0.5705    0.8399   -3.5811 C   0  0  0  0  0  0  0  0  0  0  0  0
    0.0175    0.7961   -2.3209 C   0  0  0  0  0  0  0  0  0  0  0  0
   -1.6882    0.0440    3.3999 H   0  0  0  0  0  0  0  0  0  0  0  0
    2.4356    0.5930    6.2756 H   0  0  0  0  0  0  0  0  0  0  0  0
    2.9822    2.8039    7.2860 H   0  0  0  0  0  0  0  0  0  0  0  0
    3.3513    4.7772    5.8257 H   0  0  0  0  0  0  0  0  0  0  0  0
    3.1615    4.5548    3.3612 H   0  0  0  0  0  0  0  0  0  0  0  0
    2.5814    2.3669    2.3515 H   0  0  0  0  0  0  0  0  0  0  0  0
    3.5565    1.8477   -0.0684 H   0  0  0  0  0  0  0  0  0  0  0  0
    6.0400    1.8935   -0.1389 H   0  0  0  0  0  0  0  0  0  0  0  0
    7.3466    0.0682    0.9155 H   0  0  0  0  0  0  0  0  0  0  0  0
    6.1770   -1.8087    2.0456 H   0  0  0  0  0  0  0  0  0  0  0  0
    3.6946   -1.8501    2.1460 H   0  0  0  0  0  0  0  0  0  0  0  0
   -2.2336   -1.2770   -0.7730 H   0  0  0  0  0  0  0  0  0  0  0  0
   -3.2620   -1.1654   -3.0220 H   0  0  0  0  0  0  0  0  0  0  0  0
   -2.2065    0.1807   -4.8199 H   0  0  0  0  0  0  0  0  0  0  0  0
   -0.1056    1.4264   -4.3721 H   0  0  0  0  0  0  0  0  0  0  0  0
    0.9437    1.3361   -2.1224 H   0  0  0  0  0  0  0  0  0  0  0  0
  1  6  1  0  0  0  0
  2  1  1  0  0  0  0
  2  3  2  0  0  0  0
  3  4  1  0  0  0  0
  4  5  2  0  0  0  0
  4  9  1  0  0  0  0
  5  8  1  0  0  0  0
  6  5  1  0  0  0  0
  7  6  2  0  0  0  0
  9 10  2  0  0  0  0
  9 11  1  0  0  0  0
 11 12  2  0  0  0  0
 12 13  1  0  0  0  0
 12 30  1  0  0  0  0
 13 31  1  0  0  0  0
 14 32  1  0  0  0  0
 14 13  2  0  0  0  0
 15 14  1  0  0  0  0
 16 15  2  0  0  0  0
 16 11  1  0  0  0  0
 17  3  1  0  0  0  0
 17 22  2  0  0  0  0
 18 17  1  0  0  0  0
 19 18  2  0  0  0  0
 19 20  1  0  0  0  0
 20 21  2  0  0  0  0
 21 22  1  0  0  0  0
 21 38  1  0  0  0  0
 22 39  1  0  0  0  0
 23  1  1  0  0  0  0
 24 23  1  0  0  0  0
 24 40  1  0  0  0  0
 25 24  2  0  0  0  0
 26 27  2  0  0  0  0
 26 25  1  0  0  0  0
 27 28  1  0  0  0  0
 28 44  1  0  0  0  0
 28 23  2  0  0  0  0
 29  8  1  0  0  0  0
 33 15  1  0  0  0  0
 34 16  1  0  0  0  0
 35 18  1  0  0  0  0
 36 19  1  0  0  0  0
 37 20  1  0  0  0  0
 41 25  1  0  0  0  0
 42 26  1  0  0  0  0
 43 27  1  0  0  0  0
M  END
$$$$
