37
rmsd38.gzmat
O          0.00000        0.00000        0.00000
C          1.38140        0.00000        0.00000
C          2.04080        0.00000        1.16880
C          3.51080       -0.02740        1.17800
C          4.24590        1.06580        0.71360
C          5.63790        1.02130        0.73060
C          6.29540       -0.10790        1.21600
C          5.56090       -1.19630        1.68470
C          4.16970       -1.15800        1.66910
C          1.38210        0.01120        2.47290
C          0.22990       -0.74340        2.70240
C         -0.38590       -0.74040        3.95260
C          0.16970        0.03340        4.96940
O         -0.30970        0.13810        6.23780
C         -1.49000       -0.58860        6.54730
C          1.32740        0.80240        4.76260
C          1.92440        0.78330        3.51340
C          1.91910       -0.00660       -1.39940
C          0.66720        0.00560       -2.28500
C         -0.47900       -0.00210       -1.30760
O         -1.65850       -0.01460       -1.48770
H          3.73030        1.95330        0.35230
H          6.21310        1.86990        0.36590
H          7.38230       -0.13840        1.23410
H          6.07510       -2.07660        2.06600
H          3.58960       -2.00120        2.04270
H         -0.19730       -1.34470        1.89790
H         -1.28170       -1.32990        4.11100
H         -1.65040       -0.33170        7.60310
H         -1.32800       -1.66500        6.43620
H         -2.33130       -0.24430        5.93750
H          1.73340        1.39520        5.57760
H          2.82420        1.37320        3.33230
H          2.57190        0.86870       -1.58410
H          2.55660       -0.89440       -1.57940
H          0.61760        0.89710       -2.93890
H          0.61470       -0.86790       -2.96190
