37
rmsd37.gzmat
O          0.00000        0.00000        0.00000
C          1.38130        0.00000        0.00000
C          2.04500        0.00000        1.16640
C          3.51620       -0.01460        1.15870
C          4.23080        1.12960        0.79650
C          5.62330        1.10630        0.80130
C          6.30160       -0.05410        1.17090
C          5.58710       -1.19300        1.53970
C          4.19480       -1.17680        1.53300
C          1.39740        0.00760        2.47550
C          0.22780       -0.72140        2.70180
C         -0.38200       -0.71820        3.95490
C          0.19770        0.02770        4.97910
O         -0.27460        0.13080        6.25030
C         -1.46690       -0.57700        6.55810
C          1.37400        0.76880        4.77670
C          1.96410        0.75070        3.52430
C          1.91940       -0.00710       -1.39950
C          0.66730        0.00920       -2.28450
C         -0.47890       -0.00500       -1.30790
O         -1.65800       -0.02400       -1.48960
H          3.69780        2.03790        0.52270
H          6.18220        1.99630        0.51970
H          7.38900       -0.06900        1.17720
H          6.11820       -2.09440        1.83940
H          3.63080       -2.06160        1.82550
H         -0.21820       -1.30210        1.89210
H         -1.29200       -1.28680        4.11060
H         -1.63000       -0.31050        7.61100
H         -1.31620       -1.65580        6.45530
H         -2.30090       -0.22690        5.94170
H          1.79990        1.34050        5.59650
H          2.87830        1.31970        3.34870
H          2.57690        0.86460       -1.58460
H          2.55320       -0.89740       -1.58070
H          0.61610        0.90460       -2.93280
H          0.61520       -0.86030       -2.96650
