rmsd13.gzmat
 OpenBabel08211713393D

 37 39  0  0  0  0  0  0  0  0999 V2000
    0.0000    0.0000    0.0000 O   0  0  0  0  0  0  0  0  0  0  0  0
    1.3815    0.0000    0.0000 C   0  0  0  0  0  0  0  0  0  0  0  0
    2.0408    0.0000    1.1682 C   0  0  0  0  0  0  0  0  0  0  0  0
    3.5112    0.0194    1.1788 C   0  0  0  0  0  0  0  0  0  0  0  0
    4.2362   -1.1163    0.8103 C   0  0  0  0  0  0  0  0  0  0  0  0
    5.6284   -1.0869    0.8357 C   0  0  0  0  0  0  0  0  0  0  0  0
    6.2962    0.0723    1.2268 C   0  0  0  0  0  0  0  0  0  0  0  0
    5.5715    1.2035    1.5999 C   0  0  0  0  0  0  0  0  0  0  0  0
    4.1795    1.1794    1.5792 C   0  0  0  0  0  0  0  0  0  0  0  0
    1.3837   -0.0108    2.4730 C   0  0  0  0  0  0  0  0  0  0  0  0
    1.9044   -0.8149    3.4997 C   0  0  0  0  0  0  0  0  0  0  0  0
    1.3160   -0.8270    4.7529 C   0  0  0  0  0  0  0  0  0  0  0  0
    0.1869   -0.0212    4.9759 C   0  0  0  0  0  0  0  0  0  0  0  0
   -0.2878   -0.1268    6.2462 O   0  0  0  0  0  0  0  0  0  0  0  0
   -1.4120    0.6711    6.5877 C   0  0  0  0  0  0  0  0  0  0  0  0
   -0.3505    0.7806    3.9710 C   0  0  0  0  0  0  0  0  0  0  0  0
    0.2576    0.7779    2.7167 C   0  0  0  0  0  0  0  0  0  0  0  0
    1.9202    0.0037   -1.3991 C   0  0  0  0  0  0  0  0  0  0  0  0
    0.6687   -0.0329   -2.2845 C   0  0  0  0  0  0  0  0  0  0  0  0
   -0.4779   -0.0137   -1.3081 C   0  0  0  0  0  0  0  0  0  0  0  0
   -1.6570   -0.0034   -1.4905 O   0  0  0  0  0  0  0  0  0  0  0  0
    3.7122   -2.0242    0.5193 H   0  0  0  0  0  0  0  0  0  0  0  0
    6.1948   -1.9721    0.5550 H   0  0  0  0  0  0  0  0  0  0  0  0
    7.3832    0.0921    1.2476 H   0  0  0  0  0  0  0  0  0  0  0  0
    6.0933    2.1053    1.9135 H   0  0  0  0  0  0  0  0  0  0  0  0
    3.6082    2.0564    1.8811 H   0  0  0  0  0  0  0  0  0  0  0  0
    2.7817   -1.4330    3.3042 H   0  0  0  0  0  0  0  0  0  0  0  0
    1.7074   -1.4408    5.5593 H   0  0  0  0  0  0  0  0  0  0  0  0
   -1.5785    0.3995    7.6390 H   0  0  0  0  0  0  0  0  0  0  0  0
   -2.2828    0.4009    5.9820 H   0  0  0  0  0  0  0  0  0  0  0  0
   -1.1754    1.7361    6.5007 H   0  0  0  0  0  0  0  0  0  0  0  0
   -1.2258    1.3964    4.1426 H   0  0  0  0  0  0  0  0  0  0  0  0
   -0.1517    1.4014    1.9198 H   0  0  0  0  0  0  0  0  0  0  0  0
    2.5439    0.8998   -1.5856 H   0  0  0  0  0  0  0  0  0  0  0  0
    2.5879   -0.8621   -1.5759 H   0  0  0  0  0  0  0  0  0  0  0  0
    0.6091    0.8270   -2.9779 H   0  0  0  0  0  0  0  0  0  0  0  0
    0.6245   -0.9370   -2.9212 H   0  0  0  0  0  0  0  0  0  0  0  0
  2  1  1  0  0  0  0
  2  3  2  0  0  0  0
  3  4  1  0  0  0  0
  3 10  1  0  0  0  0
  4  9  2  0  0  0  0
  5  6  2  0  0  0  0
  5  4  1  0  0  0  0
  6  7  1  0  0  0  0
  7 24  1  0  0  0  0
  7  8  2  0  0  0  0
  8 25  1  0  0  0  0
  9  8  1  0  0  0  0
  9 26  1  0  0  0  0
 10 17  2  0  0  0  0
 10 11  1  0  0  0  0
 11 12  2  0  0  0  0
 12 13  1  0  0  0  0
 12 28  1  0  0  0  0
 13 14  1  0  0  0  0
 14 15  1  0  0  0  0
 15 29  1  0  0  0  0
 16 32  1  0  0  0  0
 16 13  2  0  0  0  0
 17 16  1  0  0  0  0
 18  2  1  0  0  0  0
 19 18  1  0  0  0  0
 19 20  1  0  0  0  0
 20  1  1  0  0  0  0
 21 20  2  0  0  0  0
 22  5  1  0  0  0  0
 23  6  1  0  0  0  0
 27 11  1  0  0  0  0
 30 15  1  0  0  0  0
 31 15  1  0  0  0  0
 33 17  1  0  0  0  0
 34 18  1  0  0  0  0
 35 18  1  0  0  0  0
 36 19  1  0  0  0  0
 37 19  1  0  0  0  0
M  END
$$$$
