rmsd14.gzmat
 OpenBabel08211713393D

 37 39  0  0  0  0  0  0  0  0999 V2000
    0.0000    0.0000    0.0000 O   0  0  0  0  0  0  0  0  0  0  0  0
    1.3814    0.0000    0.0000 C   0  0  0  0  0  0  0  0  0  0  0  0
    2.0427    0.0000    1.1673 C   0  0  0  0  0  0  0  0  0  0  0  0
    3.5140    0.0027    1.1668 C   0  0  0  0  0  0  0  0  0  0  0  0
    4.2012    1.1918    1.4210 C   0  0  0  0  0  0  0  0  0  0  0  0
    5.5937    1.1949    1.4403 C   0  0  0  0  0  0  0  0  0  0  0  0
    6.2986    0.0142    1.2103 C   0  0  0  0  0  0  0  0  0  0  0  0
    5.6108   -1.1727    0.9605 C   0  0  0  0  0  0  0  0  0  0  0  0
    4.2185   -1.1812    0.9360 C   0  0  0  0  0  0  0  0  0  0  0  0
    1.3923    0.0008    2.4751 C   0  0  0  0  0  0  0  0  0  0  0  0
    1.9553   -0.7365    3.5296 C   0  0  0  0  0  0  0  0  0  0  0  0
    1.3642   -0.7435    4.7815 C   0  0  0  0  0  0  0  0  0  0  0  0
    0.1890    0.0013    4.9779 C   0  0  0  0  0  0  0  0  0  0  0  0
   -0.2807   -0.0861    6.2514 O   0  0  0  0  0  0  0  0  0  0  0  0
   -1.4978    0.5865    6.5405 C   0  0  0  0  0  0  0  0  0  0  0  0
   -0.3895    0.7388    3.9471 C   0  0  0  0  0  0  0  0  0  0  0  0
    0.2232    0.7328    2.6952 C   0  0  0  0  0  0  0  0  0  0  0  0
    1.9194    0.0034   -1.3993 C   0  0  0  0  0  0  0  0  0  0  0  0
    0.6668    0.0154   -2.2846 C   0  0  0  0  0  0  0  0  0  0  0  0
   -0.4790    0.0075   -1.3074 C   0  0  0  0  0  0  0  0  0  0  0  0
   -1.6585    0.0142   -1.4874 O   0  0  0  0  0  0  0  0  0  0  0  0
    3.6454    2.1085    1.6125 H   0  0  0  0  0  0  0  0  0  0  0  0
    6.1313    2.1193    1.6418 H   0  0  0  0  0  0  0  0  0  0  0  0
    7.3858    0.0178    1.2320 H   0  0  0  0  0  0  0  0  0  0  0  0
    6.1627   -2.0945    0.7889 H   0  0  0  0  0  0  0  0  0  0  0  0
    3.6778   -2.1072    0.7489 H   0  0  0  0  0  0  0  0  0  0  0  0
    2.8675   -1.3100    3.3582 H   0  0  0  0  0  0  0  0  0  0  0  0
    1.7879   -1.3102    5.6058 H   0  0  0  0  0  0  0  0  0  0  0  0
   -1.6501    0.3458    7.6015 H   0  0  0  0  0  0  0  0  0  0  0  0
   -2.3184    0.1862    5.9363 H   0  0  0  0  0  0  0  0  0  0  0  0
   -1.3896    1.6668    6.4041 H   0  0  0  0  0  0  0  0  0  0  0  0
   -1.2991    1.3088    4.0965 H   0  0  0  0  0  0  0  0  0  0  0  0
   -0.2204    1.3098    1.8817 H   0  0  0  0  0  0  0  0  0  0  0  0
    2.5709    0.8813   -1.5776 H   0  0  0  0  0  0  0  0  0  0  0  0
    2.5588   -0.8816   -1.5860 H   0  0  0  0  0  0  0  0  0  0  0  0
    0.6163    0.9062   -2.9391 H   0  0  0  0  0  0  0  0  0  0  0  0
    0.6137   -0.8586   -2.9608 H   0  0  0  0  0  0  0  0  0  0  0  0
  2  1  1  0  0  0  0
  2  3  2  0  0  0  0
  3 10  1  0  0  0  0
  4  3  1  0  0  0  0
  4  5  2  0  0  0  0
  5  6  1  0  0  0  0
  5 22  1  0  0  0  0
  6 23  1  0  0  0  0
  7 24  1  0  0  0  0
  7  6  2  0  0  0  0
  8  7  1  0  0  0  0
  9  8  2  0  0  0  0
  9  4  1  0  0  0  0
 10 17  2  0  0  0  0
 10 11  1  0  0  0  0
 11 12  2  0  0  0  0
 12 13  1  0  0  0  0
 12 28  1  0  0  0  0
 13 14  1  0  0  0  0
 14 15  1  0  0  0  0
 15 29  1  0  0  0  0
 16 32  1  0  0  0  0
 16 13  2  0  0  0  0
 17 16  1  0  0  0  0
 18  2  1  0  0  0  0
 19 18  1  0  0  0  0
 19 20  1  0  0  0  0
 20  1  1  0  0  0  0
 21 20  2  0  0  0  0
 25  8  1  0  0  0  0
 26  9  1  0  0  0  0
 27 11  1  0  0  0  0
 30 15  1  0  0  0  0
 31 15  1  0  0  0  0
 33 17  1  0  0  0  0
 34 18  1  0  0  0  0
 35 18  1  0  0  0  0
 36 19  1  0  0  0  0
 37 19  1  0  0  0  0
M  END
$$$$
