rmsd42.gzmat
 OpenBabel08211713393D

 37 39  0  0  0  0  0  0  0  0999 V2000
    0.0000    0.0000    0.0000 O   0  0  0  0  0  0  0  0  0  0  0  0
    1.3811    0.0000    0.0000 C   0  0  0  0  0  0  0  0  0  0  0  0
    2.0453    0.0000    1.1663 C   0  0  0  0  0  0  0  0  0  0  0  0
    3.5169   -0.0146    1.1487 C   0  0  0  0  0  0  0  0  0  0  0  0
    4.2248    1.1617    1.4035 C   0  0  0  0  0  0  0  0  0  0  0  0
    5.6174    1.1470    1.3872 C   0  0  0  0  0  0  0  0  0  0  0  0
    6.3021   -0.0367    1.1160 C   0  0  0  0  0  0  0  0  0  0  0  0
    5.5937   -1.2119    0.8692 C   0  0  0  0  0  0  0  0  0  0  0  0
    4.2014   -1.2042    0.8876 C   0  0  0  0  0  0  0  0  0  0  0  0
    1.3996    0.0067    2.4757 C   0  0  0  0  0  0  0  0  0  0  0  0
    0.2049    0.6996    2.6867 C   0  0  0  0  0  0  0  0  0  0  0  0
   -0.4125    0.6943    3.9360 C   0  0  0  0  0  0  0  0  0  0  0  0
    0.1889   -0.0107    4.9762 C   0  0  0  0  0  0  0  0  0  0  0  0
   -0.2860   -0.1089    6.2468 O   0  0  0  0  0  0  0  0  0  0  0  0
   -1.5115    0.5488    6.5340 C   0  0  0  0  0  0  0  0  0  0  0  0
    1.3951   -0.7077    4.7928 C   0  0  0  0  0  0  0  0  0  0  0  0
    1.9898   -0.6916    3.5426 C   0  0  0  0  0  0  0  0  0  0  0  0
    1.9189    0.0056   -1.3995 C   0  0  0  0  0  0  0  0  0  0  0  0
    0.6661    0.0123   -2.2842 C   0  0  0  0  0  0  0  0  0  0  0  0
   -0.4794    0.0100   -1.3070 C   0  0  0  0  0  0  0  0  0  0  0  0
   -1.6590    0.0226   -1.4860 O   0  0  0  0  0  0  0  0  0  0  0  0
    3.6850    2.0823    1.6190 H   0  0  0  0  0  0  0  0  0  0  0  0
    6.1714    2.0614    1.5905 H   0  0  0  0  0  0  0  0  0  0  0  0
    7.3896   -0.0442    1.1010 H   0  0  0  0  0  0  0  0  0  0  0  0
    6.1287   -2.1372    0.6648 H   0  0  0  0  0  0  0  0  0  0  0  0
    3.6443   -2.1218    0.7079 H   0  0  0  0  0  0  0  0  0  0  0  0
   -0.2574    1.2569    1.8699 H   0  0  0  0  0  0  0  0  0  0  0  0
   -1.3445    1.2300    4.0759 H   0  0  0  0  0  0  0  0  0  0  0  0
   -1.6672    0.2991    7.5920 H   0  0  0  0  0  0  0  0  0  0  0  0
   -2.3254    0.1458    5.9229 H   0  0  0  0  0  0  0  0  0  0  0  0
   -1.4123    1.6310    6.4076 H   0  0  0  0  0  0  0  0  0  0  0  0
    1.8392   -1.2451    5.6259 H   0  0  0  0  0  0  0  0  0  0  0  0
    2.9273   -1.2266    3.3822 H   0  0  0  0  0  0  0  0  0  0  0  0
    2.5652    0.8876   -1.5770 H   0  0  0  0  0  0  0  0  0  0  0  0
    2.5634   -0.8753   -1.5870 H   0  0  0  0  0  0  0  0  0  0  0  0
    0.6151    0.8989   -2.9439 H   0  0  0  0  0  0  0  0  0  0  0  0
    0.6132   -0.8662   -2.9546 H   0  0  0  0  0  0  0  0  0  0  0  0
  2  1  1  0  0  0  0
  2  3  2  0  0  0  0
  3 10  1  0  0  0  0
  4  3  1  0  0  0  0
  4  5  2  0  0  0  0
  5 22  1  0  0  0  0
  6  5  1  0  0  0  0
  6 23  1  0  0  0  0
  7  6  2  0  0  0  0
  8  9  2  0  0  0  0
  8  7  1  0  0  0  0
  9  4  1  0  0  0  0
 10 11  2  0  0  0  0
 10 17  1  0  0  0  0
 11 12  1  0  0  0  0
 12 28  1  0  0  0  0
 12 13  2  0  0  0  0
 13 14  1  0  0  0  0
 14 15  1  0  0  0  0
 15 29  1  0  0  0  0
 16 13  1  0  0  0  0
 16 32  1  0  0  0  0
 17 16  2  0  0  0  0
 18  2  1  0  0  0  0
 19 18  1  0  0  0  0
 19 20  1  0  0  0  0
 20  1  1  0  0  0  0
 21 20  2  0  0  0  0
 24  7  1  0  0  0  0
 25  8  1  0  0  0  0
 26  9  1  0  0  0  0
 27 11  1  0  0  0  0
 30 15  1  0  0  0  0
 31 15  1  0  0  0  0
 33 17  1  0  0  0  0
 34 18  1  0  0  0  0
 35 18  1  0  0  0  0
 36 19  1  0  0  0  0
 37 19  1  0  0  0  0
M  END
$$$$
