rmsd38.gzmat
 OpenBabel08211713393D

 37 39  0  0  0  0  0  0  0  0999 V2000
    0.0000    0.0000    0.0000 O   0  0  0  0  0  0  0  0  0  0  0  0
    1.3814    0.0000    0.0000 C   0  0  0  0  0  0  0  0  0  0  0  0
    2.0408    0.0000    1.1688 C   0  0  0  0  0  0  0  0  0  0  0  0
    3.5108   -0.0274    1.1780 C   0  0  0  0  0  0  0  0  0  0  0  0
    4.2459    1.0658    0.7136 C   0  0  0  0  0  0  0  0  0  0  0  0
    5.6379    1.0213    0.7306 C   0  0  0  0  0  0  0  0  0  0  0  0
    6.2954   -0.1079    1.2160 C   0  0  0  0  0  0  0  0  0  0  0  0
    5.5609   -1.1963    1.6847 C   0  0  0  0  0  0  0  0  0  0  0  0
    4.1697   -1.1580    1.6691 C   0  0  0  0  0  0  0  0  0  0  0  0
    1.3821    0.0112    2.4729 C   0  0  0  0  0  0  0  0  0  0  0  0
    0.2299   -0.7434    2.7024 C   0  0  0  0  0  0  0  0  0  0  0  0
   -0.3859   -0.7404    3.9526 C   0  0  0  0  0  0  0  0  0  0  0  0
    0.1697    0.0334    4.9694 C   0  0  0  0  0  0  0  0  0  0  0  0
   -0.3097    0.1381    6.2378 O   0  0  0  0  0  0  0  0  0  0  0  0
   -1.4900   -0.5886    6.5473 C   0  0  0  0  0  0  0  0  0  0  0  0
    1.3274    0.8024    4.7626 C   0  0  0  0  0  0  0  0  0  0  0  0
    1.9244    0.7833    3.5134 C   0  0  0  0  0  0  0  0  0  0  0  0
    1.9191   -0.0066   -1.3994 C   0  0  0  0  0  0  0  0  0  0  0  0
    0.6672    0.0056   -2.2850 C   0  0  0  0  0  0  0  0  0  0  0  0
   -0.4790   -0.0021   -1.3076 C   0  0  0  0  0  0  0  0  0  0  0  0
   -1.6585   -0.0146   -1.4877 O   0  0  0  0  0  0  0  0  0  0  0  0
    3.7303    1.9533    0.3523 H   0  0  0  0  0  0  0  0  0  0  0  0
    6.2131    1.8699    0.3659 H   0  0  0  0  0  0  0  0  0  0  0  0
    7.3823   -0.1384    1.2341 H   0  0  0  0  0  0  0  0  0  0  0  0
    6.0751   -2.0766    2.0660 H   0  0  0  0  0  0  0  0  0  0  0  0
    3.5896   -2.0012    2.0427 H   0  0  0  0  0  0  0  0  0  0  0  0
   -0.1973   -1.3447    1.8979 H   0  0  0  0  0  0  0  0  0  0  0  0
   -1.2817   -1.3299    4.1110 H   0  0  0  0  0  0  0  0  0  0  0  0
   -1.6504   -0.3317    7.6031 H   0  0  0  0  0  0  0  0  0  0  0  0
   -1.3280   -1.6650    6.4362 H   0  0  0  0  0  0  0  0  0  0  0  0
   -2.3313   -0.2443    5.9375 H   0  0  0  0  0  0  0  0  0  0  0  0
    1.7334    1.3952    5.5776 H   0  0  0  0  0  0  0  0  0  0  0  0
    2.8242    1.3732    3.3323 H   0  0  0  0  0  0  0  0  0  0  0  0
    2.5719    0.8687   -1.5841 H   0  0  0  0  0  0  0  0  0  0  0  0
    2.5566   -0.8944   -1.5794 H   0  0  0  0  0  0  0  0  0  0  0  0
    0.6176    0.8971   -2.9389 H   0  0  0  0  0  0  0  0  0  0  0  0
    0.6147   -0.8679   -2.9619 H   0  0  0  0  0  0  0  0  0  0  0  0
  2  1  1  0  0  0  0
  2  3  2  0  0  0  0
  3  4  1  0  0  0  0
  3 10  1  0  0  0  0
  4  9  2  0  0  0  0
  5  6  2  0  0  0  0
  5  4  1  0  0  0  0
  6  7  1  0  0  0  0
  7 24  1  0  0  0  0
  7  8  2  0  0  0  0
  8 25  1  0  0  0  0
  9  8  1  0  0  0  0
  9 26  1  0  0  0  0
 10 11  2  0  0  0  0
 10 17  1  0  0  0  0
 11 12  1  0  0  0  0
 12 28  1  0  0  0  0
 12 13  2  0  0  0  0
 13 14  1  0  0  0  0
 14 15  1  0  0  0  0
 15 29  1  0  0  0  0
 16 13  1  0  0  0  0
 16 32  1  0  0  0  0
 17 16  2  0  0  0  0
 18  2  1  0  0  0  0
 19 18  1  0  0  0  0
 19 20  1  0  0  0  0
 20  1  1  0  0  0  0
 21 20  2  0  0  0  0
 22  5  1  0  0  0  0
 23  6  1  0  0  0  0
 27 11  1  0  0  0  0
 30 15  1  0  0  0  0
 31 15  1  0  0  0  0
 33 17  1  0  0  0  0
 34 18  1  0  0  0  0
 35 18  1  0  0  0  0
 36 19  1  0  0  0  0
 37 19  1  0  0  0  0
M  END
$$$$
