rmsd26.gzmat
 OpenBabel08211713363D

 41 42  0  0  1  0  0  0  0  0999 V2000
    0.0000    0.0000    0.0000 O   0  0  0  0  0  0  0  0  0  0  0  0
    1.2145    0.0000    0.0000 C   0  0  0  0  0  0  0  0  0  0  0  0
    1.9459    0.0000    1.1591 N   0  0  0  0  0  0  0  0  0  0  0  0
    3.4043   -0.1537    1.1932 C   0  0  0  0  0  0  0  0  0  0  0  0
    3.8935   -1.4403    0.5796 C   0  0  0  0  0  0  0  0  0  0  0  0
    4.9021   -1.4013   -0.3849 C   0  0  0  0  0  0  0  0  0  0  0  0
    5.3772   -2.5859   -0.9434 C   0  0  0  0  0  0  0  0  0  0  0  0
    4.8501   -3.8105   -0.5369 C   0  0  0  0  0  0  0  0  0  0  0  0
    3.8531   -3.8501    0.4362 C   0  0  0  0  0  0  0  0  0  0  0  0
    3.3754   -2.6669    0.9957 C   0  0  0  0  0  0  0  0  0  0  0  0
    1.2356   -0.1533    2.4354 C   0  0  0  0  0  0  0  0  0  0  0  0
    1.9611    0.0419   -1.3035 C   0  0  0  0  0  0  0  0  0  0  0  0
    2.5152    1.2402   -1.7599 C   0  0  2  0  0  0  0  0  0  0  0  0
    2.3554    2.5071   -1.0200 C   0  0  0  0  0  0  0  0  0  0  0  0
    3.2161    1.2073   -2.9807 C   0  0  0  0  0  0  0  0  0  0  0  0
    3.3257    0.0269   -3.6884 C   0  0  0  0  0  0  0  0  0  0  0  0
    2.7254   -1.1217   -3.2397 N   0  0  0  0  0  0  0  0  0  0  0  0
    2.8803   -2.3537   -4.0249 C   0  0  0  0  0  0  0  0  0  0  0  0
    2.0084   -1.1316   -2.0682 C   0  0  0  0  0  0  0  0  0  0  0  0
    1.3107   -2.3737   -1.6655 C   0  0  0  0  0  0  0  0  0  0  0  0
    3.7536   -0.1047    2.2594 H   0  0  0  0  0  0  0  0  0  0  0  0
    3.8704    0.7304    0.6936 H   0  0  0  0  0  0  0  0  0  0  0  0
    5.3421   -0.4513   -0.6833 H   0  0  0  0  0  0  0  0  0  0  0  0
    6.1828   -2.5559   -1.6773 H   0  0  0  0  0  0  0  0  0  0  0  0
    5.2376   -4.7393   -0.9586 H   0  0  0  0  0  0  0  0  0  0  0  0
    3.4625   -4.8104    0.7797 H   0  0  0  0  0  0  0  0  0  0  0  0
    2.6071   -2.7036    1.7690 H   0  0  0  0  0  0  0  0  0  0  0  0
    0.1463    0.0212    2.3043 H   0  0  0  0  0  0  0  0  0  0  0  0
    1.6051    0.5916    3.1634 H   0  0  0  0  0  0  0  0  0  0  0  0
    1.3655   -1.1659    2.8534 H   0  0  0  0  0  0  0  0  0  0  0  0
    2.5226    2.4059    0.0685 H   0  0  0  0  0  0  0  0  0  0  0  0
    1.3145    2.8888   -1.1123 H   0  0  0  0  0  0  0  0  0  0  0  0
    3.0152    3.3166   -1.3716 H   0  0  0  0  0  0  0  0  0  0  0  0
    3.6768    2.1225   -3.3727 H   0  0  0  0  0  0  0  0  0  0  0  0
    3.8880   -0.0270   -4.6357 H   0  0  0  0  0  0  0  0  0  0  0  0
    3.2806   -3.1763   -3.3949 H   0  0  0  0  0  0  0  0  0  0  0  0
    3.5837   -2.2208   -4.8699 H   0  0  0  0  0  0  0  0  0  0  0  0
    1.9082   -2.6792   -4.4519 H   0  0  0  0  0  0  0  0  0  0  0  0
    0.4912   -2.1829   -0.9356 H   0  0  0  0  0  0  0  0  0  0  0  0
    1.9939   -3.0920   -1.1673 H   0  0  0  0  0  0  0  0  0  0  0  0
    0.8174   -2.9060   -2.4969 H   0  0  0  0  0  0  0  0  0  0  0  0
  1  2  2  0  0  0  0
  2  3  1  0  0  0  0
  3  4  1  0  0  0  0
  3 11  1  0  0  0  0
  4 21  1  0  0  0  0
  5 10  1  0  0  0  0
  5  4  1  0  0  0  0
  6  5  2  0  0  0  0
  7  8  2  0  0  0  0
  7  6  1  0  0  0  0
  8  9  1  0  0  0  0
  9 26  1  0  0  0  0
  9 10  2  0  0  0  0
 10 27  1  0  0  0  0
 11 30  1  0  0  0  0
 11 29  1  0  0  0  0
 12  2  1  0  0  0  0
 13 12  1  0  0  0  0
 13 14  1  6  0  0  0
 14 31  1  0  0  0  0
 15 13  1  0  0  0  0
 16 17  1  0  0  0  0
 16 15  2  0  0  0  0
 17 19  1  0  0  0  0
 18 36  1  0  0  0  0
 18 17  1  0  0  0  0
 19 20  1  0  0  0  0
 19 12  2  0  0  0  0
 20 40  1  0  0  0  0
 20 39  1  0  0  0  0
 22  4  1  0  0  0  0
 23  6  1  0  0  0  0
 24  7  1  0  0  0  0
 25  8  1  0  0  0  0
 28 11  1  0  0  0  0
 32 14  1  0  0  0  0
 33 14  1  0  0  0  0
 34 15  1  0  0  0  0
 35 16  1  0  0  0  0
 37 18  1  0  0  0  0
 38 18  1  0  0  0  0
 41 20  1  0  0  0  0
M  END
$$$$
