rmsd25.gzmat
 OpenBabel08211713363D

 41 42  0  0  1  0  0  0  0  0999 V2000
    0.0000    0.0000    0.0000 O   0  0  0  0  0  0  0  0  0  0  0  0
    1.2146    0.0000    0.0000 C   0  0  0  0  0  0  0  0  0  0  0  0
    1.9440    0.0000    1.1601 N   0  0  0  0  0  0  0  0  0  0  0  0
    3.4037   -0.1390    1.1971 C   0  0  0  0  0  0  0  0  0  0  0  0
    3.9075   -1.4058    0.5551 C   0  0  0  0  0  0  0  0  0  0  0  0
    4.9402   -1.3360   -0.3815 C   0  0  0  0  0  0  0  0  0  0  0  0
    5.4319   -2.5020   -0.9639 C   0  0  0  0  0  0  0  0  0  0  0  0
    4.8881   -3.7381   -0.6199 C   0  0  0  0  0  0  0  0  0  0  0  0
    3.8627   -3.8086    0.3214 C   0  0  0  0  0  0  0  0  0  0  0  0
    3.3776   -2.6450    0.9146 C   0  0  0  0  0  0  0  0  0  0  0  0
    1.2329   -0.1471    2.4362 C   0  0  0  0  0  0  0  0  0  0  0  0
    1.9635    0.0305   -1.3030 C   0  0  0  0  0  0  0  0  0  0  0  0
    2.5612    1.2076   -1.7562 C   0  0  2  0  0  0  0  0  0  0  0  0
    2.4504    2.4884   -1.0306 C   0  0  0  0  0  0  0  0  0  0  0  0
    3.2704    1.1494   -2.9724 C   0  0  0  0  0  0  0  0  0  0  0  0
    3.3512   -0.0354   -3.6753 C   0  0  0  0  0  0  0  0  0  0  0  0
    2.7047   -1.1615   -3.2325 N   0  0  0  0  0  0  0  0  0  0  0  0
    2.8270   -2.3988   -4.0154 C   0  0  0  0  0  0  0  0  0  0  0  0
    1.9752   -1.1444   -2.0698 C   0  0  0  0  0  0  0  0  0  0  0  0
    1.2266   -2.3580   -1.6719 C   0  0  0  0  0  0  0  0  0  0  0  0
    3.7493   -0.1115    2.2649 H   0  0  0  0  0  0  0  0  0  0  0  0
    3.8611    0.7620    0.7192 H   0  0  0  0  0  0  0  0  0  0  0  0
    5.3853   -0.3768   -0.6404 H   0  0  0  0  0  0  0  0  0  0  0  0
    6.2610   -2.4469   -1.6692 H   0  0  0  0  0  0  0  0  0  0  0  0
    5.2853   -4.6523   -1.0637 H   0  0  0  0  0  0  0  0  0  0  0  0
    3.4564   -4.7790    0.6137 H   0  0  0  0  0  0  0  0  0  0  0  0
    2.5940   -2.7062    1.6708 H   0  0  0  0  0  0  0  0  0  0  0  0
    0.1463    0.0436    2.3056 H   0  0  0  0  0  0  0  0  0  0  0  0
    1.6131    0.5894    3.1673 H   0  0  0  0  0  0  0  0  0  0  0  0
    1.3499   -1.1629    2.8506 H   0  0  0  0  0  0  0  0  0  0  0  0
    2.2066    2.3803    0.0415 H   0  0  0  0  0  0  0  0  0  0  0  0
    1.6277    3.1069   -1.4506 H   0  0  0  0  0  0  0  0  0  0  0  0
    3.3615    3.1073   -1.0917 H   0  0  0  0  0  0  0  0  0  0  0  0
    3.7610    2.0498   -3.3623 H   0  0  0  0  0  0  0  0  0  0  0  0
    3.9268   -0.1111   -4.6126 H   0  0  0  0  0  0  0  0  0  0  0  0
    3.2184   -3.2265   -3.3865 H   0  0  0  0  0  0  0  0  0  0  0  0
    3.5215   -2.2809   -4.8700 H   0  0  0  0  0  0  0  0  0  0  0  0
    1.8445   -2.7074   -4.4312 H   0  0  0  0  0  0  0  0  0  0  0  0
    1.8632   -3.0744   -1.1136 H   0  0  0  0  0  0  0  0  0  0  0  0
    0.7670   -2.9078   -2.5104 H   0  0  0  0  0  0  0  0  0  0  0  0
    0.3731   -2.1241   -0.9943 H   0  0  0  0  0  0  0  0  0  0  0  0
  1  2  2  0  0  0  0
  2  3  1  0  0  0  0
  3  4  1  0  0  0  0
  3 11  1  0  0  0  0
  4 21  1  0  0  0  0
  5 10  1  0  0  0  0
  5  4  1  0  0  0  0
  6  5  2  0  0  0  0
  7  8  2  0  0  0  0
  7  6  1  0  0  0  0
  8  9  1  0  0  0  0
  9 26  1  0  0  0  0
  9 10  2  0  0  0  0
 10 27  1  0  0  0  0
 11 30  1  0  0  0  0
 11 29  1  0  0  0  0
 12  2  1  0  0  0  0
 13 12  1  0  0  0  0
 13 14  1  6  0  0  0
 14 31  1  0  0  0  0
 15 13  1  0  0  0  0
 16 17  1  0  0  0  0
 16 15  2  0  0  0  0
 17 19  1  0  0  0  0
 18 36  1  0  0  0  0
 18 17  1  0  0  0  0
 19 20  1  0  0  0  0
 19 12  2  0  0  0  0
 20 39  1  0  0  0  0
 20 41  1  0  0  0  0
 22  4  1  0  0  0  0
 23  6  1  0  0  0  0
 24  7  1  0  0  0  0
 25  8  1  0  0  0  0
 28 11  1  0  0  0  0
 32 14  1  0  0  0  0
 33 14  1  0  0  0  0
 34 15  1  0  0  0  0
 35 16  1  0  0  0  0
 37 18  1  0  0  0  0
 38 18  1  0  0  0  0
 40 20  1  0  0  0  0
M  END
$$$$
