rmsd16.gzmat
 OpenBabel08211713363D

 41 42  0  0  1  0  0  0  0  0999 V2000
    0.0000    0.0000    0.0000 O   0  0  0  0  0  0  0  0  0  0  0  0
    1.2151    0.0000    0.0000 C   0  0  0  0  0  0  0  0  0  0  0  0
    1.9442    0.0000    1.1574 N   0  0  0  0  0  0  0  0  0  0  0  0
    3.4081    0.0741    1.2003 C   0  0  0  0  0  0  0  0  0  0  0  0
    3.9565    1.3322    0.5783 C   0  0  0  0  0  0  0  0  0  0  0  0
    4.9786    1.2433   -0.3677 C   0  0  0  0  0  0  0  0  0  0  0  0
    5.5026    2.4019   -0.9368 C   0  0  0  0  0  0  0  0  0  0  0  0
    5.0078    3.6497   -0.5623 C   0  0  0  0  0  0  0  0  0  0  0  0
    3.9967    3.7388    0.3927 C   0  0  0  0  0  0  0  0  0  0  0  0
    3.4735    2.5821    0.9663 C   0  0  0  0  0  0  0  0  0  0  0  0
    1.2372    0.0598    2.4422 C   0  0  0  0  0  0  0  0  0  0  0  0
    1.9616   -0.0039   -1.3045 C   0  0  0  0  0  0  0  0  0  0  0  0
    2.5379   -1.1789   -1.7890 C   0  0  1  0  0  0  0  0  0  0  0  0
    2.4101   -2.4740   -1.0919 C   0  0  0  0  0  0  0  0  0  0  0  0
    3.2365   -1.1044   -3.0100 C   0  0  0  0  0  0  0  0  0  0  0  0
    3.3180    0.0920   -3.6932 C   0  0  0  0  0  0  0  0  0  0  0  0
    2.6935    1.2176   -3.2189 N   0  0  0  0  0  0  0  0  0  0  0  0
    2.8023    2.4616   -3.9933 C   0  0  0  0  0  0  0  0  0  0  0  0
    1.9855    1.1882   -2.0431 C   0  0  0  0  0  0  0  0  0  0  0  0
    1.2728    2.4087   -1.6013 C   0  0  0  0  0  0  0  0  0  0  0  0
    3.8344   -0.8354    0.7111 H   0  0  0  0  0  0  0  0  0  0  0  0
    3.7492    0.0196    2.2683 H   0  0  0  0  0  0  0  0  0  0  0  0
    5.3892    0.2742   -0.6456 H   0  0  0  0  0  0  0  0  0  0  0  0
    6.3183    2.3323   -1.6564 H   0  0  0  0  0  0  0  0  0  0  0  0
    5.4307    4.5572   -0.9949 H   0  0  0  0  0  0  0  0  0  0  0  0
    3.6296    4.7172    0.7090 H   0  0  0  0  0  0  0  0  0  0  0  0
    2.6952    2.6545    1.7271 H   0  0  0  0  0  0  0  0  0  0  0  0
    0.1419    0.1641    2.2905 H   0  0  0  0  0  0  0  0  0  0  0  0
    1.5776    0.9197    3.0440 H   0  0  0  0  0  0  0  0  0  0  0  0
    1.4057   -0.8735    3.0111 H   0  0  0  0  0  0  0  0  0  0  0  0
    2.2304   -2.3868   -0.0056 H   0  0  0  0  0  0  0  0  0  0  0  0
    3.2863   -3.1314   -1.2214 H   0  0  0  0  0  0  0  0  0  0  0  0
    1.5363   -3.0412   -1.4817 H   0  0  0  0  0  0  0  0  0  0  0  0
    3.7164   -2.0012   -3.4212 H   0  0  0  0  0  0  0  0  0  0  0  0
    3.8758    0.1771   -4.6406 H   0  0  0  0  0  0  0  0  0  0  0  0
    1.8302    2.7199   -4.4648 H   0  0  0  0  0  0  0  0  0  0  0  0
    3.5531    2.3796   -4.8038 H   0  0  0  0  0  0  0  0  0  0  0  0
    3.1171    3.3088   -3.3483 H   0  0  0  0  0  0  0  0  0  0  0  0
    1.9425    3.1048   -1.0550 H   0  0  0  0  0  0  0  0  0  0  0  0
    0.4401    2.1814   -0.8962 H   0  0  0  0  0  0  0  0  0  0  0  0
    0.7928    2.9763   -2.4160 H   0  0  0  0  0  0  0  0  0  0  0  0
  1  2  2  0  0  0  0
  2  3  1  0  0  0  0
  3  4  1  0  0  0  0
  3 11  1  0  0  0  0
  4 22  1  0  0  0  0
  5 10  1  0  0  0  0
  5  4  1  0  0  0  0
  6  5  2  0  0  0  0
  7  8  2  0  0  0  0
  7  6  1  0  0  0  0
  8  9  1  0  0  0  0
  9 26  1  0  0  0  0
  9 10  2  0  0  0  0
 10 27  1  0  0  0  0
 11 30  1  0  0  0  0
 11 29  1  0  0  0  0
 12  2  1  0  0  0  0
 13 12  1  0  0  0  0
 13 14  1  6  0  0  0
 14 31  1  0  0  0  0
 15 13  1  0  0  0  0
 16 17  1  0  0  0  0
 16 15  2  0  0  0  0
 17 19  1  0  0  0  0
 18 38  1  0  0  0  0
 18 17  1  0  0  0  0
 19 20  1  0  0  0  0
 19 12  2  0  0  0  0
 20 39  1  0  0  0  0
 20 40  1  0  0  0  0
 21  4  1  0  0  0  0
 23  6  1  0  0  0  0
 24  7  1  0  0  0  0
 25  8  1  0  0  0  0
 28 11  1  0  0  0  0
 32 14  1  0  0  0  0
 33 14  1  0  0  0  0
 34 15  1  0  0  0  0
 35 16  1  0  0  0  0
 36 18  1  0  0  0  0
 37 18  1  0  0  0  0
 41 20  1  0  0  0  0
M  END
$$$$
