41
rmsd26.gzmat
O          0.00000        0.00000        0.00000
C          1.21450        0.00000        0.00000
N          1.94590        0.00000        1.15910
C          3.40430       -0.15370        1.19320
C          3.89350       -1.44030        0.57960
C          4.90210       -1.40130       -0.38490
C          5.37720       -2.58590       -0.94340
C          4.85010       -3.81050       -0.53690
C          3.85310       -3.85010        0.43620
C          3.37540       -2.66690        0.99570
C          1.23560       -0.15330        2.43540
C          1.96110        0.04190       -1.30350
C          2.51520        1.24020       -1.75990
C          2.35540        2.50710       -1.02000
C          3.21610        1.20730       -2.98070
C          3.32570        0.02690       -3.68840
N          2.72540       -1.12170       -3.23970
C          2.88030       -2.35370       -4.02490
C          2.00840       -1.13160       -2.06820
C          1.31070       -2.37370       -1.66550
H          3.75360       -0.10470        2.25940
H          3.87040        0.73040        0.69360
H          5.34210       -0.45130       -0.68330
H          6.18280       -2.55590       -1.67730
H          5.23760       -4.73930       -0.95860
H          3.46250       -4.81040        0.77970
H          2.60710       -2.70360        1.76900
H          0.14630        0.02120        2.30430
H          1.60510        0.59160        3.16340
H          1.36550       -1.16590        2.85340
H          2.52260        2.40590        0.06850
H          1.31450        2.88880       -1.11230
H          3.01520        3.31660       -1.37160
H          3.67680        2.12250       -3.37270
H          3.88800       -0.02700       -4.63570
H          3.28060       -3.17630       -3.39490
H          3.58370       -2.22080       -4.86990
H          1.90820       -2.67920       -4.45190
H          0.49120       -2.18290       -0.93560
H          1.99390       -3.09200       -1.16730
H          0.81740       -2.90600       -2.49690
