41
rmsd28.gzmat
O          0.00000        0.00000        0.00000
C          1.21520        0.00000        0.00000
N          1.94310        0.00000        1.15900
C          3.40740       -0.06110        1.20840
C          3.98300       -1.29590        0.56450
C          3.51570       -2.56280        0.91440
C          4.06830       -3.69620        0.32170
C          5.09760       -3.56720       -0.60920
C          5.57950       -2.30240       -0.94230
C          5.02290       -1.16700       -0.35790
C          1.23360       -0.11800        2.43900
C          1.96420        0.00430       -1.30260
C          2.53130        1.18150       -1.79430
C          2.36310        2.48150       -1.11560
C          3.25310        1.09800       -3.00100
C          3.36710       -0.10870       -3.66210
N          2.74450       -1.23440       -3.18590
C          2.89910       -2.49350       -3.92760
C          2.00650       -1.19460       -2.02920
C          1.27420       -2.40700       -1.59820
H          3.74010       -0.02610        2.28050
H          3.82530        0.86510        0.74320
H          2.73020       -2.66710        1.66440
H          3.71190       -4.68830        0.60640
H          5.54580       -4.45690       -1.05410
H          6.41080       -2.20180       -1.64040
H          5.42340       -0.18440       -0.60210
H          0.13410       -0.07080        2.29000
H          1.51310        0.71710        3.10670
H          1.46530       -1.07550        2.93600
H          2.36430        2.41430       -0.01310
H          1.37730        2.92930       -1.37180
H          3.12300        3.23010       -1.39350
H          3.72860        1.99440       -3.41790
H          3.94910       -0.20190       -4.59410
H          3.21870       -3.31620       -3.25330
H          3.66640       -2.41330       -4.72220
H          1.94460       -2.78700       -4.41420
H          0.40190       -2.16180       -0.94860
H          1.91110       -3.08760       -0.99750
H          0.84350       -2.99850       -2.42330
