41
rmsd12.gzmat
O          0.00000        0.00000        0.00000
C          1.21550        0.00000        0.00000
N          1.94170        0.00000        1.15850
C          3.40640        0.02900        1.20810
C          4.00370        1.24310        0.54470
C          3.55020        2.52290        0.86530
C          4.12770        3.63710        0.26040
C          5.16310        3.47550       -0.65890
C          5.62900        2.19800       -0.96440
C          5.05030        1.08210       -0.36430
C          1.23530        0.07680        2.44300
C          1.96450        0.01500       -1.30350
C          2.57200       -1.13970       -1.79620
C          2.48940       -2.44530       -1.10980
C          3.28160       -1.03520       -3.00930
C          3.34940        0.17210       -3.67390
N          2.69460        1.27750       -3.19250
C          2.79690        2.53730       -3.94210
C          1.96800        1.21600       -2.03030
C          1.21340        2.41100       -1.58900
H          3.80390       -0.91280        0.75710
H          3.73940        0.00640        2.28060
H          2.75570        2.65200        1.60190
H          3.78680        4.63930        0.52750
H          5.62910        4.34930       -1.11620
H          6.46460        2.07150       -1.65360
H          5.43790        0.08970       -0.58880
H          0.13520        0.08980        2.29250
H          1.51220        0.99340        2.99210
H          1.47460       -0.80550        3.06450
H          1.84550       -2.44190       -0.21150
H          3.47990       -2.81790       -0.79180
H          2.06530       -3.22690       -1.77200
H          3.78380       -1.91740       -3.42580
H          3.91970        0.28460       -4.61090
H          1.82930        2.78980       -4.42570
H          3.56370        2.48240       -4.73920
H          3.08640        3.37650       -3.27540
H          1.84540        3.10850       -1.00280
H          0.36020        2.14770       -0.92130
H          0.75070        2.98700       -2.40780
