rmsd18.gzmat
 OpenBabel08211713363D

 41 42  0  0  1  0  0  0  0  0999 V2000
    0.0000    0.0000    0.0000 O   0  0  0  0  0  0  0  0  0  0  0  0
    1.2143    0.0000    0.0000 C   0  0  0  0  0  0  0  0  0  0  0  0
    1.9459    0.0000    1.1591 N   0  0  0  0  0  0  0  0  0  0  0  0
    3.4042    0.1524    1.1934 C   0  0  0  0  0  0  0  0  0  0  0  0
    3.9001    1.4384    0.5838 C   0  0  0  0  0  0  0  0  0  0  0  0
    3.3499    2.6642    0.9587 C   0  0  0  0  0  0  0  0  0  0  0  0
    3.8359    3.8453    0.4018 C   0  0  0  0  0  0  0  0  0  0  0  0
    4.8755    3.8043   -0.5257 C   0  0  0  0  0  0  0  0  0  0  0  0
    5.4384    2.5811   -0.8861 C   0  0  0  0  0  0  0  0  0  0  0  0
    4.9535    1.3989   -0.3315 C   0  0  0  0  0  0  0  0  0  0  0  0
    1.2364    0.1415    2.4369 C   0  0  0  0  0  0  0  0  0  0  0  0
    1.9656   -0.0391   -1.3008 C   0  0  0  0  0  0  0  0  0  0  0  0
    2.5267   -1.2349   -1.7552 C   0  0  1  0  0  0  0  0  0  0  0  0
    2.3546   -2.5072   -1.0275 C   0  0  0  0  0  0  0  0  0  0  0  0
    3.2454   -1.1958   -2.9653 C   0  0  0  0  0  0  0  0  0  0  0  0
    3.3658   -0.0116   -3.6655 C   0  0  0  0  0  0  0  0  0  0  0  0
    2.7550    1.1331   -3.2220 N   0  0  0  0  0  0  0  0  0  0  0  0
    2.9193    2.3695   -3.9982 C   0  0  0  0  0  0  0  0  0  0  0  0
    2.0184    1.1359   -2.0626 C   0  0  0  0  0  0  0  0  0  0  0  0
    1.3030    2.3727   -1.6750 C   0  0  0  0  0  0  0  0  0  0  0  0
    3.8685   -0.7320    0.6924 H   0  0  0  0  0  0  0  0  0  0  0  0
    3.7530    0.1023    2.2597 H   0  0  0  0  0  0  0  0  0  0  0  0
    2.5497    2.7007    1.6993 H   0  0  0  0  0  0  0  0  0  0  0  0
    3.4174    4.8056    0.7105 H   0  0  0  0  0  0  0  0  0  0  0  0
    5.2672    4.7306   -0.9476 H   0  0  0  0  0  0  0  0  0  0  0  0
    6.2771    2.5509   -1.5818 H   0  0  0  0  0  0  0  0  0  0  0  0
    5.4203    0.4512   -0.5935 H   0  0  0  0  0  0  0  0  0  0  0  0
    0.1522   -0.0639    2.3102 H   0  0  0  0  0  0  0  0  0  0  0  0
    1.3405    1.1601    2.8483 H   0  0  0  0  0  0  0  0  0  0  0  0
    1.6286   -0.5878    3.1689 H   0  0  0  0  0  0  0  0  0  0  0  0
    2.4285   -2.4036    0.0705 H   0  0  0  0  0  0  0  0  0  0  0  0
    3.0695   -3.2922   -1.3232 H   0  0  0  0  0  0  0  0  0  0  0  0
    1.3389   -2.9250   -1.2055 H   0  0  0  0  0  0  0  0  0  0  0  0
    3.7140   -2.1084   -3.3540 H   0  0  0  0  0  0  0  0  0  0  0  0
    3.9445    0.0472   -4.6025 H   0  0  0  0  0  0  0  0  0  0  0  0
    1.9576    2.6820   -4.4573 H   0  0  0  0  0  0  0  0  0  0  0  0
    3.6547    2.2484   -4.8173 H   0  0  0  0  0  0  0  0  0  0  0  0
    3.2845    3.1971   -3.3539 H   0  0  0  0  0  0  0  0  0  0  0  0
    1.9784    3.1230   -1.2170 H   0  0  0  0  0  0  0  0  0  0  0  0
    0.5072    2.1858   -0.9192 H   0  0  0  0  0  0  0  0  0  0  0  0
    0.7750    2.8633   -2.5116 H   0  0  0  0  0  0  0  0  0  0  0  0
  1  2  2  0  0  0  0
  2  3  1  0  0  0  0
  3  4  1  0  0  0  0
  3 11  1  0  0  0  0
  4 22  1  0  0  0  0
  5  6  1  0  0  0  0
  5  4  1  0  0  0  0
  6 23  1  0  0  0  0
  7 24  1  0  0  0  0
  7  6  2  0  0  0  0
  8  7  1  0  0  0  0
  9  8  2  0  0  0  0
  9 10  1  0  0  0  0
 10  5  2  0  0  0  0
 11 29  1  0  0  0  0
 11 30  1  0  0  0  0
 12  2  1  0  0  0  0
 13 12  1  0  0  0  0
 13 14  1  6  0  0  0
 14 31  1  0  0  0  0
 15 13  1  0  0  0  0
 16 17  1  0  0  0  0
 16 15  2  0  0  0  0
 17 19  1  0  0  0  0
 18 38  1  0  0  0  0
 18 17  1  0  0  0  0
 19 20  1  0  0  0  0
 19 12  2  0  0  0  0
 20 39  1  0  0  0  0
 20 40  1  0  0  0  0
 21  4  1  0  0  0  0
 25  8  1  0  0  0  0
 26  9  1  0  0  0  0
 27 10  1  0  0  0  0
 28 11  1  0  0  0  0
 32 14  1  0  0  0  0
 33 14  1  0  0  0  0
 34 15  1  0  0  0  0
 35 16  1  0  0  0  0
 36 18  1  0  0  0  0
 37 18  1  0  0  0  0
 41 20  1  0  0  0  0
M  END
$$$$
