rmsd73.gzmat
 OpenBabel08211713393D

 38 39  0  0  1  0  0  0  0  0999 V2000
    0.0000    0.0000    0.0000 S   0  0  0  0  0  0  0  0  0  0  0  0
    1.8666    0.0000    0.0000 C   0  0  0  0  0  0  0  0  0  0  0  0
    2.3267    0.0000    1.3873 N   0  0  0  0  0  0  0  0  0  0  0  0
    1.3554    0.7885    2.1945 C   0  0  2  0  0  0  0  0  0  0  0  0
    1.5508    1.8623    1.8949 H   0  0  0  0  0  0  0  0  0  0  0  0
    1.6129    0.6871    3.6966 C   0  0  0  0  0  0  0  0  0  0  0  0
   -0.1134    0.4541    1.7914 C   0  0  2  0  0  0  0  0  0  0  0  0
   -0.7258    1.3815    1.8629 H   0  0  0  0  0  0  0  0  0  0  0  0
   -0.7693   -0.6468    2.6119 C   0  0  0  0  0  0  0  0  0  0  0  0
   -2.2207   -0.9405    2.2012 C   0  0  0  0  0  0  0  0  0  0  0  0
   -2.3123   -2.1741    1.5243 O   0  0  0  0  0  0  0  0  0  0  0  0
    2.6121   -1.3658    1.9039 C   0  0  0  0  0  0  0  0  0  0  0  0
    3.6437   -2.0544    1.0699 C   0  0  1  0  0  0  0  0  0  0  0  0
    4.9108   -1.4693    0.7827 C   0  0  0  0  0  0  0  0  0  0  0  0
    5.8575   -2.1488    0.0651 N   0  0  0  0  0  0  0  0  0  0  0  0
    5.5578   -3.3981   -0.3510 C   0  0  0  0  0  0  0  0  0  0  0  0
    4.3656   -4.0137   -0.1255 N   0  0  0  0  0  0  0  0  0  0  0  0
    3.4318   -3.3412    0.5746 C   0  0  0  0  0  0  0  0  0  0  0  0
    6.6033   -4.1466   -1.1073 C   0  0  0  0  0  0  0  0  0  0  0  0
    5.2711   -0.2262    1.2288 N   0  0  0  0  0  0  0  0  0  0  0  0
    2.2210    0.9278   -0.4973 H   0  0  0  0  0  0  0  0  0  0  0  0
    2.2401   -0.8649   -0.5819 H   0  0  0  0  0  0  0  0  0  0  0  0
    1.4286   -0.3158    4.0984 H   0  0  0  0  0  0  0  0  0  0  0  0
    0.9726    1.3861    4.2486 H   0  0  0  0  0  0  0  0  0  0  0  0
    2.6547    0.9465    3.9330 H   0  0  0  0  0  0  0  0  0  0  0  0
   -0.7552   -0.3630    3.6850 H   0  0  0  0  0  0  0  0  0  0  0  0
   -0.1914   -1.5946    2.5629 H   0  0  0  0  0  0  0  0  0  0  0  0
   -2.6681   -0.1461    1.5798 H   0  0  0  0  0  0  0  0  0  0  0  0
   -2.8677   -1.1094    3.0842 H   0  0  0  0  0  0  0  0  0  0  0  0
   -1.7735   -2.1662    0.7062 H   0  0  0  0  0  0  0  0  0  0  0  0
    1.6916   -1.9889    1.9845 H   0  0  0  0  0  0  0  0  0  0  0  0
    3.0141   -1.2559    2.9425 H   0  0  0  0  0  0  0  0  0  0  0  0
    2.4850   -3.8761    0.7342 H   0  0  0  0  0  0  0  0  0  0  0  0
    6.2014   -5.0722   -1.5505 H   0  0  0  0  0  0  0  0  0  0  0  0
    7.4358   -4.4258   -0.4409 H   0  0  0  0  0  0  0  0  0  0  0  0
    7.0303   -3.5327   -1.9162 H   0  0  0  0  0  0  0  0  0  0  0  0
    4.5399    0.3934    1.5398 H   0  0  0  0  0  0  0  0  0  0  0  0
    6.1405    0.1730    0.9294 H   0  0  0  0  0  0  0  0  0  0  0  0
  1  7  1  0  0  0  0
  2  1  1  0  0  0  0
  2  3  1  0  0  0  0
  3 12  1  0  0  0  0
  3  4  1  0  0  0  0
  4  7  1  0  0  0  0
  4  6  1  0  0  0  0
  4  5  1  6  0  0  0
  6 25  1  0  0  0  0
  6 23  1  0  0  0  0
  6 24  1  0  0  0  0
  7  8  1  1  0  0  0
  7  9  1  0  0  0  0
  9 26  1  0  0  0  0
 10  9  1  0  0  0  0
 10 29  1  0  0  0  0
 11 10  1  0  0  0  0
 12 31  1  0  0  0  0
 12 32  1  0  0  0  0
 13 12  1  1  0  0  0
 14 13  1  0  0  0  0
 14 20  1  0  0  0  0
 15 14  2  0  0  0  0
 16 17  2  0  0  0  0
 16 15  2  0  0  0  0
 17 18  2  0  0  0  0
 18 33  1  0  0  0  0
 18 13  1  0  0  0  0
 19 35  1  0  0  0  0
 19 16  1  0  0  0  0
 20 37  1  0  0  0  0
 21  2  1  0  0  0  0
 22  2  1  0  0  0  0
 27  9  1  0  0  0  0
 28 10  1  0  0  0  0
 30 11  1  0  0  0  0
 34 19  1  0  0  0  0
 36 19  1  0  0  0  0
 38 20  1  0  0  0  0
M  RAD  1  13   2
M  END
$$$$
