38

S         -0.06440        0.02660        0.10440
C          1.80500        0.15550        0.02400
N          2.30300       -0.02240        1.36100
C          1.43460        0.79200        2.22600
H          1.60000        1.82800        1.88560
C          1.80210        0.74330        3.70370
C         -0.06370        0.48490        1.89930
H         -0.64730        1.41130        2.00350
C         -0.75310       -0.58140        2.75390
C         -2.23760       -0.73640        2.42310
O         -2.96230        0.46840        2.57210
C          2.47090       -1.43850        1.72790
C          3.59330       -2.09610        0.97260
C          4.90610       -1.54380        0.93550
N          5.91100       -2.18860        0.33400
C          5.64670       -3.36620       -0.24550
N          4.44710       -3.95270       -0.30090
C          3.44490       -3.30440        0.30870
C          6.80420       -4.07620       -0.89180
N          5.16960       -0.34830        1.53350
H          2.06500        1.15460       -0.35560
H          2.19430       -0.60690       -0.66250
H          1.62260       -0.23930        4.16090
H          1.20460        1.48100        4.26050
H          2.86510        0.99340        3.84000
H         -0.66580       -0.29780        3.81930
H         -0.25770       -1.55880        2.64560
H         -2.66910       -1.55140        3.03750
H         -2.34990       -1.03560        1.36890
H         -2.96080        0.70630        3.50850
H          1.54280       -2.01680        1.56390
H          2.69790       -1.47480        2.80400
H          2.45640       -3.78150        0.27210
H          6.46270       -5.00340       -1.36780
H          7.57260       -4.30980       -0.13730
H          7.28100       -3.42440       -1.64060
H          4.36800        0.27510        1.62700
H          6.08070        0.04910        1.33510
