
     RDKit          3D

 38 39  0  0  0  0  0  0  0  0999 V2000
   -0.0217    0.2709    0.0631 S   0  0  0  0  0  0  0  0  0  0  0  0
    1.8659    0.3300    0.0899 C   0  0  0  0  0  0  0  0  0  0  0  0
    2.2766    0.1426    1.4493 N   0  0  0  0  0  0  0  0  0  0  0  0
    1.3630    0.9560    2.2668 C   0  0  2  0  0  0  0  0  0  0  0  0
    1.5057    1.9877    1.9038 H   0  0  0  0  0  0  0  0  0  0  0  0
    1.6775    0.9603    3.7575 C   0  0  0  0  0  0  0  0  0  0  0  0
   -0.1090    0.5771    1.8968 C   0  0  2  0  0  0  0  0  0  0  0  0
   -0.7362    1.4731    2.0110 H   0  0  0  0  0  0  0  0  0  0  0  0
   -0.7257   -0.5664    2.7327 C   0  0  0  0  0  0  0  0  0  0  0  0
   -1.6682   -1.5275    2.0014 C   0  0  0  0  0  0  0  0  0  0  0  0
   -0.9784   -2.4584    1.1970 O   0  0  0  0  0  0  0  0  0  0  0  0
    2.4141   -1.2816    1.8212 C   0  0  0  0  0  0  0  0  0  0  0  0
    3.5396   -1.9563    1.0884 C   0  0  0  0  0  0  0  0  0  0  0  0
    4.8636   -1.4322    1.0756 C   0  0  0  0  0  0  0  0  0  0  0  0
    5.8640   -2.0949    0.4861 N   0  0  0  0  0  0  0  0  0  0  0  0
    5.5834   -3.2645   -0.1023 C   0  0  0  0  0  0  0  0  0  0  0  0
    4.3732   -3.8268   -0.1765 N   0  0  0  0  0  0  0  0  0  0  0  0
    3.3750   -3.1611    0.4204 C   0  0  0  0  0  0  0  0  0  0  0  0
    6.7354   -3.9960   -0.7345 C   0  0  0  0  0  0  0  0  0  0  0  0
    5.1448   -0.2461    1.6844 N   0  0  0  0  0  0  0  0  0  0  0  0
    2.1611    1.3221   -0.2803 H   0  0  0  0  0  0  0  0  0  0  0  0
    2.2668   -0.4464   -0.5730 H   0  0  0  0  0  0  0  0  0  0  0  0
    1.5240   -0.0157    4.2363 H   0  0  0  0  0  0  0  0  0  0  0  0
    1.0283    1.6851    4.2713 H   0  0  0  0  0  0  0  0  0  0  0  0
    2.7233    1.2603    3.9229 H   0  0  0  0  0  0  0  0  0  0  0  0
   -1.2671   -0.1060    3.5769 H   0  0  0  0  0  0  0  0  0  0  0  0
    0.0601   -1.1906    3.1793 H   0  0  0  0  0  0  0  0  0  0  0  0
   -2.4176   -0.9568    1.4147 H   0  0  0  0  0  0  0  0  0  0  0  0
   -2.2282   -2.1098    2.7505 H   0  0  0  0  0  0  0  0  0  0  0  0
   -0.5924   -1.9406    0.4682 H   0  0  0  0  0  0  0  0  0  0  0  0
    1.4836   -1.8483    1.6428 H   0  0  0  0  0  0  0  0  0  0  0  0
    2.6198   -1.3144    2.9022 H   0  0  0  0  0  0  0  0  0  0  0  0
    2.3776   -3.6181    0.3722 H   0  0  0  0  0  0  0  0  0  0  0  0
    6.3790   -4.9045   -1.2349 H   0  0  0  0  0  0  0  0  0  0  0  0
    7.4774   -4.2665    0.0342 H   0  0  0  0  0  0  0  0  0  0  0  0
    7.2497   -3.3449   -1.4586 H   0  0  0  0  0  0  0  0  0  0  0  0
    4.3596    0.3956    1.7817 H   0  0  0  0  0  0  0  0  0  0  0  0
    6.0685    0.1312    1.5067 H   0  0  0  0  0  0  0  0  0  0  0  0
  1  2  1  0
  1  7  1  0
  2  3  1  0
  2 21  1  0
  2 22  1  0
  3  4  1  0
  3 12  1  0
  4  5  1  6
  4  6  1  0
  4  7  1  0
  6 23  1  0
  6 24  1  0
  6 25  1  0
  7  8  1  6
  7  9  1  0
  9 10  1  0
  9 26  1  0
  9 27  1  0
 10 11  1  0
 10 28  1  0
 10 29  1  0
 11 30  1  0
 12 13  1  0
 12 31  1  0
 12 32  1  0
 13 14  2  0
 13 18  1  0
 14 15  1  0
 14 20  1  0
 15 16  2  0
 16 17  1  0
 16 19  1  0
 17 18  2  0
 18 33  1  0
 19 34  1  0
 19 35  1  0
 19 36  1  0
 20 37  1  0
 20 38  1  0
M  END

