38

S         -0.02170        0.27090        0.06310
C          1.86590        0.33000        0.08990
N          2.27660        0.14260        1.44930
C          1.36300        0.95600        2.26680
H          1.50570        1.98770        1.90380
C          1.67750        0.96030        3.75750
C         -0.10900        0.57710        1.89680
H         -0.73620        1.47310        2.01100
C         -0.72570       -0.56640        2.73270
C         -1.66820       -1.52750        2.00140
O         -0.97840       -2.45840        1.19700
C          2.41410       -1.28160        1.82120
C          3.53960       -1.95630        1.08840
C          4.86360       -1.43220        1.07560
N          5.86400       -2.09490        0.48610
C          5.58340       -3.26450       -0.10230
N          4.37320       -3.82680       -0.17650
C          3.37500       -3.16110        0.42040
C          6.73540       -3.99600       -0.73450
N          5.14480       -0.24610        1.68440
H          2.16110        1.32210       -0.28030
H          2.26680       -0.44640       -0.57300
H          1.52400       -0.01570        4.23630
H          1.02830        1.68510        4.27130
H          2.72330        1.26030        3.92290
H         -1.26710       -0.10600        3.57690
H          0.06010       -1.19060        3.17930
H         -2.41760       -0.95680        1.41470
H         -2.22820       -2.10980        2.75050
H         -0.59240       -1.94060        0.46820
H          1.48360       -1.84830        1.64280
H          2.61980       -1.31440        2.90220
H          2.37760       -3.61810        0.37220
H          6.37900       -4.90450       -1.23490
H          7.47740       -4.26650        0.03420
H          7.24970       -3.34490       -1.45860
H          4.35960        0.39560        1.78170
H          6.06850        0.13120        1.50670
