rmsd45.gzmat
 OpenBabel08211713393D

 38 39  0  0  1  0  0  0  0  0999 V2000
    0.0000    0.0000    0.0000 S   0  0  0  0  0  0  0  0  0  0  0  0
    1.8660    0.0000    0.0000 C   0  0  0  0  0  0  0  0  0  0  0  0
    2.3289    0.0000    1.3875 N   0  0  0  0  0  0  0  0  0  0  0  0
    1.3571    0.7911    2.1931 C   0  0  2  0  0  0  0  0  0  0  0  0
    1.5490    1.8637    1.8872 H   0  0  0  0  0  0  0  0  0  0  0  0
    1.6158    0.7024    3.6959 C   0  0  0  0  0  0  0  0  0  0  0  0
   -0.1104    0.4484    1.7935 C   0  0  2  0  0  0  0  0  0  0  0  0
   -0.7303    1.3701    1.8734 H   0  0  0  0  0  0  0  0  0  0  0  0
   -0.7563   -0.6669    2.5989 C   0  0  0  0  0  0  0  0  0  0  0  0
   -2.2346   -0.8655    2.2331 C   0  0  0  0  0  0  0  0  0  0  0  0
   -2.8057   -1.8196    3.1056 O   0  0  0  0  0  0  0  0  0  0  0  0
    2.6000   -1.3667    1.9109 C   0  0  0  0  0  0  0  0  0  0  0  0
    3.5775   -2.0960    1.0475 C   0  0  1  0  0  0  0  0  0  0  0  0
    4.8597   -1.5631    0.7301 C   0  0  0  0  0  0  0  0  0  0  0  0
    5.7560   -2.2740   -0.0224 N   0  0  0  0  0  0  0  0  0  0  0  0
    5.3871   -3.4998   -0.4503 C   0  0  0  0  0  0  0  0  0  0  0  0
    4.1754   -4.0665   -0.1967 N   0  0  0  0  0  0  0  0  0  0  0  0
    3.2944   -3.3651    0.5412 C   0  0  0  0  0  0  0  0  0  0  0  0
    6.3588   -4.2747   -1.2753 C   0  0  0  0  0  0  0  0  0  0  0  0
    5.2803   -0.3392    1.1757 N   0  0  0  0  0  0  0  0  0  0  0  0
    2.2236    0.9246   -0.4999 H   0  0  0  0  0  0  0  0  0  0  0  0
    2.2350   -0.8657   -0.5833 H   0  0  0  0  0  0  0  0  0  0  0  0
    1.4267   -0.2934    4.1117 H   0  0  0  0  0  0  0  0  0  0  0  0
    0.9760    1.4086    4.2406 H   0  0  0  0  0  0  0  0  0  0  0  0
    2.6582    0.9615    3.9292 H   0  0  0  0  0  0  0  0  0  0  0  0
   -0.7074   -0.4313    3.6852 H   0  0  0  0  0  0  0  0  0  0  0  0
   -0.2104   -1.6238    2.4879 H   0  0  0  0  0  0  0  0  0  0  0  0
   -2.3842   -1.1925    1.1899 H   0  0  0  0  0  0  0  0  0  0  0  0
   -2.8404    0.0391    2.4293 H   0  0  0  0  0  0  0  0  0  0  0  0
   -2.4191   -2.7033    2.9519 H   0  0  0  0  0  0  0  0  0  0  0  0
    1.6678   -1.9640    2.0362 H   0  0  0  0  0  0  0  0  0  0  0  0
    3.0422   -1.2483    2.9327 H   0  0  0  0  0  0  0  0  0  0  0  0
    2.3297   -3.8589    0.7211 H   0  0  0  0  0  0  0  0  0  0  0  0
    6.3331   -5.3467   -1.0204 H   0  0  0  0  0  0  0  0  0  0  0  0
    7.3897   -3.9094   -1.1444 H   0  0  0  0  0  0  0  0  0  0  0  0
    6.1081   -4.1920   -2.3460 H   0  0  0  0  0  0  0  0  0  0  0  0
    4.5819    0.3063    1.5098 H   0  0  0  0  0  0  0  0  0  0  0  0
    6.1576    0.0269    0.8587 H   0  0  0  0  0  0  0  0  0  0  0  0
  1  7  1  0  0  0  0
  2  1  1  0  0  0  0
  2  3  1  0  0  0  0
  3 12  1  0  0  0  0
  3  4  1  0  0  0  0
  4  7  1  0  0  0  0
  4  6  1  0  0  0  0
  4  5  1  6  0  0  0
  6 25  1  0  0  0  0
  6 23  1  0  0  0  0
  6 24  1  0  0  0  0
  7  8  1  1  0  0  0
  7  9  1  0  0  0  0
  9 26  1  0  0  0  0
 10 29  1  0  0  0  0
 10  9  1  0  0  0  0
 10 11  1  0  0  0  0
 12 31  1  0  0  0  0
 12 32  1  0  0  0  0
 13 12  1  1  0  0  0
 14 13  1  0  0  0  0
 14 20  1  0  0  0  0
 15 14  2  0  0  0  0
 16 17  2  0  0  0  0
 16 15  2  0  0  0  0
 17 18  2  0  0  0  0
 18 33  1  0  0  0  0
 18 13  1  0  0  0  0
 19 35  1  0  0  0  0
 19 34  1  0  0  0  0
 19 16  1  0  0  0  0
 20 37  1  0  0  0  0
 21  2  1  0  0  0  0
 22  2  1  0  0  0  0
 27  9  1  0  0  0  0
 28 10  1  0  0  0  0
 30 11  1  0  0  0  0
 36 19  1  0  0  0  0
 38 20  1  0  0  0  0
M  RAD  1  13   2
M  END
$$$$
