rmsd75.gzmat
 OpenBabel08211713393D

 38 39  0  0  1  0  0  0  0  0999 V2000
    0.0000    0.0000    0.0000 S   0  0  0  0  0  0  0  0  0  0  0  0
    1.8680    0.0000    0.0000 C   0  0  0  0  0  0  0  0  0  0  0  0
    2.3213    0.0000    1.3902 N   0  0  0  0  0  0  0  0  0  0  0  0
    1.3591    0.8112    2.1858 C   0  0  2  0  0  0  0  0  0  0  0  0
    1.5669    1.8778    1.8685 H   0  0  0  0  0  0  0  0  0  0  0  0
    1.6155    0.7340    3.6894 C   0  0  0  0  0  0  0  0  0  0  0  0
   -0.1114    0.4874    1.7844 C   0  0  2  0  0  0  0  0  0  0  0  0
   -0.7156    1.4217    1.8412 H   0  0  0  0  0  0  0  0  0  0  0  0
   -0.7792   -0.5963    2.6146 C   0  0  0  0  0  0  0  0  0  0  0  0
   -2.2369   -0.8348    2.1942 C   0  0  0  0  0  0  0  0  0  0  0  0
   -2.9099   -1.5376    3.2196 O   0  0  0  0  0  0  0  0  0  0  0  0
    2.5737   -1.3729    1.9043 C   0  0  0  0  0  0  0  0  0  0  0  0
    3.6866   -2.0242    1.1468 C   0  0  1  0  0  0  0  0  0  0  0  0
    4.9676   -1.4168    1.0068 C   0  0  0  0  0  0  0  0  0  0  0  0
    5.9959   -2.0682    0.3798 N   0  0  0  0  0  0  0  0  0  0  0  0
    5.7573   -3.3053   -0.1032 C   0  0  0  0  0  0  0  0  0  0  0  0
    4.5520   -3.9343   -0.0335 N   0  0  0  0  0  0  0  0  0  0  0  0
    3.5419   -3.2923    0.5839 C   0  0  0  0  0  0  0  0  0  0  0  0
    6.8837   -4.0263   -0.7639 C   0  0  0  0  0  0  0  0  0  0  0  0
    5.2600   -0.1791    1.5133 N   0  0  0  0  0  0  0  0  0  0  0  0
    2.2265    0.9239   -0.5004 H   0  0  0  0  0  0  0  0  0  0  0  0
    2.2431   -0.8667   -0.5783 H   0  0  0  0  0  0  0  0  0  0  0  0
    1.3847   -0.2468    4.1203 H   0  0  0  0  0  0  0  0  0  0  0  0
    1.0065    1.4741    4.2244 H   0  0  0  0  0  0  0  0  0  0  0  0
    2.6685    0.9510    3.9181 H   0  0  0  0  0  0  0  0  0  0  0  0
   -0.7843   -0.2973    3.6875 H   0  0  0  0  0  0  0  0  0  0  0  0
   -0.2140   -1.5468    2.5787 H   0  0  0  0  0  0  0  0  0  0  0  0
   -2.3269   -1.3960    1.2481 H   0  0  0  0  0  0  0  0  0  0  0  0
   -2.8159    0.1056    2.1247 H   0  0  0  0  0  0  0  0  0  0  0  0
   -2.5490   -2.4390    3.3176 H   0  0  0  0  0  0  0  0  0  0  0  0
    1.6588   -2.0084    1.8841 H   0  0  0  0  0  0  0  0  0  0  0  0
    2.8781   -1.2901    2.9776 H   0  0  0  0  0  0  0  0  0  0  0  0
    2.5885   -3.8374    0.6159 H   0  0  0  0  0  0  0  0  0  0  0  0
    6.6012   -4.3557   -1.7772 H   0  0  0  0  0  0  0  0  0  0  0  0
    7.1505   -4.9330   -0.1965 H   0  0  0  0  0  0  0  0  0  0  0  0
    7.7845   -3.3970   -0.8432 H   0  0  0  0  0  0  0  0  0  0  0  0
    4.4885    0.4261    1.7484 H   0  0  0  0  0  0  0  0  0  0  0  0
    6.1487    0.2380    1.3109 H   0  0  0  0  0  0  0  0  0  0  0  0
  1  2  1  0  0  0  0
  1  7  1  0  0  0  0
  2  3  1  0  0  0  0
  3 12  1  0  0  0  0
  3  4  1  0  0  0  0
  4  7  1  0  0  0  0
  4  6  1  0  0  0  0
  4  5  1  6  0  0  0
  6 25  1  0  0  0  0
  6 23  1  0  0  0  0
  6 24  1  0  0  0  0
  7  8  1  1  0  0  0
  7  9  1  0  0  0  0
  9 26  1  0  0  0  0
 10  9  1  0  0  0  0
 10 11  1  0  0  0  0
 11 30  1  0  0  0  0
 12 32  1  0  0  0  0
 13 12  1  1  0  0  0
 14 13  1  0  0  0  0
 14 20  1  0  0  0  0
 15 14  2  0  0  0  0
 16 17  2  0  0  0  0
 16 15  2  0  0  0  0
 17 18  2  0  0  0  0
 18 33  1  0  0  0  0
 18 13  1  0  0  0  0
 19 35  1  0  0  0  0
 19 16  1  0  0  0  0
 20 37  1  0  0  0  0
 21  2  1  0  0  0  0
 22  2  1  0  0  0  0
 27  9  1  0  0  0  0
 28 10  1  0  0  0  0
 29 10  1  0  0  0  0
 31 12  1  0  0  0  0
 34 19  1  0  0  0  0
 36 19  1  0  0  0  0
 38 20  1  0  0  0  0
M  RAD  1  13   2
M  END
$$$$
