38
rmsd75.gzmat
S          0.00000        0.00000        0.00000
C          1.86800        0.00000        0.00000
N          2.32130        0.00000        1.39020
C          1.35910        0.81120        2.18580
H          1.56690        1.87780        1.86850
C          1.61550        0.73400        3.68940
C         -0.11140        0.48740        1.78440
H         -0.71560        1.42170        1.84120
C         -0.77920       -0.59630        2.61460
C         -2.23690       -0.83480        2.19420
O         -2.90990       -1.53760        3.21960
C          2.57370       -1.37290        1.90430
C          3.68660       -2.02420        1.14680
C          4.96760       -1.41680        1.00680
N          5.99590       -2.06820        0.37980
C          5.75730       -3.30530       -0.10320
N          4.55200       -3.93430       -0.03350
C          3.54190       -3.29230        0.58390
C          6.88370       -4.02630       -0.76390
N          5.26000       -0.17910        1.51330
H          2.22650        0.92390       -0.50040
H          2.24310       -0.86670       -0.57830
H          1.38470       -0.24680        4.12030
H          1.00650        1.47410        4.22440
H          2.66850        0.95100        3.91810
H         -0.78430       -0.29730        3.68750
H         -0.21400       -1.54680        2.57870
H         -2.32690       -1.39600        1.24810
H         -2.81590        0.10560        2.12470
H         -2.54900       -2.43900        3.31760
H          1.65880       -2.00840        1.88410
H          2.87810       -1.29010        2.97760
H          2.58850       -3.83740        0.61590
H          6.60120       -4.35570       -1.77720
H          7.15050       -4.93300       -0.19650
H          7.78450       -3.39700       -0.84320
H          4.48850        0.42610        1.74840
H          6.14870        0.23800        1.31090
