rmsd88.gzmat
 OpenBabel08211713393D

 38 39  0  0  1  0  0  0  0  0999 V2000
    0.0000    0.0000    0.0000 S   0  0  0  0  0  0  0  0  0  0  0  0
    1.8684    0.0000    0.0000 C   0  0  0  0  0  0  0  0  0  0  0  0
    2.3212    0.0000    1.3895 N   0  0  0  0  0  0  0  0  0  0  0  0
    1.3531    0.7961    2.1908 C   0  0  2  0  0  0  0  0  0  0  0  0
    1.5515    1.8670    1.8803 H   0  0  0  0  0  0  0  0  0  0  0  0
    1.6138    0.7131    3.6936 C   0  0  0  0  0  0  0  0  0  0  0  0
   -0.1165    0.4643    1.7894 C   0  0  2  0  0  0  0  0  0  0  0  0
   -0.7258    1.3944    1.8523 H   0  0  0  0  0  0  0  0  0  0  0  0
   -0.7774   -0.6254    2.6200 C   0  0  0  0  0  0  0  0  0  0  0  0
   -2.2382   -0.8985    2.2284 C   0  0  0  0  0  0  0  0  0  0  0  0
   -2.3585   -2.1258    1.5444 O   0  0  0  0  0  0  0  0  0  0  0  0
    2.6052   -1.3708    1.8918 C   0  0  0  0  0  0  0  0  0  0  0  0
    3.7533   -1.9689    1.1420 C   0  0  1  0  0  0  0  0  0  0  0  0
    5.0168   -1.3186    1.0412 C   0  0  0  0  0  0  0  0  0  0  0  0
    6.0731   -1.9161    0.4072 N   0  0  0  0  0  0  0  0  0  0  0  0
    5.8806   -3.1444   -0.1185 C   0  0  0  0  0  0  0  0  0  0  0  0
    4.6955   -3.8134   -0.0832 N   0  0  0  0  0  0  0  0  0  0  0  0
    3.6574   -3.2244    0.5403 C   0  0  0  0  0  0  0  0  0  0  0  0
    7.0358   -3.8097   -0.7883 C   0  0  0  0  0  0  0  0  0  0  0  0
    5.2640   -0.0904    1.5968 N   0  0  0  0  0  0  0  0  0  0  0  0
    2.2255    0.9250   -0.4998 H   0  0  0  0  0  0  0  0  0  0  0  0
    2.2449   -0.8671   -0.5772 H   0  0  0  0  0  0  0  0  0  0  0  0
    1.4230   -0.2817    4.1125 H   0  0  0  0  0  0  0  0  0  0  0  0
    0.9803    1.4252    4.2371 H   0  0  0  0  0  0  0  0  0  0  0  0
    2.6583    0.9673    3.9240 H   0  0  0  0  0  0  0  0  0  0  0  0
   -0.7477   -0.3376    3.6924 H   0  0  0  0  0  0  0  0  0  0  0  0
   -0.2116   -1.5799    2.5679 H   0  0  0  0  0  0  0  0  0  0  0  0
   -2.6834   -0.0946    1.6177 H   0  0  0  0  0  0  0  0  0  0  0  0
   -2.8752   -1.0644    3.1201 H   0  0  0  0  0  0  0  0  0  0  0  0
   -1.8226   -2.1240    0.7240 H   0  0  0  0  0  0  0  0  0  0  0  0
    1.7119   -2.0354    1.8444 H   0  0  0  0  0  0  0  0  0  0  0  0
    2.8864   -1.2965    2.9715 H   0  0  0  0  0  0  0  0  0  0  0  0
    2.7222   -3.8012    0.5466 H   0  0  0  0  0  0  0  0  0  0  0  0
    6.7592   -4.1675   -1.7937 H   0  0  0  0  0  0  0  0  0  0  0  0
    7.3607   -4.6930   -0.2139 H   0  0  0  0  0  0  0  0  0  0  0  0
    7.9001   -3.1341   -0.8869 H   0  0  0  0  0  0  0  0  0  0  0  0
    4.4694    0.4873    1.8238 H   0  0  0  0  0  0  0  0  0  0  0  0
    6.1412    0.3612    1.4167 H   0  0  0  0  0  0  0  0  0  0  0  0
  1  7  1  0  0  0  0
  2  1  1  0  0  0  0
  2  3  1  0  0  0  0
  3 12  1  0  0  0  0
  3  4  1  0  0  0  0
  4  7  1  0  0  0  0
  4  6  1  0  0  0  0
  4  5  1  6  0  0  0
  6 25  1  0  0  0  0
  6 23  1  0  0  0  0
  6 24  1  0  0  0  0
  7  8  1  1  0  0  0
  7  9  1  0  0  0  0
  9 26  1  0  0  0  0
 10  9  1  0  0  0  0
 10 29  1  0  0  0  0
 11 10  1  0  0  0  0
 12 32  1  0  0  0  0
 13 12  1  1  0  0  0
 14 13  1  0  0  0  0
 14 20  1  0  0  0  0
 15 14  2  0  0  0  0
 16 17  2  0  0  0  0
 16 15  2  0  0  0  0
 17 18  2  0  0  0  0
 18 33  1  0  0  0  0
 18 13  1  0  0  0  0
 19 35  1  0  0  0  0
 19 16  1  0  0  0  0
 20 37  1  0  0  0  0
 21  2  1  0  0  0  0
 22  2  1  0  0  0  0
 27  9  1  0  0  0  0
 28 10  1  0  0  0  0
 30 11  1  0  0  0  0
 31 12  1  0  0  0  0
 34 19  1  0  0  0  0
 36 19  1  0  0  0  0
 38 20  1  0  0  0  0
M  RAD  1  13   2
M  END
$$$$
