38
rmsd73.gzmat
S          0.00000        0.00000        0.00000
C          1.86660        0.00000        0.00000
N          2.32670        0.00000        1.38730
C          1.35540        0.78850        2.19450
H          1.55080        1.86230        1.89490
C          1.61290        0.68710        3.69660
C         -0.11340        0.45410        1.79140
H         -0.72580        1.38150        1.86290
C         -0.76930       -0.64680        2.61190
C         -2.22070       -0.94050        2.20120
O         -2.31230       -2.17410        1.52430
C          2.61210       -1.36580        1.90390
C          3.64370       -2.05440        1.06990
C          4.91080       -1.46930        0.78270
N          5.85750       -2.14880        0.06510
C          5.55780       -3.39810       -0.35100
N          4.36560       -4.01370       -0.12550
C          3.43180       -3.34120        0.57460
C          6.60330       -4.14660       -1.10730
N          5.27110       -0.22620        1.22880
H          2.22100        0.92780       -0.49730
H          2.24010       -0.86490       -0.58190
H          1.42860       -0.31580        4.09840
H          0.97260        1.38610        4.24860
H          2.65470        0.94650        3.93300
H         -0.75520       -0.36300        3.68500
H         -0.19140       -1.59460        2.56290
H         -2.66810       -0.14610        1.57980
H         -2.86770       -1.10940        3.08420
H         -1.77350       -2.16620        0.70620
H          1.69160       -1.98890        1.98450
H          3.01410       -1.25590        2.94250
H          2.48500       -3.87610        0.73420
H          6.20140       -5.07220       -1.55050
H          7.43580       -4.42580       -0.44090
H          7.03030       -3.53270       -1.91620
H          4.53990        0.39340        1.53980
H          6.14050        0.17300        0.92940
