rmsd66.gzmat
 OpenBabel08211713393D

 38 39  0  0  1  0  0  0  0  0999 V2000
    0.0000    0.0000    0.0000 S   0  0  0  0  0  0  0  0  0  0  0  0
    1.8669    0.0000    0.0000 C   0  0  0  0  0  0  0  0  0  0  0  0
    2.3313    0.0000    1.3871 N   0  0  0  0  0  0  0  0  0  0  0  0
    1.3531    0.7789    2.1960 C   0  0  2  0  0  0  0  0  0  0  0  0
    1.5296    1.8540    1.8897 H   0  0  0  0  0  0  0  0  0  0  0  0
    1.6184    0.6915    3.6975 C   0  0  0  0  0  0  0  0  0  0  0  0
   -0.1103    0.4168    1.8006 C   0  0  2  0  0  0  0  0  0  0  0  0
   -0.7450    1.3264    1.9004 H   0  0  0  0  0  0  0  0  0  0  0  0
   -0.7316   -0.7250    2.5887 C   0  0  0  0  0  0  0  0  0  0  0  0
   -2.1959   -0.9699    2.1948 C   0  0  0  0  0  0  0  0  0  0  0  0
   -2.8047   -1.8063    3.1578 O   0  0  0  0  0  0  0  0  0  0  0  0
    2.6132   -1.3653    1.9074 C   0  0  0  0  0  0  0  0  0  0  0  0
    3.6118   -2.0800    1.0566 C   0  0  1  0  0  0  0  0  0  0  0  0
    4.8854   -1.5249    0.7419 C   0  0  0  0  0  0  0  0  0  0  0  0
    5.8000   -2.2267    0.0038 N   0  0  0  0  0  0  0  0  0  0  0  0
    5.4604   -3.4669   -0.4078 C   0  0  0  0  0  0  0  0  0  0  0  0
    4.2594   -4.0551   -0.1553 N   0  0  0  0  0  0  0  0  0  0  0  0
    3.3584   -3.3613    0.5663 C   0  0  0  0  0  0  0  0  0  0  0  0
    6.4636   -4.2376   -1.1989 C   0  0  0  0  0  0  0  0  0  0  0  0
    5.2802   -0.2892    1.1780 N   0  0  0  0  0  0  0  0  0  0  0  0
    2.2224    0.9262   -0.4987 H   0  0  0  0  0  0  0  0  0  0  0  0
    2.2377   -0.8649   -0.5830 H   0  0  0  0  0  0  0  0  0  0  0  0
    1.4492   -0.3093    4.1097 H   0  0  0  0  0  0  0  0  0  0  0  0
    0.9684    1.3848    4.2462 H   0  0  0  0  0  0  0  0  0  0  0  0
    2.6568    0.9691    3.9279 H   0  0  0  0  0  0  0  0  0  0  0  0
   -0.7078   -0.4915    3.6762 H   0  0  0  0  0  0  0  0  0  0  0  0
   -0.1528   -1.6627    2.4804 H   0  0  0  0  0  0  0  0  0  0  0  0
   -2.3035   -1.4269    1.1957 H   0  0  0  0  0  0  0  0  0  0  0  0
   -2.8063   -0.0492    2.2502 H   0  0  0  0  0  0  0  0  0  0  0  0
   -2.4274   -2.7061    3.1235 H   0  0  0  0  0  0  0  0  0  0  0  0
    1.6866   -1.9752    2.0167 H   0  0  0  0  0  0  0  0  0  0  0  0
    3.0406   -1.2473    2.9357 H   0  0  0  0  0  0  0  0  0  0  0  0
    2.4026   -3.8710    0.7486 H   0  0  0  0  0  0  0  0  0  0  0  0
    6.0106   -5.1231   -1.6745 H   0  0  0  0  0  0  0  0  0  0  0  0
    7.2852   -4.5869   -0.5523 H   0  0  0  0  0  0  0  0  0  0  0  0
    6.9175   -3.6148   -1.9861 H   0  0  0  0  0  0  0  0  0  0  0  0
    4.5686    0.3457    1.5046 H   0  0  0  0  0  0  0  0  0  0  0  0
    6.1513    0.0914    0.8603 H   0  0  0  0  0  0  0  0  0  0  0  0
  1  7  1  0  0  0  0
  2  1  1  0  0  0  0
  2  3  1  0  0  0  0
  3 12  1  0  0  0  0
  3  4  1  0  0  0  0
  4  7  1  0  0  0  0
  4  6  1  0  0  0  0
  4  5  1  6  0  0  0
  6 25  1  0  0  0  0
  6 23  1  0  0  0  0
  6 24  1  0  0  0  0
  7  8  1  1  0  0  0
  7  9  1  0  0  0  0
  9 26  1  0  0  0  0
 10 29  1  0  0  0  0
 10  9  1  0  0  0  0
 10 11  1  0  0  0  0
 12 31  1  0  0  0  0
 12 32  1  0  0  0  0
 13 12  1  1  0  0  0
 14 13  1  0  0  0  0
 14 20  1  0  0  0  0
 15 14  2  0  0  0  0
 16 17  2  0  0  0  0
 16 15  2  0  0  0  0
 17 18  2  0  0  0  0
 18 33  1  0  0  0  0
 18 13  1  0  0  0  0
 19 35  1  0  0  0  0
 19 16  1  0  0  0  0
 20 37  1  0  0  0  0
 21  2  1  0  0  0  0
 22  2  1  0  0  0  0
 27  9  1  0  0  0  0
 28 10  1  0  0  0  0
 30 11  1  0  0  0  0
 34 19  1  0  0  0  0
 36 19  1  0  0  0  0
 38 20  1  0  0  0  0
M  RAD  1  13   2
M  END
$$$$
