38
rmsd45.gzmat
S          0.00000        0.00000        0.00000
C          1.86600        0.00000        0.00000
N          2.32890        0.00000        1.38750
C          1.35710        0.79110        2.19310
H          1.54900        1.86370        1.88720
C          1.61580        0.70240        3.69590
C         -0.11040        0.44840        1.79350
H         -0.73030        1.37010        1.87340
C         -0.75630       -0.66690        2.59890
C         -2.23460       -0.86550        2.23310
O         -2.80570       -1.81960        3.10560
C          2.60000       -1.36670        1.91090
C          3.57750       -2.09600        1.04750
C          4.85970       -1.56310        0.73010
N          5.75600       -2.27400       -0.02240
C          5.38710       -3.49980       -0.45030
N          4.17540       -4.06650       -0.19670
C          3.29440       -3.36510        0.54120
C          6.35880       -4.27470       -1.27530
N          5.28030       -0.33920        1.17570
H          2.22360        0.92460       -0.49990
H          2.23500       -0.86570       -0.58330
H          1.42670       -0.29340        4.11170
H          0.97600        1.40860        4.24060
H          2.65820        0.96150        3.92920
H         -0.70740       -0.43130        3.68520
H         -0.21040       -1.62380        2.48790
H         -2.38420       -1.19250        1.18990
H         -2.84040        0.03910        2.42930
H         -2.41910       -2.70330        2.95190
H          1.66780       -1.96400        2.03620
H          3.04220       -1.24830        2.93270
H          2.32970       -3.85890        0.72110
H          6.33310       -5.34670       -1.02040
H          7.38970       -3.90940       -1.14440
H          6.10810       -4.19200       -2.34600
H          4.58190        0.30630        1.50980
H          6.15760        0.02690        0.85870
