
     RDKit          3D

 38 39  0  0  0  0  0  0  0  0999 V2000
   -0.0644    0.0266    0.1044 S   0  0  0  0  0  0  0  0  0  0  0  0
    1.8050    0.1555    0.0240 C   0  0  0  0  0  0  0  0  0  0  0  0
    2.3030   -0.0224    1.3610 N   0  0  0  0  0  0  0  0  0  0  0  0
    1.4346    0.7920    2.2260 C   0  0  2  0  0  0  0  0  0  0  0  0
    1.6000    1.8280    1.8856 H   0  0  0  0  0  0  0  0  0  0  0  0
    1.8021    0.7433    3.7037 C   0  0  0  0  0  0  0  0  0  0  0  0
   -0.0637    0.4849    1.8993 C   0  0  2  0  0  0  0  0  0  0  0  0
   -0.6473    1.4113    2.0035 H   0  0  0  0  0  0  0  0  0  0  0  0
   -0.7531   -0.5814    2.7539 C   0  0  0  0  0  0  0  0  0  0  0  0
   -2.2376   -0.7364    2.4231 C   0  0  0  0  0  0  0  0  0  0  0  0
   -2.9623    0.4684    2.5721 O   0  0  0  0  0  0  0  0  0  0  0  0
    2.4709   -1.4385    1.7279 C   0  0  0  0  0  0  0  0  0  0  0  0
    3.5933   -2.0961    0.9726 C   0  0  0  0  0  0  0  0  0  0  0  0
    4.9061   -1.5438    0.9355 C   0  0  0  0  0  0  0  0  0  0  0  0
    5.9110   -2.1886    0.3340 N   0  0  0  0  0  0  0  0  0  0  0  0
    5.6467   -3.3662   -0.2455 C   0  0  0  0  0  0  0  0  0  0  0  0
    4.4471   -3.9527   -0.3009 N   0  0  0  0  0  0  0  0  0  0  0  0
    3.4449   -3.3044    0.3087 C   0  0  0  0  0  0  0  0  0  0  0  0
    6.8042   -4.0762   -0.8918 C   0  0  0  0  0  0  0  0  0  0  0  0
    5.1696   -0.3483    1.5335 N   0  0  0  0  0  0  0  0  0  0  0  0
    2.0650    1.1546   -0.3556 H   0  0  0  0  0  0  0  0  0  0  0  0
    2.1943   -0.6069   -0.6625 H   0  0  0  0  0  0  0  0  0  0  0  0
    1.6226   -0.2393    4.1609 H   0  0  0  0  0  0  0  0  0  0  0  0
    1.2046    1.4810    4.2605 H   0  0  0  0  0  0  0  0  0  0  0  0
    2.8651    0.9934    3.8400 H   0  0  0  0  0  0  0  0  0  0  0  0
   -0.6658   -0.2978    3.8193 H   0  0  0  0  0  0  0  0  0  0  0  0
   -0.2577   -1.5588    2.6456 H   0  0  0  0  0  0  0  0  0  0  0  0
   -2.6691   -1.5514    3.0375 H   0  0  0  0  0  0  0  0  0  0  0  0
   -2.3499   -1.0356    1.3689 H   0  0  0  0  0  0  0  0  0  0  0  0
   -2.9608    0.7063    3.5085 H   0  0  0  0  0  0  0  0  0  0  0  0
    1.5428   -2.0168    1.5639 H   0  0  0  0  0  0  0  0  0  0  0  0
    2.6979   -1.4748    2.8040 H   0  0  0  0  0  0  0  0  0  0  0  0
    2.4564   -3.7815    0.2721 H   0  0  0  0  0  0  0  0  0  0  0  0
    6.4627   -5.0034   -1.3678 H   0  0  0  0  0  0  0  0  0  0  0  0
    7.5726   -4.3098   -0.1373 H   0  0  0  0  0  0  0  0  0  0  0  0
    7.2810   -3.4244   -1.6406 H   0  0  0  0  0  0  0  0  0  0  0  0
    4.3680    0.2751    1.6270 H   0  0  0  0  0  0  0  0  0  0  0  0
    6.0807    0.0491    1.3351 H   0  0  0  0  0  0  0  0  0  0  0  0
  1  2  1  0
  1  7  1  0
  2  3  1  0
  2 21  1  0
  2 22  1  0
  3  4  1  0
  3 12  1  0
  4  5  1  6
  4  6  1  0
  4  7  1  0
  6 23  1  0
  6 24  1  0
  6 25  1  0
  7  8  1  6
  7  9  1  0
  9 10  1  0
  9 26  1  0
  9 27  1  0
 10 11  1  0
 10 28  1  0
 10 29  1  0
 11 30  1  0
 12 13  1  0
 12 31  1  0
 12 32  1  0
 13 14  2  0
 13 18  1  0
 14 15  1  0
 14 20  1  0
 15 16  2  0
 16 17  1  0
 16 19  1  0
 17 18  2  0
 18 33  1  0
 19 34  1  0
 19 35  1  0
 19 36  1  0
 20 37  1  0
 20 38  1  0
M  END

