rmsd89.gzmat
 OpenBabel08211713393D

 38 39  0  0  1  0  0  0  0  0999 V2000
    0.0000    0.0000    0.0000 S   0  0  0  0  0  0  0  0  0  0  0  0
    1.8672    0.0000    0.0000 C   0  0  0  0  0  0  0  0  0  0  0  0
    2.3257    0.0000    1.3879 N   0  0  0  0  0  0  0  0  0  0  0  0
    1.3498    0.7791    2.1978 C   0  0  2  0  0  0  0  0  0  0  0  0
    1.5377    1.8547    1.8981 H   0  0  0  0  0  0  0  0  0  0  0  0
    1.6070    0.6814    3.7002 C   0  0  0  0  0  0  0  0  0  0  0  0
   -0.1165    0.4350    1.7955 C   0  0  2  0  0  0  0  0  0  0  0  0
   -0.7373    1.3562    1.8742 H   0  0  0  0  0  0  0  0  0  0  0  0
   -0.7608   -0.6777    2.6092 C   0  0  0  0  0  0  0  0  0  0  0  0
   -2.2191   -0.9611    2.2168 C   0  0  0  0  0  0  0  0  0  0  0  0
   -2.3275   -2.1780    1.5127 O   0  0  0  0  0  0  0  0  0  0  0  0
    2.6263   -1.3664    1.8932 C   0  0  0  0  0  0  0  0  0  0  0  0
    3.7091   -2.0057    1.0835 C   0  0  1  0  0  0  0  0  0  0  0  0
    4.9701   -1.3791    0.8660 C   0  0  0  0  0  0  0  0  0  0  0  0
    5.9678   -2.0126    0.1749 N   0  0  0  0  0  0  0  0  0  0  0  0
    5.7220   -3.2561   -0.2888 C   0  0  0  0  0  0  0  0  0  0  0  0
    4.5365   -3.9074   -0.1370 N   0  0  0  0  0  0  0  0  0  0  0  0
    3.5547   -3.2811    0.5395 C   0  0  0  0  0  0  0  0  0  0  0  0
    6.8180   -3.9590   -1.0169 C   0  0  0  0  0  0  0  0  0  0  0  0
    5.2731   -0.1370    1.3558 N   0  0  0  0  0  0  0  0  0  0  0  0
    2.2218    0.9267   -0.4988 H   0  0  0  0  0  0  0  0  0  0  0  0
    2.2418   -0.8655   -0.5814 H   0  0  0  0  0  0  0  0  0  0  0  0
    1.4281   -0.3204    4.1072 H   0  0  0  0  0  0  0  0  0  0  0  0
    0.9608    1.3776    4.2494 H   0  0  0  0  0  0  0  0  0  0  0  0
    2.6467    0.9479    3.9371 H   0  0  0  0  0  0  0  0  0  0  0  0
   -0.7291   -0.4104    3.6862 H   0  0  0  0  0  0  0  0  0  0  0  0
   -0.1842   -1.6247    2.5376 H   0  0  0  0  0  0  0  0  0  0  0  0
   -2.6742   -0.1527    1.6194 H   0  0  0  0  0  0  0  0  0  0  0  0
   -2.8529   -1.1484    3.1062 H   0  0  0  0  0  0  0  0  0  0  0  0
   -1.7779   -2.1644    0.7024 H   0  0  0  0  0  0  0  0  0  0  0  0
    1.7217   -2.0161    1.9240 H   0  0  0  0  0  0  0  0  0  0  0  0
    2.9826   -1.2688    2.9493 H   0  0  0  0  0  0  0  0  0  0  0  0
    2.6164   -3.8448    0.6374 H   0  0  0  0  0  0  0  0  0  0  0  0
    6.4186   -4.6253   -1.7987 H   0  0  0  0  0  0  0  0  0  0  0  0
    7.4013   -4.5853   -0.3217 H   0  0  0  0  0  0  0  0  0  0  0  0
    7.5180   -3.2501   -1.4866 H   0  0  0  0  0  0  0  0  0  0  0  0
    4.5082    0.4553    1.6388 H   0  0  0  0  0  0  0  0  0  0  0  0
    6.1415    0.2940    1.1011 H   0  0  0  0  0  0  0  0  0  0  0  0
  1  2  1  0  0  0  0
  1  7  1  0  0  0  0
  2  3  1  0  0  0  0
  3 12  1  0  0  0  0
  3  4  1  0  0  0  0
  4  7  1  0  0  0  0
  4  6  1  0  0  0  0
  4  5  1  6  0  0  0
  6 25  1  0  0  0  0
  6 23  1  0  0  0  0
  6 24  1  0  0  0  0
  7  8  1  1  0  0  0
  7  9  1  0  0  0  0
  9 26  1  0  0  0  0
 10  9  1  0  0  0  0
 10 29  1  0  0  0  0
 11 10  1  0  0  0  0
 12 31  1  0  0  0  0
 12 32  1  0  0  0  0
 13 12  1  1  0  0  0
 14 13  1  0  0  0  0
 14 20  1  0  0  0  0
 15 14  2  0  0  0  0
 16 17  2  0  0  0  0
 16 15  2  0  0  0  0
 17 18  2  0  0  0  0
 18 33  1  0  0  0  0
 18 13  1  0  0  0  0
 19 35  1  0  0  0  0
 19 16  1  0  0  0  0
 20 37  1  0  0  0  0
 21  2  1  0  0  0  0
 22  2  1  0  0  0  0
 27  9  1  0  0  0  0
 28 10  1  0  0  0  0
 30 11  1  0  0  0  0
 34 19  1  0  0  0  0
 36 19  1  0  0  0  0
 38 20  1  0  0  0  0
M  RAD  1  13   2
M  END
$$$$
