
     RDKit          3D

 38 39  0  0  0  0  0  0  0  0999 V2000
   -0.1733   -0.1128    0.0718 S   0  0  0  0  0  0  0  0  0  0  0  0
    1.6908    0.0373   -0.0797 C   0  0  0  0  0  0  0  0  0  0  0  0
    2.2335   -0.1027    1.2429 N   0  0  0  0  0  0  0  0  0  0  0  0
    1.3969    0.7349    2.1146 C   0  0  2  0  0  0  0  0  0  0  0  0
    1.5530    1.7617    1.7434 H   0  0  0  0  0  0  0  0  0  0  0  0
    1.8076    0.7204    3.5813 C   0  0  0  0  0  0  0  0  0  0  0  0
   -0.1165    0.4249    1.8446 C   0  0  2  0  0  0  0  0  0  0  0  0
   -0.6740    1.3726    1.9244 H   0  0  0  0  0  0  0  0  0  0  0  0
   -0.7796   -0.5938    2.7713 C   0  0  0  0  0  0  0  0  0  0  0  0
   -2.2599   -0.8183    2.4655 C   0  0  0  0  0  0  0  0  0  0  0  0
   -2.8793   -1.6781    3.3978 O   0  0  0  0  0  0  0  0  0  0  0  0
    2.4204   -1.5072    1.6450 C   0  0  0  0  0  0  0  0  0  0  0  0
    3.5075   -2.1872    0.8593 C   0  0  0  0  0  0  0  0  0  0  0  0
    4.8186   -1.6401    0.7519 C   0  0  0  0  0  0  0  0  0  0  0  0
    5.7953   -2.3033    0.1244 N   0  0  0  0  0  0  0  0  0  0  0  0
    5.5039   -3.4944   -0.4131 C   0  0  0  0  0  0  0  0  0  0  0  0
    4.3016   -4.0781   -0.4021 N   0  0  0  0  0  0  0  0  0  0  0  0
    3.3282   -3.4115    0.2333 C   0  0  0  0  0  0  0  0  0  0  0  0
    6.6311   -4.2246   -1.0895 C   0  0  0  0  0  0  0  0  0  0  0  0
    5.1105   -0.4308    1.3068 N   0  0  0  0  0  0  0  0  0  0  0  0
    1.9254    1.0296   -0.4922 H   0  0  0  0  0  0  0  0  0  0  0  0
    2.0625   -0.7383   -0.7609 H   0  0  0  0  0  0  0  0  0  0  0  0
    1.6332   -0.2489    4.0675 H   0  0  0  0  0  0  0  0  0  0  0  0
    1.2315    1.4754    4.1370 H   0  0  0  0  0  0  0  0  0  0  0  0
    2.8759    0.9659    3.6794 H   0  0  0  0  0  0  0  0  0  0  0  0
   -0.7086   -0.2460    3.8152 H   0  0  0  0  0  0  0  0  0  0  0  0
   -0.2507   -1.5603    2.7173 H   0  0  0  0  0  0  0  0  0  0  0  0
   -2.3743   -1.1845    1.4264 H   0  0  0  0  0  0  0  0  0  0  0  0
   -2.7970    0.1434    2.5254 H   0  0  0  0  0  0  0  0  0  0  0  0
   -2.5053   -2.5613    3.2830 H   0  0  0  0  0  0  0  0  0  0  0  0
    1.4861   -2.0895    1.5421 H   0  0  0  0  0  0  0  0  0  0  0  0
    2.6965   -1.5094    2.7102 H   0  0  0  0  0  0  0  0  0  0  0  0
    2.3381   -3.8862    0.2516 H   0  0  0  0  0  0  0  0  0  0  0  0
    6.2663   -5.1593   -1.5322 H   0  0  0  0  0  0  0  0  0  0  0  0
    7.4270   -4.4478   -0.3606 H   0  0  0  0  0  0  0  0  0  0  0  0
    7.0821   -3.5911   -1.8693 H   0  0  0  0  0  0  0  0  0  0  0  0
    4.3171    0.1986    1.4226 H   0  0  0  0  0  0  0  0  0  0  0  0
    6.0145   -0.0427    1.0630 H   0  0  0  0  0  0  0  0  0  0  0  0
  1  2  1  0
  1  7  1  0
  2  3  1  0
  2 21  1  0
  2 22  1  0
  3  4  1  0
  3 12  1  0
  4  5  1  6
  4  6  1  0
  4  7  1  0
  6 23  1  0
  6 24  1  0
  6 25  1  0
  7  8  1  6
  7  9  1  0
  9 10  1  0
  9 26  1  0
  9 27  1  0
 10 11  1  0
 10 28  1  0
 10 29  1  0
 11 30  1  0
 12 13  1  0
 12 31  1  0
 12 32  1  0
 13 14  2  0
 13 18  1  0
 14 15  1  0
 14 20  1  0
 15 16  2  0
 16 17  1  0
 16 19  1  0
 17 18  2  0
 18 33  1  0
 19 34  1  0
 19 35  1  0
 19 36  1  0
 20 37  1  0
 20 38  1  0
M  END

