38
rmsd96.gzmat
S          0.00000        0.00000        0.00000
C          1.86670        0.00000        0.00000
N          2.32700        0.00000        1.38950
C          1.35410        0.79670        2.18890
H          1.54200        1.86680        1.86710
C          1.62140        0.73590        3.69200
C         -0.10950        0.44750        1.79500
H         -0.74060        1.36650        1.87750
C         -0.76750       -0.67110        2.59200
C         -2.28800       -0.67780        2.38650
O         -2.85870        0.52930        2.84690
C          2.58890       -1.37260        1.90060
C          3.66230       -2.04310        1.10340
C          4.94100       -1.44920        0.89790
N          5.92890       -2.11080        0.21850
C          5.65380       -3.34590       -0.25060
N          4.45080       -3.96710       -0.10980
C          3.48020       -3.31480        0.55870
C          6.73330       -4.07390       -0.97900
N          5.27220       -0.21530        1.38990
H          2.22390        0.92550       -0.49830
H          2.24020       -0.86630       -0.57900
H          1.46120       -0.25830        4.12210
H          0.96690        1.43480        4.22810
H          2.65790        1.02550        3.91630
H         -0.55880       -0.54190        3.67380
H         -0.35100       -1.66430        2.33280
H         -2.76500       -1.52730        2.90660
H         -2.58450       -0.69620        1.32020
H         -2.68560        0.65710        3.79870
H          1.66720       -1.99770        1.92490
H          2.93790       -1.28150        2.95920
H          2.52800       -3.85440        0.65100
H          6.38650       -4.40480       -1.97150
H          7.03350       -4.97940       -0.42650
H          7.62900       -3.44810       -1.11740
H          4.51940        0.39970        1.65940
H          6.15560        0.19050        1.14450
