36
rmsd38.gzmat
N          0.00000        0.00000        0.00000
C          1.34130        0.00000        0.00000
C          2.03570        0.00000        1.33620
O          2.41600       -1.02360        1.83470
C          2.24180        1.33750        1.93660
C          3.51310        1.66420        2.41270
C          3.74230        2.92390        2.96350
C          2.67810        3.81430        3.03120
C          1.39970        3.50280        2.58490
C          1.18380        2.24370        2.02880
Cl         2.95300        5.36610        3.70010
C          2.07170        0.00270       -1.19800
C          1.34660       -0.01610       -2.41070
N          0.00400       -0.02340       -2.39250
C         -0.64370       -0.01230       -1.19680
C         -2.11620       -0.01030       -1.19640
C         -2.81420       -0.42220       -0.05590
C         -4.20610       -0.41620       -0.05740
C         -4.90270       -0.00080       -1.19110
C         -4.20770        0.40740       -2.32870
C         -2.81570        0.40240       -2.33500
C          2.02780       -0.03130       -3.73300
O          3.41820        0.04720       -1.09470
H          4.32330        0.93300        2.35470
H          4.73180        3.19340        3.33140
H          0.58180        4.21870        2.66290
H          0.18670        1.96450        1.67320
H         -2.26490       -0.74590        0.83230
H         -4.75000       -0.73760        0.82860
H         -5.99110        0.00370       -1.18930
H         -4.75240        0.72870       -3.21410
H         -2.26800        0.71420       -3.22710
H          1.29460       -0.02490       -4.56300
H          2.63670       -0.93770       -3.87000
H          2.66700        0.85210       -3.87730
H          3.85670       -0.01910       -1.98360
