rmsd41.gzmat
 OpenBabel08211713383D

 36 38  0  0  1  0  0  0  0  0999 V2000
    0.0000    0.0000    0.0000 N   0  0  0  0  0  0  0  0  0  0  0  0
    1.3412    0.0000    0.0000 C   0  0  0  0  0  0  0  0  0  0  0  0
    2.0323    0.0000    1.3377 C   0  0  0  0  0  0  0  0  0  0  0  0
    2.4594   -1.0200    1.8062 O   0  0  0  0  0  0  0  0  0  0  0  0
    2.1785    1.3232    1.9850 C   0  0  0  0  0  0  0  0  0  0  0  0
    3.4048    1.6369    2.5758 C   0  0  0  0  0  0  0  0  0  0  0  0
    3.5848    2.8783    3.1829 C   0  0  0  0  0  0  0  0  0  0  0  0
    2.5164    3.7660    3.1904 C   0  0  0  0  0  0  0  0  0  0  0  0
    1.2811    3.4683    2.6287 C   0  0  0  0  0  0  0  0  0  0  0  0
    1.1156    2.2275    2.0172 C   0  0  0  0  0  0  0  0  0  0  0  0
    2.7275    5.2953    3.9300 Cl  0  0  0  0  0  0  0  0  0  0  0  0
    2.0699   -0.0025   -1.1986 C   0  0  1  0  0  0  0  0  0  0  0  0
    1.3428   -0.0227   -2.4106 C   0  0  0  0  0  0  0  0  0  0  0  0
    0.0005   -0.0293   -2.3917 N   0  0  0  0  0  0  0  0  0  0  0  0
   -0.6465   -0.0152   -1.1951 C   0  0  0  0  0  0  0  0  0  0  0  0
   -2.1186   -0.0070   -1.1872 C   0  0  0  0  0  0  0  0  0  0  0  0
   -2.8120   -0.3185   -0.0121 C   0  0  0  0  0  0  0  0  0  0  0  0
   -4.2038   -0.3016   -0.0035 C   0  0  0  0  0  0  0  0  0  0  0  0
   -4.9064    0.0244   -1.1625 C   0  0  0  0  0  0  0  0  0  0  0  0
   -4.2169    0.3328   -2.3344 C   0  0  0  0  0  0  0  0  0  0  0  0
   -2.8250    0.3171   -2.3505 C   0  0  0  0  0  0  0  0  0  0  0  0
    2.0226   -0.0411   -3.7336 C   0  0  0  0  0  0  0  0  0  0  0  0
    3.4164    0.0410   -1.0982 O   0  0  0  0  0  0  0  0  0  0  0  0
    4.2182    0.9069    2.5614 H   0  0  0  0  0  0  0  0  0  0  0  0
    4.5393    3.1359    3.6402 H   0  0  0  0  0  0  0  0  0  0  0  0
    0.4567    4.1802    2.6610 H   0  0  0  0  0  0  0  0  0  0  0  0
    0.1505    1.9615    1.5741 H   0  0  0  0  0  0  0  0  0  0  0  0
   -2.2584   -0.5716    0.8965 H   0  0  0  0  0  0  0  0  0  0  0  0
   -4.7422   -0.5433    0.9107 H   0  0  0  0  0  0  0  0  0  0  0  0
   -5.9947    0.0376   -1.1530 H   0  0  0  0  0  0  0  0  0  0  0  0
   -4.7655    0.5856   -3.2393 H   0  0  0  0  0  0  0  0  0  0  0  0
   -2.2822    0.5534   -3.2688 H   0  0  0  0  0  0  0  0  0  0  0  0
    1.2898    0.0015   -4.5629 H   0  0  0  0  0  0  0  0  0  0  0  0
    2.6000   -0.9662   -3.8832 H   0  0  0  0  0  0  0  0  0  0  0  0
    2.6924    0.8208   -3.8664 H   0  0  0  0  0  0  0  0  0  0  0  0
    3.8530   -0.0450   -1.9866 H   0  0  0  0  0  0  0  0  0  0  0  0
  1  2  2  0  0  0  0
  2  3  1  0  0  0  0
  3  4  2  0  0  0  0
  3  5  1  0  0  0  0
  5 10  2  0  0  0  0
  5  6  1  0  0  0  0
  6  7  2  0  0  0  0
  7  8  1  0  0  0  0
  7 25  1  0  0  0  0
  8 11  1  0  0  0  0
  9 26  1  0  0  0  0
  9  8  2  0  0  0  0
 10  9  1  0  0  0  0
 12 23  1  6  0  0  0
 12  2  1  0  0  0  0
 13 14  2  0  0  0  0
 13 12  1  0  0  0  0
 14 15  2  0  0  0  0
 15 16  1  0  0  0  0
 15  1  2  0  0  0  0
 16 17  2  0  0  0  0
 17 18  1  0  0  0  0
 17 28  1  0  0  0  0
 18 29  1  0  0  0  0
 19 30  1  0  0  0  0
 19 18  2  0  0  0  0
 20 19  1  0  0  0  0
 21 20  2  0  0  0  0
 21 16  1  0  0  0  0
 22 13  1  0  0  0  0
 24  6  1  0  0  0  0
 27 10  1  0  0  0  0
 31 20  1  0  0  0  0
 32 21  1  0  0  0  0
 33 22  1  0  0  0  0
 34 22  1  0  0  0  0
 35 22  1  0  0  0  0
 36 23  1  0  0  0  0
M  END
$$$$
