rmsd38.gzmat
 OpenBabel08211713383D

 36 38  0  0  1  0  0  0  0  0999 V2000
    0.0000    0.0000    0.0000 N   0  0  0  0  0  0  0  0  0  0  0  0
    1.3413    0.0000    0.0000 C   0  0  0  0  0  0  0  0  0  0  0  0
    2.0357    0.0000    1.3362 C   0  0  0  0  0  0  0  0  0  0  0  0
    2.4160   -1.0236    1.8347 O   0  0  0  0  0  0  0  0  0  0  0  0
    2.2418    1.3375    1.9366 C   0  0  0  0  0  0  0  0  0  0  0  0
    3.5131    1.6642    2.4127 C   0  0  0  0  0  0  0  0  0  0  0  0
    3.7423    2.9239    2.9635 C   0  0  0  0  0  0  0  0  0  0  0  0
    2.6781    3.8143    3.0312 C   0  0  0  0  0  0  0  0  0  0  0  0
    1.3997    3.5028    2.5849 C   0  0  0  0  0  0  0  0  0  0  0  0
    1.1838    2.2437    2.0288 C   0  0  0  0  0  0  0  0  0  0  0  0
    2.9530    5.3661    3.7001 Cl  0  0  0  0  0  0  0  0  0  0  0  0
    2.0717    0.0027   -1.1980 C   0  0  1  0  0  0  0  0  0  0  0  0
    1.3466   -0.0161   -2.4107 C   0  0  0  0  0  0  0  0  0  0  0  0
    0.0040   -0.0234   -2.3925 N   0  0  0  0  0  0  0  0  0  0  0  0
   -0.6437   -0.0123   -1.1968 C   0  0  0  0  0  0  0  0  0  0  0  0
   -2.1162   -0.0103   -1.1964 C   0  0  0  0  0  0  0  0  0  0  0  0
   -2.8142   -0.4222   -0.0559 C   0  0  0  0  0  0  0  0  0  0  0  0
   -4.2061   -0.4162   -0.0574 C   0  0  0  0  0  0  0  0  0  0  0  0
   -4.9027   -0.0008   -1.1911 C   0  0  0  0  0  0  0  0  0  0  0  0
   -4.2077    0.4074   -2.3287 C   0  0  0  0  0  0  0  0  0  0  0  0
   -2.8157    0.4024   -2.3350 C   0  0  0  0  0  0  0  0  0  0  0  0
    2.0278   -0.0313   -3.7330 C   0  0  0  0  0  0  0  0  0  0  0  0
    3.4182    0.0472   -1.0947 O   0  0  0  0  0  0  0  0  0  0  0  0
    4.3233    0.9330    2.3547 H   0  0  0  0  0  0  0  0  0  0  0  0
    4.7318    3.1934    3.3314 H   0  0  0  0  0  0  0  0  0  0  0  0
    0.5818    4.2187    2.6629 H   0  0  0  0  0  0  0  0  0  0  0  0
    0.1867    1.9645    1.6732 H   0  0  0  0  0  0  0  0  0  0  0  0
   -2.2649   -0.7459    0.8323 H   0  0  0  0  0  0  0  0  0  0  0  0
   -4.7500   -0.7376    0.8286 H   0  0  0  0  0  0  0  0  0  0  0  0
   -5.9911    0.0037   -1.1893 H   0  0  0  0  0  0  0  0  0  0  0  0
   -4.7524    0.7287   -3.2141 H   0  0  0  0  0  0  0  0  0  0  0  0
   -2.2680    0.7142   -3.2271 H   0  0  0  0  0  0  0  0  0  0  0  0
    1.2946   -0.0249   -4.5630 H   0  0  0  0  0  0  0  0  0  0  0  0
    2.6367   -0.9377   -3.8700 H   0  0  0  0  0  0  0  0  0  0  0  0
    2.6670    0.8521   -3.8773 H   0  0  0  0  0  0  0  0  0  0  0  0
    3.8567   -0.0191   -1.9836 H   0  0  0  0  0  0  0  0  0  0  0  0
  1  2  2  0  0  0  0
  2  3  1  0  0  0  0
  3  4  2  0  0  0  0
  3  5  1  0  0  0  0
  5 10  2  0  0  0  0
  5  6  1  0  0  0  0
  6  7  2  0  0  0  0
  7  8  1  0  0  0  0
  7 25  1  0  0  0  0
  8 11  1  0  0  0  0
  9 26  1  0  0  0  0
  9  8  2  0  0  0  0
 10  9  1  0  0  0  0
 12 23  1  6  0  0  0
 12  2  1  0  0  0  0
 13 14  2  0  0  0  0
 13 12  1  0  0  0  0
 14 15  2  0  0  0  0
 15 16  1  0  0  0  0
 15  1  2  0  0  0  0
 16 17  2  0  0  0  0
 17 28  1  0  0  0  0
 18 17  1  0  0  0  0
 18 29  1  0  0  0  0
 19 30  1  0  0  0  0
 19 18  2  0  0  0  0
 20 19  1  0  0  0  0
 21 20  2  0  0  0  0
 21 16  1  0  0  0  0
 22 13  1  0  0  0  0
 24  6  1  0  0  0  0
 27 10  1  0  0  0  0
 31 20  1  0  0  0  0
 32 21  1  0  0  0  0
 33 22  1  0  0  0  0
 34 22  1  0  0  0  0
 35 22  1  0  0  0  0
 36 23  1  0  0  0  0
M  END
$$$$
