36
rmsd33.gzmat
N          0.00000        0.00000        0.00000
C          1.34110        0.00000        0.00000
C          2.03590        0.00000        1.33580
O          2.44770        1.02780        1.80300
C          2.20970       -1.31600        1.98930
C          3.39320       -1.54500        2.69670
C          3.59800       -2.76900        3.33030
C          2.59670       -3.72830        3.24360
C          1.40710       -3.52080        2.55650
C          1.21590       -2.29440        1.92330
Cl         2.83560       -5.23210        4.02580
C          2.07000        0.02050       -1.19860
C          1.34330        0.06440       -2.41010
N          0.00120        0.07600       -2.39070
C         -0.64710        0.04010       -1.19470
C         -2.11950        0.04490       -1.18940
C         -2.81400        0.18490        0.01780
C         -4.20580        0.19180        0.02080
C         -4.90870        0.05970       -1.17590
C         -4.21890       -0.07950       -2.37940
C         -2.82700       -0.08680       -2.38950
C          2.02350        0.10290       -3.73260
O          3.41630       -0.02570       -1.09850
H          4.15250       -0.76030        2.75440
H          4.51970       -2.95900        3.87930
H          0.63660       -4.29040        2.50930
H          0.28120       -2.09910        1.38820
H         -2.26110        0.29050        0.95590
H         -4.74400        0.30240        0.96000
H         -5.99730        0.06610       -1.17150
H         -4.76800       -0.18040       -3.31310
H         -2.28410       -0.19180       -3.33220
H          1.29000        0.14640       -4.56140
H          2.63340       -0.79610       -3.90670
H          2.66280        0.99190       -3.84070
H          3.85290        0.07060       -1.98590
