36
rmsd36.gzmat
N          0.00000        0.00000        0.00000
C          1.34120        0.00000        0.00000
C          2.03440        0.00000        1.33670
O          2.45210       -1.02370        1.80590
C          2.19890        1.32110        1.98290
C          3.42350        1.60590        2.59290
C          3.62230        2.84190        3.20470
C          2.57470        3.75450        3.19660
C          1.34280        3.48790        2.61200
C          1.15790        2.25120        1.99730
Cl         2.81260        5.27550        3.94600
C          2.07020       -0.01420       -1.19850
C          1.34350       -0.05040       -2.41030
N          0.00140       -0.06070       -2.39100
C         -0.64660       -0.03300       -1.19490
C         -2.11870       -0.04210       -1.19100
C         -2.82560        0.16100       -2.38110
C         -4.21760        0.14200       -2.37370
C         -4.90730       -0.07880       -1.18220
C         -4.20460       -0.28020        0.00500
C         -2.81270       -0.26240        0.00420
C          2.02290       -0.08320       -3.73340
O          3.41670        0.03110       -1.09890
H          4.22010        0.85710        2.59040
H          4.57540        3.07710        3.67660
H          0.53670        4.22110        2.62700
H          0.19450        2.00900        1.53700
H         -2.28280        0.32910       -3.31470
H         -4.76610        0.29740       -3.30020
H         -5.99590       -0.09550       -1.17930
H         -4.74310       -0.45350        0.93470
H         -2.25930       -0.42180        0.93440
H          1.28920       -0.07690       -4.56290
H          2.62320       -0.99670       -3.86310
H          2.67020        0.79280       -3.88630
H          3.85260       -0.05680       -1.98760
