
     RDKit          3D

 36 38  0  0  0  0  0  0  0  0999 V2000
    0.3743   -0.2605   -0.2366 N   0  0  0  0  0  0  0  0  0  0  0  0
    1.6967   -0.2067   -0.3889 C   0  0  0  0  0  0  0  0  0  0  0  0
    2.5501   -0.3525    0.8525 C   0  0  0  0  0  0  0  0  0  0  0  0
    3.4595    0.4323    1.0402 O   0  0  0  0  0  0  0  0  0  0  0  0
    2.2386   -1.4387    1.8301 C   0  0  0  0  0  0  0  0  0  0  0  0
    2.9488   -1.4351    3.0433 C   0  0  0  0  0  0  0  0  0  0  0  0
    2.7429   -2.4261    3.9966 C   0  0  0  0  0  0  0  0  0  0  0  0
    1.8179   -3.4430    3.7313 C   0  0  0  0  0  0  0  0  0  0  0  0
    1.1060   -3.4734    2.5289 C   0  0  0  0  0  0  0  0  0  0  0  0
    1.3164   -2.4699    1.5844 C   0  0  0  0  0  0  0  0  0  0  0  0
    1.5518   -4.6917    4.9187 Cl  0  0  0  0  0  0  0  0  0  0  0  0
    2.2704    0.0580   -1.6456 C   0  0  0  0  0  0  0  0  0  0  0  0
    1.3734    0.2736   -2.7157 C   0  0  0  0  0  0  0  0  0  0  0  0
    0.0592    0.2260   -2.5259 N   0  0  0  0  0  0  0  0  0  0  0  0
   -0.4103   -0.0390   -1.2970 C   0  0  0  0  0  0  0  0  0  0  0  0
   -1.8792   -0.1012   -1.1028 C   0  0  0  0  0  0  0  0  0  0  0  0
   -2.4162   -0.3633    0.1692 C   0  0  0  0  0  0  0  0  0  0  0  0
   -3.7974   -0.4269    0.3508 C   0  0  0  0  0  0  0  0  0  0  0  0
   -4.6598   -0.2290   -0.7325 C   0  0  0  0  0  0  0  0  0  0  0  0
   -4.1316    0.0338   -2.0006 C   0  0  0  0  0  0  0  0  0  0  0  0
   -2.7508    0.0978   -2.1864 C   0  0  0  0  0  0  0  0  0  0  0  0
    1.8947    0.5619   -4.0977 C   0  0  0  0  0  0  0  0  0  0  0  0
    3.6087    0.0735   -1.7973 O   0  0  0  0  0  0  0  0  0  0  0  0
    3.6689   -0.6336    3.2165 H   0  0  0  0  0  0  0  0  0  0  0  0
    3.2891   -2.4234    4.9408 H   0  0  0  0  0  0  0  0  0  0  0  0
    0.3921   -4.2765    2.3421 H   0  0  0  0  0  0  0  0  0  0  0  0
    0.7513   -2.4893    0.6541 H   0  0  0  0  0  0  0  0  0  0  0  0
   -1.7323   -0.5123    1.0055 H   0  0  0  0  0  0  0  0  0  0  0  0
   -4.2047   -0.6304    1.3441 H   0  0  0  0  0  0  0  0  0  0  0  0
   -5.7419   -0.2785   -0.5884 H   0  0  0  0  0  0  0  0  0  0  0  0
   -4.8011    0.1899   -2.8501 H   0  0  0  0  0  0  0  0  0  0  0  0
   -2.3242    0.3016   -3.1689 H   0  0  0  0  0  0  0  0  0  0  0  0
    1.0484    0.7071   -4.7799 H   0  0  0  0  0  0  0  0  0  0  0  0
    2.5095   -0.2716   -4.4815 H   0  0  0  0  0  0  0  0  0  0  0  0
    2.5151    1.4753   -4.1139 H   0  0  0  0  0  0  0  0  0  0  0  0
    3.8346    0.2481   -2.7202 H   0  0  0  0  0  0  0  0  0  0  0  0
  1  2  2  0
  1 15  1  0
  2  3  1  0
  2 12  1  0
  3  4  2  0
  3  5  1  0
  5  6  2  0
  5 10  1  0
  6  7  1  0
  6 24  1  0
  7  8  2  0
  7 25  1  0
  8  9  1  0
  8 11  1  0
  9 10  2  0
  9 26  1  0
 10 27  1  0
 12 13  2  0
 12 23  1  0
 13 14  1  0
 13 22  1  0
 14 15  2  0
 15 16  1  0
 16 17  2  0
 16 21  1  0
 17 18  1  0
 17 28  1  0
 18 19  2  0
 18 29  1  0
 19 20  1  0
 19 30  1  0
 20 21  2  0
 20 31  1  0
 21 32  1  0
 22 33  1  0
 22 34  1  0
 22 35  1  0
 23 36  1  0
M  END

