36

N          0.37430       -0.26050       -0.23660
C          1.69670       -0.20670       -0.38890
C          2.55010       -0.35250        0.85250
O          3.45950        0.43230        1.04020
C          2.23860       -1.43870        1.83010
C          2.94880       -1.43510        3.04330
C          2.74290       -2.42610        3.99660
C          1.81790       -3.44300        3.73130
C          1.10600       -3.47340        2.52890
C          1.31640       -2.46990        1.58440
Cl         1.55180       -4.69170        4.91870
C          2.27040        0.05800       -1.64560
C          1.37340        0.27360       -2.71570
N          0.05920        0.22600       -2.52590
C         -0.41030       -0.03900       -1.29700
C         -1.87920       -0.10120       -1.10280
C         -2.41620       -0.36330        0.16920
C         -3.79740       -0.42690        0.35080
C         -4.65980       -0.22900       -0.73250
C         -4.13160        0.03380       -2.00060
C         -2.75080        0.09780       -2.18640
C          1.89470        0.56190       -4.09770
O          3.60870        0.07350       -1.79730
H          3.66890       -0.63360        3.21650
H          3.28910       -2.42340        4.94080
H          0.39210       -4.27650        2.34210
H          0.75130       -2.48930        0.65410
H         -1.73230       -0.51230        1.00550
H         -4.20470       -0.63040        1.34410
H         -5.74190       -0.27850       -0.58840
H         -4.80110        0.18990       -2.85010
H         -2.32420        0.30160       -3.16890
H          1.04840        0.70710       -4.77990
H          2.50950       -0.27160       -4.48150
H          2.51510        1.47530       -4.11390
H          3.83460        0.24810       -2.72020
