rmsd33.gzmat
 OpenBabel08211713383D

 36 38  0  0  1  0  0  0  0  0999 V2000
    0.0000    0.0000    0.0000 N   0  0  0  0  0  0  0  0  0  0  0  0
    1.3411    0.0000    0.0000 C   0  0  0  0  0  0  0  0  0  0  0  0
    2.0359    0.0000    1.3358 C   0  0  0  0  0  0  0  0  0  0  0  0
    2.4477    1.0278    1.8030 O   0  0  0  0  0  0  0  0  0  0  0  0
    2.2097   -1.3160    1.9893 C   0  0  0  0  0  0  0  0  0  0  0  0
    3.3932   -1.5450    2.6967 C   0  0  0  0  0  0  0  0  0  0  0  0
    3.5980   -2.7690    3.3303 C   0  0  0  0  0  0  0  0  0  0  0  0
    2.5967   -3.7283    3.2436 C   0  0  0  0  0  0  0  0  0  0  0  0
    1.4071   -3.5208    2.5565 C   0  0  0  0  0  0  0  0  0  0  0  0
    1.2159   -2.2944    1.9233 C   0  0  0  0  0  0  0  0  0  0  0  0
    2.8356   -5.2321    4.0258 Cl  0  0  0  0  0  0  0  0  0  0  0  0
    2.0700    0.0205   -1.1986 C   0  0  2  0  0  0  0  0  0  0  0  0
    1.3433    0.0644   -2.4101 C   0  0  0  0  0  0  0  0  0  0  0  0
    0.0012    0.0760   -2.3907 N   0  0  0  0  0  0  0  0  0  0  0  0
   -0.6471    0.0401   -1.1947 C   0  0  0  0  0  0  0  0  0  0  0  0
   -2.1195    0.0449   -1.1894 C   0  0  0  0  0  0  0  0  0  0  0  0
   -2.8140    0.1849    0.0178 C   0  0  0  0  0  0  0  0  0  0  0  0
   -4.2058    0.1918    0.0208 C   0  0  0  0  0  0  0  0  0  0  0  0
   -4.9087    0.0597   -1.1759 C   0  0  0  0  0  0  0  0  0  0  0  0
   -4.2189   -0.0795   -2.3794 C   0  0  0  0  0  0  0  0  0  0  0  0
   -2.8270   -0.0868   -2.3895 C   0  0  0  0  0  0  0  0  0  0  0  0
    2.0235    0.1029   -3.7326 C   0  0  0  0  0  0  0  0  0  0  0  0
    3.4163   -0.0257   -1.0985 O   0  0  0  0  0  0  0  0  0  0  0  0
    4.1525   -0.7603    2.7544 H   0  0  0  0  0  0  0  0  0  0  0  0
    4.5197   -2.9590    3.8793 H   0  0  0  0  0  0  0  0  0  0  0  0
    0.6366   -4.2904    2.5093 H   0  0  0  0  0  0  0  0  0  0  0  0
    0.2812   -2.0991    1.3882 H   0  0  0  0  0  0  0  0  0  0  0  0
   -2.2611    0.2905    0.9559 H   0  0  0  0  0  0  0  0  0  0  0  0
   -4.7440    0.3024    0.9600 H   0  0  0  0  0  0  0  0  0  0  0  0
   -5.9973    0.0661   -1.1715 H   0  0  0  0  0  0  0  0  0  0  0  0
   -4.7680   -0.1804   -3.3131 H   0  0  0  0  0  0  0  0  0  0  0  0
   -2.2841   -0.1918   -3.3322 H   0  0  0  0  0  0  0  0  0  0  0  0
    1.2900    0.1464   -4.5614 H   0  0  0  0  0  0  0  0  0  0  0  0
    2.6334   -0.7961   -3.9067 H   0  0  0  0  0  0  0  0  0  0  0  0
    2.6628    0.9919   -3.8407 H   0  0  0  0  0  0  0  0  0  0  0  0
    3.8529    0.0706   -1.9859 H   0  0  0  0  0  0  0  0  0  0  0  0
  1  2  2  0  0  0  0
  2  3  1  0  0  0  0
  3  4  2  0  0  0  0
  3  5  1  0  0  0  0
  5  6  1  0  0  0  0
  6 24  1  0  0  0  0
  6  7  2  0  0  0  0
  7 25  1  0  0  0  0
  8  7  1  0  0  0  0
  8 11  1  0  0  0  0
  9  8  2  0  0  0  0
 10  5  2  0  0  0  0
 10  9  1  0  0  0  0
 12 23  1  6  0  0  0
 12  2  1  0  0  0  0
 13 14  2  0  0  0  0
 13 12  1  0  0  0  0
 14 15  2  0  0  0  0
 15 16  1  0  0  0  0
 15  1  2  0  0  0  0
 16 17  2  0  0  0  0
 17 18  1  0  0  0  0
 17 28  1  0  0  0  0
 18 29  1  0  0  0  0
 19 30  1  0  0  0  0
 19 18  2  0  0  0  0
 20 19  1  0  0  0  0
 21 20  2  0  0  0  0
 21 16  1  0  0  0  0
 22 13  1  0  0  0  0
 26  9  1  0  0  0  0
 27 10  1  0  0  0  0
 31 20  1  0  0  0  0
 32 21  1  0  0  0  0
 33 22  1  0  0  0  0
 34 22  1  0  0  0  0
 35 22  1  0  0  0  0
 36 23  1  0  0  0  0
M  END
$$$$
