rmsd1.gzmat
 OpenBabel08211713383D

 36 38  0  0  1  0  0  0  0  0999 V2000
    0.0000    0.0000    0.0000 N   0  0  0  0  0  0  0  0  0  0  0  0
    1.3412    0.0000    0.0000 C   0  0  0  0  0  0  0  0  0  0  0  0
    2.0309    0.0000    1.3385 C   0  0  0  0  0  0  0  0  0  0  0  0
    2.4521    1.0256    1.8021 O   0  0  0  0  0  0  0  0  0  0  0  0
    2.1852   -1.3145    2.0001 C   0  0  0  0  0  0  0  0  0  0  0  0
    3.3685   -1.5589    2.7026 C   0  0  0  0  0  0  0  0  0  0  0  0
    3.5584   -2.7838    3.3389 C   0  0  0  0  0  0  0  0  0  0  0  0
    2.5427   -3.7286    3.2597 C   0  0  0  0  0  0  0  0  0  0  0  0
    1.3513   -3.5035    2.5816 C   0  0  0  0  0  0  0  0  0  0  0  0
    1.1758   -2.2771    1.9442 C   0  0  0  0  0  0  0  0  0  0  0  0
    2.7665   -5.2363    4.0390 Cl  0  0  0  0  0  0  0  0  0  0  0  0
    2.0707    0.0180   -1.1983 C   0  0  2  0  0  0  0  0  0  0  0  0
    1.3437    0.0637   -2.4099 C   0  0  0  0  0  0  0  0  0  0  0  0
    0.0017    0.0732   -2.3901 N   0  0  0  0  0  0  0  0  0  0  0  0
   -0.6466    0.0355   -1.1944 C   0  0  0  0  0  0  0  0  0  0  0  0
   -2.1188    0.0288   -1.1908 C   0  0  0  0  0  0  0  0  0  0  0  0
   -2.8217   -0.1647   -2.3848 C   0  0  0  0  0  0  0  0  0  0  0  0
   -4.2135   -0.1729   -2.3769 C   0  0  0  0  0  0  0  0  0  0  0  0
   -4.9070    0.0112   -1.1815 C   0  0  0  0  0  0  0  0  0  0  0  0
   -4.2083    0.2050    0.0093 C   0  0  0  0  0  0  0  0  0  0  0  0
   -2.8164    0.2155    0.0081 C   0  0  0  0  0  0  0  0  0  0  0  0
    2.0201    0.1070   -3.7343 C   0  0  0  0  0  0  0  0  0  0  0  0
    3.4168   -0.0344   -1.0972 O   0  0  0  0  0  0  0  0  0  0  0  0
    4.1399   -0.7852    2.7535 H   0  0  0  0  0  0  0  0  0  0  0  0
    4.4794   -2.9854    3.8846 H   0  0  0  0  0  0  0  0  0  0  0  0
    0.5689   -4.2611    2.5430 H   0  0  0  0  0  0  0  0  0  0  0  0
    0.2419   -2.0696    1.4123 H   0  0  0  0  0  0  0  0  0  0  0  0
   -2.2760   -0.3052   -3.3211 H   0  0  0  0  0  0  0  0  0  0  0  0
   -4.7590   -0.3216   -3.3064 H   0  0  0  0  0  0  0  0  0  0  0  0
   -5.9956    0.0045   -1.1791 H   0  0  0  0  0  0  0  0  0  0  0  0
   -4.7494    0.3498    0.9422 H   0  0  0  0  0  0  0  0  0  0  0  0
   -2.2660    0.3690    0.9413 H   0  0  0  0  0  0  0  0  0  0  0  0
    1.2837    0.1129   -4.5618 H   0  0  0  0  0  0  0  0  0  0  0  0
    2.6623   -0.7705   -3.8990 H   0  0  0  0  0  0  0  0  0  0  0  0
    2.6239    1.0189   -3.8567 H   0  0  0  0  0  0  0  0  0  0  0  0
    3.8555    0.0540   -1.9842 H   0  0  0  0  0  0  0  0  0  0  0  0
  2  1  2  0  0  0  0
  2  3  1  0  0  0  0
  3  4  2  0  0  0  0
  3  5  1  0  0  0  0
  5  6  1  0  0  0  0
  6 24  1  0  0  0  0
  6  7  2  0  0  0  0
  7 25  1  0  0  0  0
  8  7  1  0  0  0  0
  8 11  1  0  0  0  0
  9  8  2  0  0  0  0
 10  5  2  0  0  0  0
 10  9  1  0  0  0  0
 12 23  1  6  0  0  0
 12  2  1  0  0  0  0
 13 14  2  0  0  0  0
 13 12  1  0  0  0  0
 14 15  2  0  0  0  0
 15 16  1  0  0  0  0
 15  1  2  0  0  0  0
 16 21  2  0  0  0  0
 17 18  2  0  0  0  0
 17 16  1  0  0  0  0
 18 19  1  0  0  0  0
 19 30  1  0  0  0  0
 19 20  2  0  0  0  0
 20 31  1  0  0  0  0
 21 20  1  0  0  0  0
 21 32  1  0  0  0  0
 22 13  1  0  0  0  0
 26  9  1  0  0  0  0
 27 10  1  0  0  0  0
 28 17  1  0  0  0  0
 29 18  1  0  0  0  0
 33 22  1  0  0  0  0
 34 22  1  0  0  0  0
 35 22  1  0  0  0  0
 36 23  1  0  0  0  0
M  END
$$$$
