36
rmsd32.gzmat
N          0.00000        0.00000        0.00000
C          1.34170        0.00000        0.00000
C          2.02930        0.00000        1.33970
O          2.45490        1.02450        1.80150
C          2.17250       -1.31400        2.00510
C          3.36710       -1.58290        2.67880
C          3.54350       -2.80930        3.31670
C          2.50390       -3.72960        3.26730
C          1.30080       -3.47860        2.61960
C          1.13850       -2.25110        1.98110
Cl         2.71210       -5.24160        4.04310
C          2.07050        0.01840       -1.19850
C          1.34310        0.06080       -2.41020
N          0.00120        0.06980       -2.39040
C         -0.64600        0.03520       -1.19430
C         -2.11810        0.03380       -1.19230
C         -2.81670        0.34070       -0.01930
C         -4.20870        0.33990       -0.02280
C         -4.90540        0.03360       -1.19090
C         -4.20990       -0.27410       -2.35950
C         -2.81800       -0.27270       -2.36370
C          2.01960        0.10220       -3.73450
O          3.41700       -0.02990       -1.10080
H          4.15850       -0.82950        2.70400
H          4.47280       -3.03090        3.84010
H          0.49930       -4.21690        2.60590
H          0.19650       -2.02230        1.47230
H         -2.26780        0.57980        0.89610
H         -4.75160        0.57980        0.88920
H         -5.99390        0.03600       -1.19090
H         -4.75330       -0.51410       -3.27100
H         -2.27000       -0.50470       -3.28000
H          1.28300        0.11610       -4.56190
H          2.65450       -0.78040       -3.90100
H          2.63060        1.00950       -3.85450
H          3.85190        0.06940       -1.98850
