36
rmsd37.gzmat
N          0.00000        0.00000        0.00000
C          1.34140        0.00000        0.00000
C          2.03920        0.00000        1.33420
O          2.46680       -1.01810        1.80540
C          2.18830        1.32720        1.97350
C          3.44280        1.68970        2.46860
C          3.61370        2.93250        3.07520
C          2.51090        3.77120        3.17570
C          1.25100        3.42650        2.70220
C          1.09340        2.18440        2.09180
Cl         2.71230        5.29930        3.92050
C          2.07150       -0.00060       -1.19760
C          1.34570       -0.01680       -2.41000
N          0.00390       -0.02640       -2.39150
C         -0.64630       -0.01570       -1.19560
C         -2.11890       -0.01590       -1.19720
C         -2.81790        0.09370       -2.40440
C         -4.20970        0.09590       -2.40440
C         -4.90850       -0.01310       -1.20330
C         -4.21460       -0.12530        0.00060
C         -2.82260       -0.12630        0.00760
C          2.02780       -0.02450       -3.73200
O          3.41810        0.04000       -1.09520
H          4.28550        0.99980        2.38010
H          4.58820        3.22880        3.46140
H          0.40370        4.10450        2.79950
H          0.11240        1.88140        1.71210
H         -2.26950        0.17460       -3.34630
H         -4.75050        0.18280       -3.34430
H         -5.99700       -0.01290       -1.20650
H         -4.76060       -0.21330        0.93760
H         -2.27750       -0.21530        0.95170
H          1.29730        0.02400       -4.56290
H          2.60700       -0.94750       -3.88730
H          2.69590        0.84030       -3.85610
H          3.85570       -0.04480       -1.98310
