37
rmsd160.gzmat
O          0.00000        0.00000        0.00000
C          1.46580        0.00000        0.00000
H          1.71640        0.00000        1.07930
C          1.88200        1.27580       -0.70400
C          1.93950       -1.29290       -0.72380
C          0.65810       -1.90610       -1.15690
C          0.34130       -3.01180       -1.91790
N         -0.99940       -3.25610       -2.16640
C         -2.06710       -2.36320       -1.68770
O         -3.19410       -2.66310       -1.98790
N         -1.70150       -1.26310       -0.93160
C         -0.41670       -1.07280       -0.70640
C         -1.41790       -4.44070       -2.92300
N          1.33330       -3.82570       -2.50120
C          2.21680       -4.53500       -1.54960
C          1.53650       -5.75280       -0.98090
C          1.80830       -7.01550       -1.50620
C          1.14140       -8.13260       -1.00660
C          0.20390       -7.98800        0.01470
C         -0.06250       -6.72550        0.54350
C          0.60650       -5.60860        0.05000
H          1.57550        1.27150       -1.76020
H          2.96650        1.42360       -0.66770
H          1.40690        2.15490       -0.24490
H          2.51850       -1.93960       -0.04070
H          2.60420       -1.07030       -1.57980
H         -2.52500       -4.55280       -2.87320
H         -0.98580       -5.36250       -2.49620
H         -1.15450       -4.35230       -3.99060
H          1.01250       -4.44090       -3.24980
H          2.54080       -3.84210       -0.73880
H          3.14650       -4.80220       -2.10710
H          2.54020       -7.13370       -2.30290
H          1.35230       -9.11910       -1.41620
H         -0.31790       -8.86180        0.40200
H         -0.79460       -6.61030        1.34250
H          0.39910       -4.62270        0.46690
