37
rmsd158.gzmat
O          0.00000        0.00000        0.00000
C          1.46230        0.00000        0.00000
H          1.71590        0.00000        1.07930
C          1.88100        1.27540       -0.70320
C          1.93180       -1.29510       -0.72200
C          0.64980       -1.93540       -1.12010
C          0.31680       -3.07850       -1.83020
N         -1.03390       -3.32510       -2.03540
C         -2.08980       -2.40300       -1.57950
O         -3.22100       -2.70690       -1.85960
N         -1.70830       -1.28320       -0.86890
C         -0.41720       -1.09130       -0.67680
C         -1.48330       -4.52080       -2.75730
N          1.24500       -3.93560       -2.42590
C          2.47760       -4.28880       -1.69900
C          2.21590       -5.23890       -0.55910
C          1.52350       -4.80230        0.57130
C          1.26900       -5.68530        1.61710
C          1.71740       -7.00330        1.54120
C          2.41800       -7.43640        0.41710
C          2.66430       -6.55700       -0.63580
H          1.57760        1.27250       -1.75970
H          2.96520        1.42410       -0.66240
H          1.40390        2.15390       -0.24480
H          2.53210       -1.92330       -0.03850
H          2.57080       -1.06430       -1.59460
H         -2.59590       -4.58410       -2.73230
H         -1.10590       -5.44330       -2.28520
H         -1.19390       -4.48330       -3.82140
H          0.86750       -4.73270       -2.93770
H          2.99250       -3.37040       -1.33610
H          3.17630       -4.73420       -2.45000
H          1.17120       -3.77140        0.63660
H          0.71950       -5.34430        2.49420
H          1.51970       -7.69390        2.35940
H          2.77290       -8.46380        0.35940
H          3.20730       -6.90430       -1.51230
