rmsd107.gzmat
 OpenBabel08211713413D

 37 39  0  0  1  0  0  0  0  0999 V2000
    0.0000    0.0000    0.0000 O   0  0  0  0  0  0  0  0  0  0  0  0
    1.4620    0.0000    0.0000 C   0  0  2  0  0  0  0  0  0  0  0  0
    1.7163    0.0000    1.0790 H   0  0  0  0  0  0  0  0  0  0  0  0
    1.8822    1.2728   -0.7070 C   0  0  0  0  0  0  0  0  0  0  0  0
    1.9318   -1.2973   -0.7182 C   0  0  0  0  0  0  0  0  0  0  0  0
    0.6499   -1.9519   -1.0931 C   0  0  0  0  0  0  0  0  0  0  0  0
    0.3157   -3.1104   -1.7786 C   0  0  0  0  0  0  0  0  0  0  0  0
   -1.0368   -3.3700   -1.9595 N   0  0  0  0  0  0  0  0  0  0  0  0
   -2.0926   -2.4490   -1.5003 C   0  0  0  0  0  0  0  0  0  0  0  0
   -3.2262   -2.7704   -1.7490 O   0  0  0  0  0  0  0  0  0  0  0  0
   -1.7092   -1.3112   -0.8207 N   0  0  0  0  0  0  0  0  0  0  0  0
   -0.4168   -1.1066   -0.6516 C   0  0  0  0  0  0  0  0  0  0  0  0
   -1.4904   -4.5752   -2.6630 C   0  0  0  0  0  0  0  0  0  0  0  0
    1.2359   -3.9743   -2.3728 N   0  0  0  0  0  0  0  0  0  0  0  0
    2.5172   -4.2637   -1.7066 C   0  0  0  0  0  0  0  0  0  0  0  0
    2.3608   -5.1881   -0.5264 C   0  0  0  0  0  0  0  0  0  0  0  0
    2.9464   -6.4536   -0.5578 C   0  0  0  0  0  0  0  0  0  0  0  0
    2.8112   -7.3094    0.5338 C   0  0  0  0  0  0  0  0  0  0  0  0
    2.0856   -6.9061    1.6531 C   0  0  0  0  0  0  0  0  0  0  0  0
    1.4980   -5.6422    1.6828 C   0  0  0  0  0  0  0  0  0  0  0  0
    1.6403   -4.7817    0.5975 C   0  0  0  0  0  0  0  0  0  0  0  0
    1.5243    1.2913   -1.7466 H   0  0  0  0  0  0  0  0  0  0  0  0
    2.9715    1.3870   -0.7208 H   0  0  0  0  0  0  0  0  0  0  0  0
    1.4574    2.1597   -0.2154 H   0  0  0  0  0  0  0  0  0  0  0  0
    2.5469   -1.9135   -0.0367 H   0  0  0  0  0  0  0  0  0  0  0  0
    2.5561   -1.0674   -1.6019 H   0  0  0  0  0  0  0  0  0  0  0  0
   -2.6037   -4.6266   -2.6476 H   0  0  0  0  0  0  0  0  0  0  0  0
   -1.1289   -5.4923   -2.1685 H   0  0  0  0  0  0  0  0  0  0  0  0
   -1.1920   -4.5625   -3.7250 H   0  0  0  0  0  0  0  0  0  0  0  0
    0.8576   -4.8000   -2.8351 H   0  0  0  0  0  0  0  0  0  0  0  0
    3.0235   -3.3205   -1.4008 H   0  0  0  0  0  0  0  0  0  0  0  0
    3.1865   -4.7074   -2.4858 H   0  0  0  0  0  0  0  0  0  0  0  0
    3.5112   -6.7794   -1.4289 H   0  0  0  0  0  0  0  0  0  0  0  0
    3.2734   -8.2946    0.5115 H   0  0  0  0  0  0  0  0  0  0  0  0
    1.9790   -7.5771    2.5040 H   0  0  0  0  0  0  0  0  0  0  0  0
    0.9268   -5.3263    2.5554 H   0  0  0  0  0  0  0  0  0  0  0  0
    1.1801   -3.7923    0.6303 H   0  0  0  0  0  0  0  0  0  0  0  0
  1  2  1  0  0  0  0
  2  3  1  1  0  0  0
  4 24  1  0  0  0  0
  4  2  1  0  0  0  0
  5 25  1  0  0  0  0
  5  2  1  0  0  0  0
  6  5  1  0  0  0  0
  6 12  1  0  0  0  0
  7  6  2  0  0  0  0
  8  7  1  0  0  0  0
  8  9  1  0  0  0  0
  9 11  2  0  0  0  0
 10  9  2  0  0  0  0
 11 12  2  0  0  0  0
 12  1  1  0  0  0  0
 13 27  1  0  0  0  0
 13 28  1  0  0  0  0
 13  8  1  0  0  0  0
 14  7  1  0  0  0  0
 14 15  1  0  0  0  0
 15 31  1  0  0  0  0
 15 16  1  0  0  0  0
 16 21  1  0  0  0  0
 17 16  2  0  0  0  0
 17 18  1  0  0  0  0
 18 19  2  0  0  0  0
 19 20  1  0  0  0  0
 19 35  1  0  0  0  0
 20 36  1  0  0  0  0
 21 37  1  0  0  0  0
 21 20  2  0  0  0  0
 22  4  1  0  0  0  0
 23  4  1  0  0  0  0
 26  5  1  0  0  0  0
 29 13  1  0  0  0  0
 30 14  1  0  0  0  0
 32 15  1  0  0  0  0
 33 17  1  0  0  0  0
 34 18  1  0  0  0  0
M  END
$$$$
