37
rmsd76.gzmat
O          0.00000        0.00000        0.00000
C          1.46310        0.00000        0.00000
H          1.71520        0.00000        1.07920
C          1.88510        1.27270       -0.70610
C          1.93400       -1.29490       -0.72190
C          0.65270       -1.92230       -1.13890
C          0.32720       -3.04630       -1.87830
N         -1.02040       -3.29040       -2.10070
C         -2.08110       -2.38510       -1.62370
O         -3.21130       -2.68960       -1.90750
N         -1.70560       -1.27520       -0.89230
C         -0.41630       -1.08400       -0.68990
C         -1.45880       -4.47570       -2.84560
N          1.27600       -3.87940       -2.48470
C          2.41970       -4.34420       -1.67520
C          1.99890       -5.37220       -0.65720
C          2.30360       -6.71850       -0.85310
C          1.88610       -7.66670        0.07940
C          1.16030       -7.27160        1.20150
C          0.85760       -5.92450        1.39700
C          1.28290       -4.97430        0.47300
H          1.54490        1.28540       -1.75160
H          2.97360        1.39280       -0.70530
H          1.44770        2.15900       -0.22500
H          2.51930       -1.93260       -0.03460
H          2.58710       -1.06750       -1.58500
H         -2.57200       -4.52690       -2.85920
H         -1.10780       -5.40480       -2.36540
H         -1.13330       -4.43710       -3.89870
H          0.90840       -4.62400       -3.07740
H          2.92320       -3.48080       -1.18310
H          3.17490       -4.75530       -2.38890
H          2.86630       -7.03520       -1.72880
H          2.12750       -8.71750       -0.07070
H          0.82960       -8.01390        1.92630
H          0.28570       -5.61470        2.27150
H          1.04580       -3.92050        0.62940
