37
rmsd164.gzmat
O          0.00000        0.00000        0.00000
C          1.46440        0.00000        0.00000
H          1.71590        0.00000        1.07900
C          1.88280        1.27430       -0.70520
C          1.93610       -1.29330       -0.72460
C          0.65550       -1.89960       -1.17120
C          0.33630       -2.99840       -1.94540
N         -1.00670       -3.23110       -2.19920
C         -2.06950       -2.32480       -1.73110
O         -3.19510       -2.60760       -2.05230
N         -1.70080       -1.23730       -0.96100
C         -0.41570       -1.06310       -0.72160
C         -1.43330       -4.39930       -2.97650
N          1.31060       -3.81170       -2.54680
C          2.31330       -4.42900       -1.65540
C          1.79150       -5.69110       -1.01940
C          2.34500       -6.92500       -1.35810
C          1.84750       -8.09110       -0.77880
C          0.79520       -8.02540        0.13210
C          0.24410       -6.79060        0.47210
C          0.74560       -5.62340       -0.09720
H          1.52410        1.29360       -1.74450
H          2.97160        1.38850       -0.72220
H          1.45860        2.16030       -0.21200
H          2.50290       -1.94360       -0.03420
H          2.60940       -1.07100       -1.57360
H         -2.54160       -4.50210       -2.92840
H         -1.01020       -5.33250       -2.56670
H         -1.17010       -4.29360       -4.04270
H          0.97410       -4.46840       -3.25130
H          2.63830       -3.70560       -0.87170
H          3.21950       -4.62430       -2.27920
H          3.16680       -6.98390       -2.06900
H          2.28180       -9.05450       -1.04050
H          0.40520       -8.93790        0.58040
H         -0.57710       -6.73800        1.18640
H          0.31930       -4.65790        0.17850
