37

O          0.60350       -0.18640       -0.42480
C          1.85350       -0.25640       -1.15600
H          2.63310        0.09600       -0.46510
C          1.76590        0.65310       -2.37170
C          2.04040       -1.74810       -1.53190
C          0.62250       -2.24470       -1.42150
C         -0.06000       -3.39190       -1.78120
N         -1.37250       -3.51350       -1.37780
C         -2.05570       -2.49920       -0.58120
O         -3.20350       -2.71690       -0.24580
N         -1.35850       -1.36540       -0.28500
C         -0.12660       -1.28590       -0.68860
C         -2.14560       -4.69530       -1.72260
N          0.45540       -4.42500       -2.51710
C          1.67140       -4.33840       -3.29840
C          1.66060       -3.31620       -4.42500
C          0.47840       -2.72030       -4.87640
C          0.50860       -1.77050       -5.90240
C          1.72160       -1.40970       -6.49220
C          2.90750       -2.00600       -6.05150
C          2.87500       -2.94860       -5.02290
H          1.01790        0.26920       -3.08350
H          2.73820        0.69710       -2.88690
H          1.47650        1.67080       -2.07200
H          2.71190       -2.25770       -0.81860
H          2.48490       -1.83190       -2.53240
H         -3.13480       -4.56100       -1.27140
H         -1.68560       -5.61130       -1.31520
H         -2.26360       -4.79950       -2.81560
H         -0.19580       -5.14670       -2.78820
H          1.84980       -5.34240       -3.71610
H          2.52990       -4.13890       -2.63820
H         -0.47500       -2.98620       -4.41740
H         -0.42280       -1.30800       -6.23720
H          1.74490       -0.66450       -7.29060
H          3.86190       -1.73000       -6.50620
H          3.80770       -3.40040       -4.67180
