37
rmsd167.gzmat
O          0.00000        0.00000        0.00000
C          1.46420        0.00000        0.00000
H          1.71470        0.00000        1.07980
C          1.88070        1.27580       -0.70400
C          1.93510       -1.29490       -0.72220
C          0.65360       -1.91210       -1.15280
C          0.32980       -3.02340       -1.90820
N         -1.01480       -3.26080       -2.14870
C         -2.07640       -2.35640       -1.67490
O         -3.20470       -2.65010       -1.97570
N         -1.70410       -1.25750       -0.92390
C         -0.41690       -1.07380       -0.70390
C         -1.44640       -4.43930       -2.90780
N          1.29580       -3.84890       -2.50450
C          2.32950       -4.42380       -1.62050
C          1.80020       -5.58550       -0.82040
C          2.22560       -6.88270       -1.10150
C          1.72210       -7.95280       -0.36350
C          0.79030       -7.72870        0.64800
C          0.36510       -6.43060        0.92800
C          0.87410       -5.35910        0.19960
H          1.58190        1.26730       -1.76240
H          2.96400        1.42960       -0.65920
H          1.39750        2.15380       -0.25010
H          2.51100       -1.93810       -0.03230
H          2.59860       -1.07280       -1.57870
H         -2.55800       -4.51280       -2.89530
H         -1.06190       -5.36990       -2.45670
H         -1.14630       -4.37230       -3.96710
H          0.94740       -4.53480       -3.17440
H          2.73920       -3.63920       -0.94250
H          3.18240       -4.72570       -2.27560
H          2.94960       -7.06710       -1.89250
H          2.05760       -8.96550       -0.57960
H          0.39510       -8.56630        1.22070
H         -0.36620       -6.25400        1.71640
H          0.54340       -4.34420        0.42470
