37

O          0.31910       -0.18040       -0.19600
C          1.67600       -0.60640        0.07450
H          1.68780       -0.95600        1.12240
C          2.60850        0.57410       -0.09070
C          1.94730       -1.80540       -0.86770
C          0.54360       -2.20190       -1.24440
C         -0.03890       -3.24500       -1.94150
N         -1.39590       -3.18380       -2.17620
C         -2.22540       -2.06000       -1.75410
O         -3.40990       -2.09350       -2.02500
N         -1.60990       -1.05160       -1.07350
C         -0.33290       -1.15260       -0.85950
C         -2.07120       -4.25350       -2.89240
N          0.61730       -4.34210       -2.43010
C          1.97100       -4.71350       -2.07850
C          2.18590       -5.15070       -0.63780
C          3.49660       -5.29030       -0.15760
C          3.73490       -5.69770        1.15560
C          2.66140       -5.96550        2.01140
C          1.35430       -5.82570        1.54160
C          1.11810       -5.42180        0.22370
H          2.57870        0.94370       -1.12760
H          3.64190        0.27680        0.14780
H          2.31900        1.39660        0.57970
H          2.52280       -2.58180       -0.34500
H          2.53810       -1.47940       -1.74360
H         -3.12470       -3.96200       -2.96360
H         -2.00340       -5.21240       -2.34900
H         -1.66180       -4.37930       -3.90900
H          0.03800       -5.07820       -2.80610
H          2.65790       -3.88730       -2.31530
H          2.25880       -5.53560       -2.75380
H          4.34020       -5.07280       -0.81980
H          4.76160       -5.80200        1.51470
H          2.84500       -6.27840        3.04180
H          0.50920       -6.02710        2.20410
H          0.09220       -5.30780       -0.12980
