rmsd172.gzmat
 OpenBabel08211713413D

 37 39  0  0  1  0  0  0  0  0999 V2000
    0.0000    0.0000    0.0000 O   0  0  0  0  0  0  0  0  0  0  0  0
    1.4659    0.0000    0.0000 C   0  0  2  0  0  0  0  0  0  0  0  0
    1.7183    0.0000    1.0793 H   0  0  0  0  0  0  0  0  0  0  0  0
    1.8810    1.2759   -0.7040 C   0  0  0  0  0  0  0  0  0  0  0  0
    1.9406   -1.2932   -0.7222 C   0  0  0  0  0  0  0  0  0  0  0  0
    0.6589   -1.9250   -1.1254 C   0  0  0  0  0  0  0  0  0  0  0  0
    0.3407   -3.0997   -1.7734 C   0  0  0  0  0  0  0  0  0  0  0  0
   -1.0019   -3.4027   -1.9279 N   0  0  0  0  0  0  0  0  0  0  0  0
   -2.0711   -2.5390   -1.4019 C   0  0  0  0  0  0  0  0  0  0  0  0
   -3.2012   -2.9175   -1.5743 O   0  0  0  0  0  0  0  0  0  0  0  0
   -1.7044   -1.3648   -0.7679 N   0  0  0  0  0  0  0  0  0  0  0  0
   -0.4170   -1.1091   -0.6465 C   0  0  0  0  0  0  0  0  0  0  0  0
   -1.4185   -4.6195   -2.6319 C   0  0  0  0  0  0  0  0  0  0  0  0
    1.3314   -4.0074   -2.1982 N   0  0  0  0  0  0  0  0  0  0  0  0
    2.2576   -3.4992   -3.2340 C   0  0  0  0  0  0  0  0  0  0  0  0
    1.6690   -3.6421   -4.6132 C   0  0  0  0  0  0  0  0  0  0  0  0
    0.6323   -2.7987   -5.0168 C   0  0  0  0  0  0  0  0  0  0  0  0
    0.0547   -2.9606   -6.2732 C   0  0  0  0  0  0  0  0  0  0  0  0
    0.5216   -3.9540   -7.1332 C   0  0  0  0  0  0  0  0  0  0  0  0
    1.5679   -4.7840   -6.7363 C   0  0  0  0  0  0  0  0  0  0  0  0
    2.1401   -4.6320   -5.4745 C   0  0  0  0  0  0  0  0  0  0  0  0
    1.5554    1.2831   -1.7534 H   0  0  0  0  0  0  0  0  0  0  0  0
    2.9676    1.4116   -0.6848 H   0  0  0  0  0  0  0  0  0  0  0  0
    1.4254    2.1573   -0.2300 H   0  0  0  0  0  0  0  0  0  0  0  0
    2.5283   -1.9451   -0.0484 H   0  0  0  0  0  0  0  0  0  0  0  0
    2.5975   -1.0616   -1.5793 H   0  0  0  0  0  0  0  0  0  0  0  0
   -2.5259   -4.6304   -2.7496 H   0  0  0  0  0  0  0  0  0  0  0  0
   -1.1495   -5.5270   -2.0662 H   0  0  0  0  0  0  0  0  0  0  0  0
   -0.9877   -4.6610   -3.6477 H   0  0  0  0  0  0  0  0  0  0  0  0
    1.0043   -4.9501   -2.4128 H   0  0  0  0  0  0  0  0  0  0  0  0
    3.2073   -4.0768   -3.1271 H   0  0  0  0  0  0  0  0  0  0  0  0
    2.5237   -2.4365   -3.0266 H   0  0  0  0  0  0  0  0  0  0  0  0
    0.2697   -2.0167   -4.3488 H   0  0  0  0  0  0  0  0  0  0  0  0
   -0.7636   -2.3114   -6.5844 H   0  0  0  0  0  0  0  0  0  0  0  0
    0.0676   -4.0800   -8.1149 H   0  0  0  0  0  0  0  0  0  0  0  0
    1.9398   -5.5531   -7.4110 H   0  0  0  0  0  0  0  0  0  0  0  0
    2.9533   -5.2867   -5.1674 H   0  0  0  0  0  0  0  0  0  0  0  0
  2  1  1  0  0  0  0
  2  3  1  1  0  0  0
  4 23  1  0  0  0  0
  4 24  1  0  0  0  0
  4  2  1  0  0  0  0
  5 25  1  0  0  0  0
  5  2  1  0  0  0  0
  6  5  1  0  0  0  0
  6 12  1  0  0  0  0
  7  6  2  0  0  0  0
  8  7  1  0  0  0  0
  8  9  1  0  0  0  0
  9 11  2  0  0  0  0
 10  9  2  0  0  0  0
 11 12  2  0  0  0  0
 12  1  1  0  0  0  0
 13 28  1  0  0  0  0
 13  8  1  0  0  0  0
 14  7  1  0  0  0  0
 15 31  1  0  0  0  0
 15 32  1  0  0  0  0
 15 14  1  0  0  0  0
 16 15  1  0  0  0  0
 17 16  1  0  0  0  0
 17 33  1  0  0  0  0
 18 17  2  0  0  0  0
 19 20  2  0  0  0  0
 19 18  1  0  0  0  0
 20 21  1  0  0  0  0
 21 37  1  0  0  0  0
 21 16  2  0  0  0  0
 22  4  1  0  0  0  0
 26  5  1  0  0  0  0
 27 13  1  0  0  0  0
 29 13  1  0  0  0  0
 30 14  1  0  0  0  0
 34 18  1  0  0  0  0
 35 19  1  0  0  0  0
 36 20  1  0  0  0  0
M  END
$$$$
