rmsd105.gzmat
 OpenBabel08211713393D

 30 31  0  0  0  0  0  0  0  0999 V2000
    0.0000    0.0000    0.0000 N   0  0  0  0  0  0  0  0  0  0  0  0
    1.0250    0.0000    0.0000 H   0  0  0  0  0  0  0  0  0  0  0  0
   -0.6698    0.0000   -1.2571 C   0  0  0  0  0  0  0  0  0  0  0  0
   -0.0274   -0.0367   -2.2754 O   0  0  0  0  0  0  0  0  0  0  0  0
   -2.0691    0.0464   -1.1814 N   0  0  0  0  0  0  0  0  0  0  0  0
   -2.7998    0.1435    0.0612 C   0  0  0  0  0  0  0  0  0  0  0  0
   -3.9948    0.2176    0.0519 O   0  0  0  0  0  0  0  0  0  0  0  0
   -2.0161    0.1309    1.2296 N   0  0  0  0  0  0  0  0  0  0  0  0
   -0.7229    0.0563    1.1805 C   0  0  0  0  0  0  0  0  0  0  0  0
    0.1224    0.0360    2.4440 C   0  0  0  0  0  0  0  0  0  0  0  0
    1.2729    0.3885    2.4522 O   0  0  0  0  0  0  0  0  0  0  0  0
   -0.5723   -0.4621    3.4662 O   0  0  0  0  0  0  0  0  0  0  0  0
    0.1057   -0.5237    4.7370 C   0  0  0  0  0  0  0  0  0  0  0  0
    0.1387    0.8523    5.3689 C   0  0  0  0  0  0  0  0  0  0  0  0
   -2.8088    0.0158   -2.4118 C   0  0  0  0  0  0  0  0  0  0  0  0
   -3.8743   -0.8853   -2.5345 C   0  0  0  0  0  0  0  0  0  0  0  0
   -4.6202   -0.9016   -3.7093 C   0  0  0  0  0  0  0  0  0  0  0  0
   -4.2735   -0.0236   -4.7289 C   0  0  0  0  0  0  0  0  0  0  0  0
   -3.2126    0.8675   -4.6286 C   0  0  0  0  0  0  0  0  0  0  0  0
   -2.4690    0.8893   -3.4518 C   0  0  0  0  0  0  0  0  0  0  0  0
   -5.1941   -0.0399   -6.1700 Cl  0  0  0  0  0  0  0  0  0  0  0  0
    1.1101   -0.9620    4.6030 H   0  0  0  0  0  0  0  0  0  0  0  0
   -0.5539   -1.2328    5.2762 H   0  0  0  0  0  0  0  0  0  0  0  0
    0.8403    1.5225    4.8521 H   0  0  0  0  0  0  0  0  0  0  0  0
    0.4500    0.8026    6.4201 H   0  0  0  0  0  0  0  0  0  0  0  0
   -0.8504    1.3319    5.3405 H   0  0  0  0  0  0  0  0  0  0  0  0
   -4.1270   -1.5591   -1.7141 H   0  0  0  0  0  0  0  0  0  0  0  0
   -5.4584   -1.5914   -3.8157 H   0  0  0  0  0  0  0  0  0  0  0  0
   -2.9595    1.5416   -5.4480 H   0  0  0  0  0  0  0  0  0  0  0  0
   -1.6258    1.5742   -3.3493 H   0  0  0  0  0  0  0  0  0  0  0  0
  1  9  1  0  0  0  0
  2  1  1  0  0  0  0
  3  5  1  0  0  0  0
  3  1  1  0  0  0  0
  4  3  2  0  0  0  0
  5  6  1  0  0  0  0
  6  8  2  0  0  0  0
  7  6  2  0  0  0  0
  9  8  2  0  0  0  0
  9 10  1  0  0  0  0
 10 11  2  0  0  0  0
 10 12  1  0  0  0  0
 12 13  1  0  0  0  0
 13 23  1  0  0  0  0
 13 14  1  0  0  0  0
 14 25  1  0  0  0  0
 15  5  1  0  0  0  0
 16 15  1  0  0  0  0
 16 27  1  0  0  0  0
 17 16  2  0  0  0  0
 18 19  2  0  0  0  0
 18 17  1  0  0  0  0
 19 20  1  0  0  0  0
 20 30  1  0  0  0  0
 20 15  2  0  0  0  0
 21 18  1  0  0  0  0
 22 13  1  0  0  0  0
 24 14  1  0  0  0  0
 26 14  1  0  0  0  0
 28 17  1  0  0  0  0
 29 19  1  0  0  0  0
M  END
$$$$
