rmsd153.gzmat
 OpenBabel08211713393D

 30 31  0  0  0  0  0  0  0  0999 V2000
    0.0000    0.0000    0.0000 N   0  0  0  0  0  0  0  0  0  0  0  0
    1.0256    0.0000    0.0000 H   0  0  0  0  0  0  0  0  0  0  0  0
   -0.6696    0.0000   -1.2567 C   0  0  0  0  0  0  0  0  0  0  0  0
   -0.0260   -0.0254   -2.2746 O   0  0  0  0  0  0  0  0  0  0  0  0
   -2.0698    0.0328   -1.1822 N   0  0  0  0  0  0  0  0  0  0  0  0
   -2.8017    0.0920    0.0616 C   0  0  0  0  0  0  0  0  0  0  0  0
   -3.9986    0.1306    0.0552 O   0  0  0  0  0  0  0  0  0  0  0  0
   -2.0171    0.0924    1.2299 N   0  0  0  0  0  0  0  0  0  0  0  0
   -0.7224    0.0457    1.1815 C   0  0  0  0  0  0  0  0  0  0  0  0
    0.1257    0.0543    2.4436 C   0  0  0  0  0  0  0  0  0  0  0  0
    1.2998    0.3198    2.4220 O   0  0  0  0  0  0  0  0  0  0  0  0
   -0.5981   -0.2979    3.5052 O   0  0  0  0  0  0  0  0  0  0  0  0
    0.0788   -0.2894    4.7778 C   0  0  0  0  0  0  0  0  0  0  0  0
    0.2263    1.1352    5.2701 C   0  0  0  0  0  0  0  0  0  0  0  0
   -2.8018    0.0252   -2.4180 C   0  0  0  0  0  0  0  0  0  0  0  0
   -3.8608   -0.8780   -2.5741 C   0  0  0  0  0  0  0  0  0  0  0  0
   -4.5848   -0.8788   -3.7631 C   0  0  0  0  0  0  0  0  0  0  0  0
   -4.2239    0.0169   -4.7617 C   0  0  0  0  0  0  0  0  0  0  0  0
   -3.1728    0.9152   -4.6262 C   0  0  0  0  0  0  0  0  0  0  0  0
   -2.4518    0.9219   -3.4354 C   0  0  0  0  0  0  0  0  0  0  0  0
   -5.1125    0.0139   -6.2229 Cl  0  0  0  0  0  0  0  0  0  0  0  0
    1.0438   -0.8186    4.6913 H   0  0  0  0  0  0  0  0  0  0  0  0
   -0.6343   -0.8854    5.3825 H   0  0  0  0  0  0  0  0  0  0  0  0
    0.9435    1.7035    4.6603 H   0  0  0  0  0  0  0  0  0  0  0  0
    0.5838    1.1664    6.3071 H   0  0  0  0  0  0  0  0  0  0  0  0
   -0.7309    1.6750    5.2370 H   0  0  0  0  0  0  0  0  0  0  0  0
   -4.1256   -1.5667   -1.7699 H   0  0  0  0  0  0  0  0  0  0  0  0
   -5.4171   -1.5713   -3.8981 H   0  0  0  0  0  0  0  0  0  0  0  0
   -2.9092    1.6042   -5.4301 H   0  0  0  0  0  0  0  0  0  0  0  0
   -1.6166    1.6119   -3.3053 H   0  0  0  0  0  0  0  0  0  0  0  0
  1  9  1  0  0  0  0
  2  1  1  0  0  0  0
  3  5  1  0  0  0  0
  3  1  1  0  0  0  0
  4  3  2  0  0  0  0
  5  6  1  0  0  0  0
  6  8  2  0  0  0  0
  7  6  2  0  0  0  0
  9  8  2  0  0  0  0
  9 10  1  0  0  0  0
 10 12  1  0  0  0  0
 11 10  2  0  0  0  0
 12 13  1  0  0  0  0
 13 14  1  0  0  0  0
 13 23  1  0  0  0  0
 14 25  1  0  0  0  0
 15  5  1  0  0  0  0
 16 15  1  0  0  0  0
 16 27  1  0  0  0  0
 17 16  2  0  0  0  0
 18 19  2  0  0  0  0
 18 17  1  0  0  0  0
 19 20  1  0  0  0  0
 20 30  1  0  0  0  0
 20 15  2  0  0  0  0
 21 18  1  0  0  0  0
 22 13  1  0  0  0  0
 24 14  1  0  0  0  0
 26 14  1  0  0  0  0
 28 17  1  0  0  0  0
 29 19  1  0  0  0  0
M  END
$$$$
