rmsd110.gzmat
 OpenBabel08211713393D

 30 31  0  0  0  0  0  0  0  0999 V2000
    0.0000    0.0000    0.0000 N   0  0  0  0  0  0  0  0  0  0  0  0
    1.0204    0.0000    0.0000 H   0  0  0  0  0  0  0  0  0  0  0  0
   -0.6588    0.0000   -1.2656 C   0  0  0  0  0  0  0  0  0  0  0  0
   -0.0009    0.0370   -2.2742 O   0  0  0  0  0  0  0  0  0  0  0  0
   -2.0578   -0.0465   -1.2066 N   0  0  0  0  0  0  0  0  0  0  0  0
   -2.8028   -0.1413    0.0290 C   0  0  0  0  0  0  0  0  0  0  0  0
   -3.9977   -0.2102    0.0056 O   0  0  0  0  0  0  0  0  0  0  0  0
   -2.0312   -0.1351    1.2047 N   0  0  0  0  0  0  0  0  0  0  0  0
   -0.7371   -0.0625    1.1705 C   0  0  0  0  0  0  0  0  0  0  0  0
    0.0336   -0.0301    2.4802 C   0  0  0  0  0  0  0  0  0  0  0  0
   -0.1039    0.7629    3.3618 O   0  0  0  0  0  0  0  0  0  0  0  0
    0.9339   -1.0310    2.4331 O   0  0  0  0  0  0  0  0  0  0  0  0
    1.7203   -1.2624    3.6144 C   0  0  0  0  0  0  0  0  0  0  0  0
    0.8725   -1.9410    4.6703 C   0  0  0  0  0  0  0  0  0  0  0  0
   -2.7790   -0.0156   -2.4485 C   0  0  0  0  0  0  0  0  0  0  0  0
   -2.4154   -0.8815   -3.4871 C   0  0  0  0  0  0  0  0  0  0  0  0
   -3.1261   -0.8453   -4.6838 C   0  0  0  0  0  0  0  0  0  0  0  0
   -4.1813    0.0501   -4.8048 C   0  0  0  0  0  0  0  0  0  0  0  0
   -4.5580    0.9135   -3.7835 C   0  0  0  0  0  0  0  0  0  0  0  0
   -3.8444    0.8834   -2.5888 C   0  0  0  0  0  0  0  0  0  0  0  0
   -5.0542    0.0918   -6.2751 Cl  0  0  0  0  0  0  0  0  0  0  0  0
    2.1533   -0.3062    3.9581 H   0  0  0  0  0  0  0  0  0  0  0  0
    2.5136   -1.9191    3.2060 H   0  0  0  0  0  0  0  0  0  0  0  0
    0.0989   -1.2658    5.0671 H   0  0  0  0  0  0  0  0  0  0  0  0
    1.4818   -2.2726    5.5206 H   0  0  0  0  0  0  0  0  0  0  0  0
    0.3539   -2.8232    4.2692 H   0  0  0  0  0  0  0  0  0  0  0  0
   -1.5777   -1.5708   -3.3693 H   0  0  0  0  0  0  0  0  0  0  0  0
   -2.8502   -1.5096   -5.5041 H   0  0  0  0  0  0  0  0  0  0  0  0
   -5.3943    1.6039   -3.9039 H   0  0  0  0  0  0  0  0  0  0  0  0
   -4.1222    1.5464   -1.7672 H   0  0  0  0  0  0  0  0  0  0  0  0
  1  2  1  0  0  0  0
  1  9  1  0  0  0  0
  3  5  1  0  0  0  0
  3  1  1  0  0  0  0
  4  3  2  0  0  0  0
  5  6  1  0  0  0  0
  6  8  2  0  0  0  0
  7  6  2  0  0  0  0
  9  8  2  0  0  0  0
  9 10  1  0  0  0  0
 10 11  2  0  0  0  0
 12 10  1  0  0  0  0
 12 13  1  0  0  0  0
 13 22  1  0  0  0  0
 13 14  1  0  0  0  0
 14 24  1  0  0  0  0
 14 25  1  0  0  0  0
 15  5  1  0  0  0  0
 16 27  1  0  0  0  0
 16 15  2  0  0  0  0
 17 16  1  0  0  0  0
 18 17  2  0  0  0  0
 18 19  1  0  0  0  0
 19 20  2  0  0  0  0
 20 15  1  0  0  0  0
 20 30  1  0  0  0  0
 21 18  1  0  0  0  0
 23 13  1  0  0  0  0
 26 14  1  0  0  0  0
 28 17  1  0  0  0  0
 29 19  1  0  0  0  0
M  END
$$$$
