
     RDKit          3D

 30 31  0  0  0  0  0  0  0  0999 V2000
   -0.1282   -0.1257    0.0648 N   0  0  0  0  0  0  0  0  0  0  0  0
    0.8867   -0.1664    0.1359 H   0  0  0  0  0  0  0  0  0  0  0  0
   -0.7038   -0.0892   -1.2046 C   0  0  0  0  0  0  0  0  0  0  0  0
   -0.0430   -0.1054   -2.2132 O   0  0  0  0  0  0  0  0  0  0  0  0
   -2.0995   -0.0323   -1.1544 N   0  0  0  0  0  0  0  0  0  0  0  0
   -2.8665   -0.0153    0.0587 C   0  0  0  0  0  0  0  0  0  0  0  0
   -4.0690    0.0150    0.0227 O   0  0  0  0  0  0  0  0  0  0  0  0
   -2.1463   -0.0359    1.2571 N   0  0  0  0  0  0  0  0  0  0  0  0
   -0.8658   -0.0912    1.2070 C   0  0  0  0  0  0  0  0  0  0  0  0
   -0.0036   -0.1199    2.4579 C   0  0  0  0  0  0  0  0  0  0  0  0
    1.2042   -0.1531    2.3733 O   0  0  0  0  0  0  0  0  0  0  0  0
   -0.7127   -0.1098    3.5667 O   0  0  0  0  0  0  0  0  0  0  0  0
    0.0104   -0.1185    4.8197 C   0  0  0  0  0  0  0  0  0  0  0  0
    0.4488    1.2803    5.2105 C   0  0  0  0  0  0  0  0  0  0  0  0
   -2.8072    0.0095   -2.4055 C   0  0  0  0  0  0  0  0  0  0  0  0
   -3.7151   -1.0026   -2.7258 C   0  0  0  0  0  0  0  0  0  0  0  0
   -4.4067   -0.9632   -3.9350 C   0  0  0  0  0  0  0  0  0  0  0  0
   -4.1771    0.0914   -4.8228 C   0  0  0  0  0  0  0  0  0  0  0  0
   -3.2684    1.1057   -4.5110 C   0  0  0  0  0  0  0  0  0  0  0  0
   -2.5870    1.0630   -3.2956 C   0  0  0  0  0  0  0  0  0  0  0  0
   -5.0374    0.1423   -6.3407 Cl  0  0  0  0  0  0  0  0  0  0  0  0
    0.8707   -0.7967    4.7236 H   0  0  0  0  0  0  0  0  0  0  0  0
   -0.7056   -0.5364    5.5394 H   0  0  0  0  0  0  0  0  0  0  0  0
    1.1820    1.6772    4.4933 H   0  0  0  0  0  0  0  0  0  0  0  0
    0.9225    1.2538    6.2041 H   0  0  0  0  0  0  0  0  0  0  0  0
   -0.4139    1.9620    5.2564 H   0  0  0  0  0  0  0  0  0  0  0  0
   -3.8913   -1.8171   -2.0232 H   0  0  0  0  0  0  0  0  0  0  0  0
   -5.1215   -1.7452   -4.1933 H   0  0  0  0  0  0  0  0  0  0  0  0
   -3.1004    1.9209   -5.2155 H   0  0  0  0  0  0  0  0  0  0  0  0
   -1.8735    1.8480   -3.0438 H   0  0  0  0  0  0  0  0  0  0  0  0
  1  2  1  0
  1  3  1  0
  1  9  1  0
  3  4  2  0
  3  5  1  0
  5  6  1  0
  5 15  1  0
  6  7  2  0
  6  8  1  0
  8  9  2  0
  9 10  1  0
 10 11  2  0
 10 12  1  0
 12 13  1  0
 13 14  1  0
 13 22  1  0
 13 23  1  0
 14 24  1  0
 14 25  1  0
 14 26  1  0
 15 16  2  0
 15 20  1  0
 16 17  1  0
 16 27  1  0
 17 18  2  0
 17 28  1  0
 18 19  1  0
 18 21  1  0
 19 20  2  0
 19 29  1  0
 20 30  1  0
M  END

