30
rmsd108.gzmat
N          0.00000        0.00000        0.00000
H          1.01990        0.00000        0.00000
C         -0.65770        0.00000       -1.26660
O          0.00150        0.02550       -2.27460
N         -2.05680       -0.03100       -1.20890
C         -2.80450       -0.12710        0.02470
O         -3.99910       -0.19730       -0.00130
N         -2.03460       -0.11650        1.20130
C         -0.74040       -0.04560        1.16870
C          0.02080        0.01940        2.48270
O         -0.03380        0.91160        3.27510
O          0.79640       -1.07690        2.55800
C          1.53050       -1.27360        3.77960
C          0.59800       -1.77580        4.86220
C         -2.77700        0.02750       -2.45050
C         -2.43000       -0.83550       -3.49700
C         -3.13720       -0.77230       -4.69450
C         -4.17330        0.14640       -4.80760
C         -4.53340        1.00710       -3.77810
C         -3.82240        0.95070       -2.58280
Cl        -5.04380        0.22000       -6.27770
H          2.04210       -0.33460        4.05610
H          2.26790       -2.03270        3.45290
H         -0.18400       -1.03730        5.09710
H          1.13850       -1.98220        5.79430
H          0.08740       -2.70130        4.56370
H         -1.60790       -1.54340       -3.38350
H         -2.87420       -1.43420       -5.52050
H         -5.35480        1.71560       -3.89330
H         -4.08710        1.61230       -1.75620
