rmsd158.gzmat
 OpenBabel08211713393D

 30 31  0  0  0  0  0  0  0  0999 V2000
    0.0000    0.0000    0.0000 N   0  0  0  0  0  0  0  0  0  0  0  0
    1.0204    0.0000    0.0000 H   0  0  0  0  0  0  0  0  0  0  0  0
   -0.6583    0.0000   -1.2656 C   0  0  0  0  0  0  0  0  0  0  0  0
   -0.0001    0.0337   -2.2742 O   0  0  0  0  0  0  0  0  0  0  0  0
   -2.0575   -0.0403   -1.2073 N   0  0  0  0  0  0  0  0  0  0  0  0
   -2.8030   -0.1375    0.0276 C   0  0  0  0  0  0  0  0  0  0  0  0
   -3.9981   -0.2006    0.0046 O   0  0  0  0  0  0  0  0  0  0  0  0
   -2.0313   -0.1368    1.2034 N   0  0  0  0  0  0  0  0  0  0  0  0
   -0.7374   -0.0617    1.1702 C   0  0  0  0  0  0  0  0  0  0  0  0
    0.0296   -0.0142    2.4813 C   0  0  0  0  0  0  0  0  0  0  0  0
   -0.1107    0.7966    3.3465 O   0  0  0  0  0  0  0  0  0  0  0  0
    0.9289   -1.0168    2.4589 O   0  0  0  0  0  0  0  0  0  0  0  0
    1.7059   -1.2232    3.6518 C   0  0  0  0  0  0  0  0  0  0  0  0
    0.8597   -1.9153    4.7009 C   0  0  0  0  0  0  0  0  0  0  0  0
   -2.7765    0.0041   -2.4500 C   0  0  0  0  0  0  0  0  0  0  0  0
   -2.4132   -0.8574   -3.4924 C   0  0  0  0  0  0  0  0  0  0  0  0
   -3.1172   -0.8097   -4.6922 C   0  0  0  0  0  0  0  0  0  0  0  0
   -4.1658    0.0935   -4.8122 C   0  0  0  0  0  0  0  0  0  0  0  0
   -4.5413    0.9539   -3.7882 C   0  0  0  0  0  0  0  0  0  0  0  0
   -3.8356    0.9104   -2.5892 C   0  0  0  0  0  0  0  0  0  0  0  0
   -5.0336    0.1481   -6.2845 Cl  0  0  0  0  0  0  0  0  0  0  0  0
    2.1113   -0.2550    3.9968 H   0  0  0  0  0  0  0  0  0  0  0  0
    2.5203   -1.8632    3.2588 H   0  0  0  0  0  0  0  0  0  0  0  0
    0.0228   -1.2813    5.0313 H   0  0  0  0  0  0  0  0  0  0  0  0
    1.4499   -2.1622    5.5925 H   0  0  0  0  0  0  0  0  0  0  0  0
    0.4244   -2.8502    4.3212 H   0  0  0  0  0  0  0  0  0  0  0  0
   -1.5809   -1.5529   -3.3738 H   0  0  0  0  0  0  0  0  0  0  0  0
   -2.8415   -1.4719   -5.5140 H   0  0  0  0  0  0  0  0  0  0  0  0
   -5.3703    1.6529   -3.9108 H   0  0  0  0  0  0  0  0  0  0  0  0
   -4.1154    1.5689   -1.7649 H   0  0  0  0  0  0  0  0  0  0  0  0
  1  2  1  0  0  0  0
  1  9  1  0  0  0  0
  3  5  1  0  0  0  0
  3  1  1  0  0  0  0
  4  3  2  0  0  0  0
  5  6  1  0  0  0  0
  6  8  2  0  0  0  0
  7  6  2  0  0  0  0
  9  8  2  0  0  0  0
  9 10  1  0  0  0  0
 10 11  2  0  0  0  0
 12 10  1  0  0  0  0
 12 13  1  0  0  0  0
 13 22  1  0  0  0  0
 13 14  1  0  0  0  0
 14 24  1  0  0  0  0
 14 25  1  0  0  0  0
 15  5  1  0  0  0  0
 16 27  1  0  0  0  0
 16 15  2  0  0  0  0
 17 16  1  0  0  0  0
 18 17  2  0  0  0  0
 18 19  1  0  0  0  0
 19 20  2  0  0  0  0
 20 15  1  0  0  0  0
 20 30  1  0  0  0  0
 21 18  1  0  0  0  0
 23 13  1  0  0  0  0
 26 14  1  0  0  0  0
 28 17  1  0  0  0  0
 29 19  1  0  0  0  0
M  END
$$$$
