30
rmsd156.gzmat
N          0.00000        0.00000        0.00000
H          1.02170        0.00000        0.00000
C         -0.66070        0.00000       -1.26370
O         -0.00620        0.04250       -2.27420
N         -2.05980       -0.05180       -1.20240
C         -2.80150       -0.16040        0.03360
O         -3.99560       -0.24020        0.01260
N         -2.02780       -0.15090        1.20800
C         -0.73430       -0.06720        1.17240
C          0.03520       -0.02370        2.48140
O         -0.22690        0.63940        3.43820
O          1.10070       -0.83980        2.34480
C          1.93590       -1.02090        3.50110
C          1.25560       -1.95770        4.47790
C         -2.78330       -0.00770       -2.44250
C         -2.42180       -0.86460       -3.48920
C         -3.13360       -0.81780       -4.68480
C         -4.18820        0.07970       -4.79570
C         -4.56150        0.93590       -3.76720
C         -3.84650        0.89510       -2.57360
Cl        -5.06520        0.13290       -6.26270
H          2.16950       -0.03470        3.94170
H          2.84130       -1.45780        3.03660
H          0.34980       -1.50560        4.90970
H          1.91850       -2.21700        5.31300
H          0.94990       -2.89580        3.99450
H         -1.58490       -1.55520       -3.37780
H         -2.86030       -1.47580       -5.51100
H         -5.39620        1.62920       -3.88250
H         -4.12200        1.55310       -1.74760
