rmsd156.gzmat
 OpenBabel08211713393D

 30 31  0  0  0  0  0  0  0  0999 V2000
    0.0000    0.0000    0.0000 N   0  0  0  0  0  0  0  0  0  0  0  0
    1.0217    0.0000    0.0000 H   0  0  0  0  0  0  0  0  0  0  0  0
   -0.6607    0.0000   -1.2637 C   0  0  0  0  0  0  0  0  0  0  0  0
   -0.0062    0.0425   -2.2742 O   0  0  0  0  0  0  0  0  0  0  0  0
   -2.0598   -0.0518   -1.2024 N   0  0  0  0  0  0  0  0  0  0  0  0
   -2.8015   -0.1604    0.0336 C   0  0  0  0  0  0  0  0  0  0  0  0
   -3.9956   -0.2402    0.0126 O   0  0  0  0  0  0  0  0  0  0  0  0
   -2.0278   -0.1509    1.2080 N   0  0  0  0  0  0  0  0  0  0  0  0
   -0.7343   -0.0672    1.1724 C   0  0  0  0  0  0  0  0  0  0  0  0
    0.0352   -0.0237    2.4814 C   0  0  0  0  0  0  0  0  0  0  0  0
   -0.2269    0.6394    3.4382 O   0  0  0  0  0  0  0  0  0  0  0  0
    1.1007   -0.8398    2.3448 O   0  0  0  0  0  0  0  0  0  0  0  0
    1.9359   -1.0209    3.5011 C   0  0  0  0  0  0  0  0  0  0  0  0
    1.2556   -1.9577    4.4779 C   0  0  0  0  0  0  0  0  0  0  0  0
   -2.7833   -0.0077   -2.4425 C   0  0  0  0  0  0  0  0  0  0  0  0
   -2.4218   -0.8646   -3.4892 C   0  0  0  0  0  0  0  0  0  0  0  0
   -3.1336   -0.8178   -4.6848 C   0  0  0  0  0  0  0  0  0  0  0  0
   -4.1882    0.0797   -4.7957 C   0  0  0  0  0  0  0  0  0  0  0  0
   -4.5615    0.9359   -3.7672 C   0  0  0  0  0  0  0  0  0  0  0  0
   -3.8465    0.8951   -2.5736 C   0  0  0  0  0  0  0  0  0  0  0  0
   -5.0652    0.1329   -6.2627 Cl  0  0  0  0  0  0  0  0  0  0  0  0
    2.1695   -0.0347    3.9417 H   0  0  0  0  0  0  0  0  0  0  0  0
    2.8413   -1.4578    3.0366 H   0  0  0  0  0  0  0  0  0  0  0  0
    0.3498   -1.5056    4.9097 H   0  0  0  0  0  0  0  0  0  0  0  0
    1.9185   -2.2170    5.3130 H   0  0  0  0  0  0  0  0  0  0  0  0
    0.9499   -2.8958    3.9945 H   0  0  0  0  0  0  0  0  0  0  0  0
   -1.5849   -1.5552   -3.3778 H   0  0  0  0  0  0  0  0  0  0  0  0
   -2.8603   -1.4758   -5.5110 H   0  0  0  0  0  0  0  0  0  0  0  0
   -5.3962    1.6292   -3.8825 H   0  0  0  0  0  0  0  0  0  0  0  0
   -4.1220    1.5531   -1.7476 H   0  0  0  0  0  0  0  0  0  0  0  0
  1  2  1  0  0  0  0
  1  9  1  0  0  0  0
  3  5  1  0  0  0  0
  3  1  1  0  0  0  0
  4  3  2  0  0  0  0
  5  6  1  0  0  0  0
  6  8  2  0  0  0  0
  7  6  2  0  0  0  0
  9  8  2  0  0  0  0
  9 10  1  0  0  0  0
 10 11  2  0  0  0  0
 12 10  1  0  0  0  0
 12 13  1  0  0  0  0
 13 22  1  0  0  0  0
 13 14  1  0  0  0  0
 14 24  1  0  0  0  0
 14 25  1  0  0  0  0
 15  5  1  0  0  0  0
 16 27  1  0  0  0  0
 16 15  2  0  0  0  0
 17 16  1  0  0  0  0
 18 17  2  0  0  0  0
 18 19  1  0  0  0  0
 19 20  2  0  0  0  0
 20 15  1  0  0  0  0
 20 30  1  0  0  0  0
 21 18  1  0  0  0  0
 23 13  1  0  0  0  0
 26 14  1  0  0  0  0
 28 17  1  0  0  0  0
 29 19  1  0  0  0  0
M  END
$$$$
