rmsd107.gzmat
 OpenBabel08211713373D

 36 37  0  0  0  0  0  0  0  0999 V2000
    0.0000    0.0000    0.0000 S   0  0  0  0  0  0  0  0  0  0  0  0
    1.7451    0.0000    0.0000 C   0  0  0  0  0  0  0  0  0  0  0  0
    2.2496    0.0000    1.2580 C   0  0  0  0  0  0  0  0  0  0  0  0
    1.2541   -0.0456    2.2647 N   0  0  0  0  0  0  0  0  0  0  0  0
   -0.0335    0.0031    1.7775 C   0  0  0  0  0  0  0  0  0  0  0  0
   -1.1707    0.0302    2.5477 C   0  0  0  0  0  0  0  0  0  0  0  0
   -2.4522    0.1147    1.9723 N   0  0  0  0  0  0  0  0  0  0  0  0
   -3.4312    0.1256    2.7065 O   0  0  0  0  0  0  0  0  0  0  0  0
   -2.5402    0.2033    0.7461 O   0  0  0  0  0  0  0  0  0  0  0  0
    1.5729    0.1640    3.6763 C   0  0  0  0  0  0  0  0  0  0  0  0
    1.7842    1.6679    4.0137 C   0  0  0  0  0  0  0  0  0  0  0  0
    0.7348    2.5145    3.4565 N   0  0  0  0  0  0  0  0  0  0  0  0
    1.0316    3.3757    2.4058 C   0  0  0  0  0  0  0  0  0  0  0  0
    2.1818    3.5564    2.0622 O   0  0  0  0  0  0  0  0  0  0  0  0
   -0.1432    4.0693    1.7846 C   0  0  0  0  0  0  0  0  0  0  0  0
    3.6598    0.0377    1.6413 C   0  0  0  0  0  0  0  0  0  0  0  0
    4.3497    1.2505    1.5885 C   0  0  0  0  0  0  0  0  0  0  0  0
    5.6931    1.2926    1.9535 C   0  0  0  0  0  0  0  0  0  0  0  0
    6.3417    0.1288    2.3629 C   0  0  0  0  0  0  0  0  0  0  0  0
    5.6515   -1.0827    2.4042 C   0  0  0  0  0  0  0  0  0  0  0  0
    4.3079   -1.1322    2.0431 C   0  0  0  0  0  0  0  0  0  0  0  0
    2.3104    0.0083   -0.9170 H   0  0  0  0  0  0  0  0  0  0  0  0
   -1.1562   -0.0451    3.6315 H   0  0  0  0  0  0  0  0  0  0  0  0
    2.5014   -0.4012    3.9319 H   0  0  0  0  0  0  0  0  0  0  0  0
    0.7625   -0.2691    4.3076 H   0  0  0  0  0  0  0  0  0  0  0  0
    2.7829    2.0044    3.6347 H   0  0  0  0  0  0  0  0  0  0  0  0
    1.8092    1.7931    5.1209 H   0  0  0  0  0  0  0  0  0  0  0  0
   -0.2186    2.2363    3.6395 H   0  0  0  0  0  0  0  0  0  0  0  0
   -0.8178    3.3632    1.2770 H   0  0  0  0  0  0  0  0  0  0  0  0
    0.2002    4.7896    1.0232 H   0  0  0  0  0  0  0  0  0  0  0  0
   -0.7348    4.6296    2.5213 H   0  0  0  0  0  0  0  0  0  0  0  0
    3.8341    2.1639    1.2699 H   0  0  0  0  0  0  0  0  0  0  0  0
    6.2332    2.2385    1.9172 H   0  0  0  0  0  0  0  0  0  0  0  0
    7.3918    0.1648    2.6497 H   0  0  0  0  0  0  0  0  0  0  0  0
    6.1627   -1.9911    2.7179 H   0  0  0  0  0  0  0  0  0  0  0  0
    3.7652   -2.0762    2.0677 H   0  0  0  0  0  0  0  0  0  0  0  0
  1  5  1  0  0  0  0
  2  1  1  0  0  0  0
  2  3  2  0  0  0  0
  3 16  1  0  0  0  0
  3  4  1  0  0  0  0
  4 10  1  0  0  0  0
  5  4  1  0  0  0  0
  5  6  2  0  0  0  0
  6 23  1  0  0  0  0
  7  6  1  0  0  0  0
  7  8  2  0  0  0  0
  9  7  2  0  0  0  0
 10 24  1  0  0  0  0
 10 11  1  0  0  0  0
 10 25  1  0  0  0  0
 11 27  1  0  0  0  0
 12 28  1  0  0  0  0
 12 11  1  0  0  0  0
 13 12  1  0  0  0  0
 14 13  2  0  0  0  0
 15 13  1  0  0  0  0
 15 31  1  0  0  0  0
 16 21  1  0  0  0  0
 17 16  2  0  0  0  0
 17 18  1  0  0  0  0
 18 19  2  0  0  0  0
 19 20  1  0  0  0  0
 19 34  1  0  0  0  0
 20 35  1  0  0  0  0
 21 36  1  0  0  0  0
 21 20  2  0  0  0  0
 22  2  1  0  0  0  0
 26 11  1  0  0  0  0
 29 15  1  0  0  0  0
 30 15  1  0  0  0  0
 32 17  1  0  0  0  0
 33 18  1  0  0  0  0
M  END
$$$$
