36
rmsd175.gzmat
S          0.00000        0.00000        0.00000
C          1.74420        0.00000        0.00000
C          2.24710        0.00000        1.25920
N          1.25540       -0.02710        2.26640
C         -0.03210        0.00150        1.77960
C         -1.17040        0.03390        2.54550
N         -2.44810        0.17040        1.97140
O         -2.53920        0.21990        0.74410
O         -3.41810        0.27130        2.71210
C          1.58820        0.08650        3.68860
C          1.66830        1.57020        4.13760
N          0.35240        2.19630        4.18280
C         -0.32460        2.28850        5.39720
O          0.24240        2.01200        6.43260
C         -1.73960        2.77370        5.30580
C          3.65980        0.02820        1.63720
C          4.33060        1.25170        1.69590
C          5.67410        1.28230        2.06110
C          6.34230        0.09610        2.36200
C          5.67240       -1.12450        2.28980
C          4.32890       -1.16270        1.92510
H          2.31080        0.00110       -0.91560
H         -1.15670       -0.05620        3.63050
H          2.56480       -0.41650        3.88250
H          0.83160       -0.46370        4.29750
H          2.32770        2.14730        3.45160
H          2.14320        1.61690        5.15200
H         -0.14510        2.26850        3.30770
H         -1.80680        3.77360        4.85620
H         -2.18930        2.83320        6.31060
H         -2.37420        2.09720        4.70900
H          3.80600        2.17540        1.45340
H          6.20180        2.23380        2.11290
H          7.39130        0.12380        2.65460
H          6.19850       -2.05020        2.52060
H          3.80260       -2.11500        1.86110
