
     RDKit          3D

 36 37  0  0  0  0  0  0  0  0999 V2000
   -0.1618    0.3750    0.3073 S   0  0  0  0  0  0  0  0  0  0  0  0
    1.5906    0.4506    0.2301 C   0  0  0  0  0  0  0  0  0  0  0  0
    2.1781    0.2100    1.4256 C   0  0  0  0  0  0  0  0  0  0  0  0
    1.2393   -0.0287    2.4449 N   0  0  0  0  0  0  0  0  0  0  0  0
   -0.0707    0.0318    2.0288 C   0  0  0  0  0  0  0  0  0  0  0  0
   -1.1717   -0.1218    2.8460 C   0  0  0  0  0  0  0  0  0  0  0  0
   -2.4633    0.0715    2.3425 N   0  0  0  0  0  0  0  0  0  0  0  0
   -2.6039    0.2459    1.1189 O   0  0  0  0  0  0  0  0  0  0  0  0
   -3.4060    0.0762    3.1407 O   0  0  0  0  0  0  0  0  0  0  0  0
    1.6061   -0.0278    3.8635 C   0  0  0  0  0  0  0  0  0  0  0  0
    1.7673    1.3885    4.4309 C   0  0  0  0  0  0  0  0  0  0  0  0
    0.5513    2.1737    4.3949 N   0  0  0  0  0  0  0  0  0  0  0  0
   -0.4934    1.8622    5.2260 C   0  0  0  0  0  0  0  0  0  0  0  0
   -0.3847    0.9800    6.0651 O   0  0  0  0  0  0  0  0  0  0  0  0
   -1.7794    2.6244    5.0027 C   0  0  0  0  0  0  0  0  0  0  0  0
    3.6344    0.1573    1.6777 C   0  0  0  0  0  0  0  0  0  0  0  0
    4.4362    1.2692    1.3727 C   0  0  0  0  0  0  0  0  0  0  0  0
    5.8183    1.2221    1.5691 C   0  0  0  0  0  0  0  0  0  0  0  0
    6.4154    0.0657    2.0765 C   0  0  0  0  0  0  0  0  0  0  0  0
    5.6261   -1.0491    2.3773 C   0  0  0  0  0  0  0  0  0  0  0  0
    4.2463   -1.0067    2.1763 C   0  0  0  0  0  0  0  0  0  0  0  0
    2.1066    0.6153   -0.7127 H   0  0  0  0  0  0  0  0  0  0  0  0
   -1.1278   -0.3043    3.9138 H   0  0  0  0  0  0  0  0  0  0  0  0
    2.5500   -0.5719    3.9819 H   0  0  0  0  0  0  0  0  0  0  0  0
    0.8429   -0.5685    4.4332 H   0  0  0  0  0  0  0  0  0  0  0  0
    2.5525    1.9252    3.8782 H   0  0  0  0  0  0  0  0  0  0  0  0
    2.0945    1.2882    5.4775 H   0  0  0  0  0  0  0  0  0  0  0  0
    0.4047    2.8275    3.6369 H   0  0  0  0  0  0  0  0  0  0  0  0
   -1.6530    3.5290    4.3903 H   0  0  0  0  0  0  0  0  0  0  0  0
   -2.2052    2.8935    5.9791 H   0  0  0  0  0  0  0  0  0  0  0  0
   -2.4955    1.9487    4.5059 H   0  0  0  0  0  0  0  0  0  0  0  0
    3.9645    2.1751    0.9858 H   0  0  0  0  0  0  0  0  0  0  0  0
    6.4298    2.0950    1.3294 H   0  0  0  0  0  0  0  0  0  0  0  0
    7.4957    0.0302    2.2343 H   0  0  0  0  0  0  0  0  0  0  0  0
    6.0895   -1.9610    2.7608 H   0  0  0  0  0  0  0  0  0  0  0  0
    3.6376   -1.8894    2.3856 H   0  0  0  0  0  0  0  0  0  0  0  0
  1  2  1  0
  1  5  1  0
  2  3  2  0
  2 22  1  0
  3  4  1  0
  3 16  1  0
  4  5  1  0
  4 10  1  0
  5  6  2  0
  6  7  1  0
  6 23  1  0
  7  8  1  0
  7  9  2  0
 10 11  1  0
 10 24  1  0
 10 25  1  0
 11 12  1  0
 11 26  1  0
 11 27  1  0
 12 13  1  0
 12 28  1  0
 13 14  2  0
 13 15  1  0
 15 29  1  0
 15 30  1  0
 15 31  1  0
 16 17  2  0
 16 21  1  0
 17 18  1  0
 17 32  1  0
 18 19  2  0
 18 33  1  0
 19 20  1  0
 19 34  1  0
 20 21  2  0
 20 35  1  0
 21 36  1  0
M  CHG  2   7   1   8  -1
M  END

