36
rmsd201.gzmat
S          0.00000        0.00000        0.00000
C          1.74490        0.00000        0.00000
C          2.24890        0.00000        1.25810
N          1.25340       -0.04600        2.26410
C         -0.03420       -0.00040        1.77720
C         -1.17040        0.02240        2.54990
N         -2.45360        0.12470        1.98280
O         -2.54960        0.22170        0.75810
O         -3.42720        0.14560        2.72470
C          1.57290        0.14040        3.67860
C          1.75200        1.64040        4.05010
N          0.67190        2.47490        3.53660
C          0.91850        3.35460        2.48820
O          2.05320        3.55770        2.10720
C         -0.28920        4.04110        1.92430
C          3.65940        0.04080        1.64070
C          4.31290        1.27260        1.71160
C          5.65490        1.31790        2.08020
C          6.34140        0.13740        2.36040
C          5.68880       -1.09220        2.27480
C          4.34460       -1.14480        1.91540
H          2.31100        0.01170       -0.91650
H         -1.15190       -0.06790        3.63260
H          2.51490       -0.40970        3.91800
H          0.77500       -0.32460        4.30320
H          2.73440        2.01220        3.66240
H          1.79520        1.73670        5.15980
H         -0.27060        2.18040        3.74910
H         -0.77180        4.69300        2.66610
H         -1.04570        3.33110        1.55830
H         -0.00190        4.67520        1.06870
H          3.77070        2.19740        1.47930
H          6.16470        2.27860        2.14810
H          7.39310        0.17490        2.64080
H          6.23040       -2.01260        2.48530
H          3.83130       -2.10230        1.83970
