
     RDKit          3D

 36 37  0  0  0  0  0  0  0  0999 V2000
   -0.1464   -0.2970    0.2312 S   0  0  0  0  0  0  0  0  0  0  0  0
    1.6062   -0.3860    0.1811 C   0  0  0  0  0  0  0  0  0  0  0  0
    2.1760   -0.1729    1.3903 C   0  0  0  0  0  0  0  0  0  0  0  0
    1.2226    0.0545    2.3986 N   0  0  0  0  0  0  0  0  0  0  0  0
   -0.0808    0.0133    1.9602 C   0  0  0  0  0  0  0  0  0  0  0  0
   -1.1938    0.1612    2.7620 C   0  0  0  0  0  0  0  0  0  0  0  0
   -2.4785   -0.0114    2.2339 N   0  0  0  0  0  0  0  0  0  0  0  0
   -3.4343   -0.0224    3.0162 O   0  0  0  0  0  0  0  0  0  0  0  0
   -2.6002   -0.1622    1.0051 O   0  0  0  0  0  0  0  0  0  0  0  0
    1.5660    0.0221    3.8227 C   0  0  0  0  0  0  0  0  0  0  0  0
    1.7048   -1.4066    4.3644 C   0  0  0  0  0  0  0  0  0  0  0  0
    0.4824   -2.1792    4.2930 N   0  0  0  0  0  0  0  0  0  0  0  0
   -0.5727   -1.8746    5.1136 C   0  0  0  0  0  0  0  0  0  0  0  0
   -0.4694   -1.0103    5.9718 O   0  0  0  0  0  0  0  0  0  0  0  0
   -1.8617   -2.6202    4.8547 C   0  0  0  0  0  0  0  0  0  0  0  0
    3.6283   -0.1366    1.6670 C   0  0  0  0  0  0  0  0  0  0  0  0
    4.2406    1.0132    2.1974 C   0  0  0  0  0  0  0  0  0  0  0  0
    5.6172    1.0412    2.4215 C   0  0  0  0  0  0  0  0  0  0  0  0
    6.4030   -0.0739    2.1124 C   0  0  0  0  0  0  0  0  0  0  0  0
    5.8058   -1.2159    1.5737 C   0  0  0  0  0  0  0  0  0  0  0  0
    4.4267   -1.2486    1.3540 C   0  0  0  0  0  0  0  0  0  0  0  0
    2.1363   -0.5373   -0.7561 H   0  0  0  0  0  0  0  0  0  0  0  0
   -1.1659    0.3234    3.8336 H   0  0  0  0  0  0  0  0  0  0  0  0
    0.7983    0.5585    4.3905 H   0  0  0  0  0  0  0  0  0  0  0  0
    2.5126    0.5550    3.9674 H   0  0  0  0  0  0  0  0  0  0  0  0
    2.0158   -1.3301    5.4179 H   0  0  0  0  0  0  0  0  0  0  0  0
    2.4940   -1.9397    3.8138 H   0  0  0  0  0  0  0  0  0  0  0  0
    0.3421   -2.8164    3.5198 H   0  0  0  0  0  0  0  0  0  0  0  0
   -2.5633   -1.9284    4.3593 H   0  0  0  0  0  0  0  0  0  0  0  0
   -2.3060   -2.9038    5.8186 H   0  0  0  0  0  0  0  0  0  0  0  0
   -1.7335   -3.5141    4.2272 H   0  0  0  0  0  0  0  0  0  0  0  0
    3.6350    1.8963    2.4135 H   0  0  0  0  0  0  0  0  0  0  0  0
    6.0810    1.9420    2.8296 H   0  0  0  0  0  0  0  0  0  0  0  0
    7.4808   -0.0496    2.2884 H   0  0  0  0  0  0  0  0  0  0  0  0
    6.4146   -2.0889    1.3275 H   0  0  0  0  0  0  0  0  0  0  0  0
    3.9547   -2.1435    0.9425 H   0  0  0  0  0  0  0  0  0  0  0  0
  1  2  1  0
  1  5  1  0
  2  3  2  0
  2 22  1  0
  3  4  1  0
  3 16  1  0
  4  5  1  0
  4 10  1  0
  5  6  2  0
  6  7  1  0
  6 23  1  0
  7  8  1  0
  7  9  2  0
 10 11  1  0
 10 24  1  0
 10 25  1  0
 11 12  1  0
 11 26  1  0
 11 27  1  0
 12 13  1  0
 12 28  1  0
 13 14  2  0
 13 15  1  0
 15 29  1  0
 15 30  1  0
 15 31  1  0
 16 17  2  0
 16 21  1  0
 17 18  1  0
 17 32  1  0
 18 19  2  0
 18 33  1  0
 19 20  1  0
 19 34  1  0
 20 21  2  0
 20 35  1  0
 21 36  1  0
M  CHG  2   7   1   8  -1
M  END

