36
rmsd34.gzmat
S          0.00000        0.00000        0.00000
C          1.74460        0.00000        0.00000
C          2.24900        0.00000        1.25790
N          1.25390       -0.04850        2.26440
C         -0.03300        0.00180        1.77750
C         -1.17280        0.03250        2.54480
N         -2.44980        0.12680        1.96210
O         -3.43270        0.16740        2.69090
O         -2.53050        0.19600        0.73360
C          1.57410        0.13840        3.67870
C          1.77470        1.63720        4.04330
N          0.69850        2.48120        3.53680
C          0.93990        3.33650        2.46690
O          2.07060        3.51340        2.06210
C         -0.26460        4.03620        1.91180
C          3.65950        0.04910        1.63860
C          4.33280        1.27160        1.59150
C          5.67780        1.32840        1.94830
C          6.34260        0.17080        2.34970
C          5.66740       -1.04920        2.39070
C          4.32390       -1.11470        2.03210
H          2.31120        0.01100       -0.91600
H         -1.16270       -0.04320        3.62800
H          2.50780       -0.42380        3.92190
H          0.76820       -0.31320        4.30250
H          2.75710        1.99590        3.64290
H          1.83070        1.73780        5.15220
H         -0.24430        2.20580        3.77140
H         -1.11160        3.35950        1.72880
H         -0.01680        4.51250        0.94790
H         -0.60850        4.83330        2.58700
H          3.80170        2.18030        1.28510
H          6.20650        2.28060        1.91310
H          7.39430        0.21770        2.62860
H          6.19200       -1.95210        2.69870
H          3.79530       -2.06670        2.04940
