36

S          0.03540        0.33570        0.03600
C          1.78770        0.26130        0.04490
C          2.29580        0.11370        1.28670
N          1.29090        0.02970        2.26700
C          0.01280        0.12950        1.77540
C         -1.13470        0.09470        2.54700
N         -2.39490        0.31250        1.98210
O         -3.38020        0.27350        2.72020
O         -2.45930        0.55120        0.75950
C          1.58000        0.19010        3.68910
C          1.74680        1.67390        4.08110
N          0.69280        2.52870        3.58720
C          0.78820        3.14990        2.36430
O          1.83280        3.18460        1.73310
C         -0.50400        3.74640        1.84850
C          3.72770        0.08250        1.66140
C          4.49040        1.25750        1.56390
C          5.84670        1.23780        1.89920
C          6.44670        0.05490        2.33950
C          5.68890       -1.11610        2.44380
C          4.33480       -1.10410        2.10500
H          2.35960        0.35230       -0.87480
H         -1.15190       -0.07920        3.61670
H          2.50660       -0.35030        3.92140
H          0.77700       -0.29050        4.26240
H          2.68780        2.05240        3.66110
H          1.81320        1.74230        5.17900
H         -0.23100        2.43660        3.99250
H         -1.05260        2.97020        1.28930
H         -0.26870        4.56460        1.15670
H         -1.15470        4.11260        2.65630
H          3.99290        2.17790        1.25310
H          6.43610        2.15440        1.82140
H          7.50730        0.04350        2.60210
H          6.15660       -2.04370        2.78190
H          3.74320       -2.02080        2.16940
