rmsd37.gzmat
 OpenBabel08211713373D

 36 37  0  0  0  0  0  0  0  0999 V2000
    0.0000    0.0000    0.0000 S   0  0  0  0  0  0  0  0  0  0  0  0
    1.7451    0.0000    0.0000 C   0  0  0  0  0  0  0  0  0  0  0  0
    2.2491    0.0000    1.2582 C   0  0  0  0  0  0  0  0  0  0  0  0
    1.2537   -0.0451    2.2642 N   0  0  0  0  0  0  0  0  0  0  0  0
   -0.0339    0.0027    1.7774 C   0  0  0  0  0  0  0  0  0  0  0  0
   -1.1705    0.0312    2.5489 C   0  0  0  0  0  0  0  0  0  0  0  0
   -2.4524    0.1260    1.9765 N   0  0  0  0  0  0  0  0  0  0  0  0
   -3.4292    0.1532    2.7139 O   0  0  0  0  0  0  0  0  0  0  0  0
   -2.5429    0.2085    0.7499 O   0  0  0  0  0  0  0  0  0  0  0  0
    1.5733    0.1497    3.6772 C   0  0  0  0  0  0  0  0  0  0  0  0
    1.7704    1.6504    4.0359 C   0  0  0  0  0  0  0  0  0  0  0  0
    0.7177    2.4987    3.4876 N   0  0  0  0  0  0  0  0  0  0  0  0
    1.0163    3.3955    2.4682 C   0  0  0  0  0  0  0  0  0  0  0  0
    2.1675    3.5902    2.1358 O   0  0  0  0  0  0  0  0  0  0  0  0
   -0.1590    4.1109    1.8722 C   0  0  0  0  0  0  0  0  0  0  0  0
    3.6599    0.0396    1.6393 C   0  0  0  0  0  0  0  0  0  0  0  0
    4.3345    1.2619    1.6328 C   0  0  0  0  0  0  0  0  0  0  0  0
    5.6815    1.3046    1.9847 C   0  0  0  0  0  0  0  0  0  0  0  0
    6.3481    0.1316    2.3352 C   0  0  0  0  0  0  0  0  0  0  0  0
    5.6711   -1.0879    2.3364 C   0  0  0  0  0  0  0  0  0  0  0  0
    4.3239   -1.1380    1.9888 C   0  0  0  0  0  0  0  0  0  0  0  0
    2.3121    0.0089   -0.9159 H   0  0  0  0  0  0  0  0  0  0  0  0
   -1.1547   -0.0485    3.6324 H   0  0  0  0  0  0  0  0  0  0  0  0
    2.5082   -0.4101    3.9220 H   0  0  0  0  0  0  0  0  0  0  0  0
    0.7682   -0.3000    4.3040 H   0  0  0  0  0  0  0  0  0  0  0  0
    2.7687    1.9998    3.6677 H   0  0  0  0  0  0  0  0  0  0  0  0
    1.7893    1.7596    5.1452 H   0  0  0  0  0  0  0  0  0  0  0  0
   -0.2350    2.2066    3.6532 H   0  0  0  0  0  0  0  0  0  0  0  0
   -0.7639    4.6239    2.6326 H   0  0  0  0  0  0  0  0  0  0  0  0
   -0.8211    3.4275    1.3190 H   0  0  0  0  0  0  0  0  0  0  0  0
    0.1842    4.8756    1.1554 H   0  0  0  0  0  0  0  0  0  0  0  0
    3.8053    2.1819    1.3576 H   0  0  0  0  0  0  0  0  0  0  0  0
    6.2098    2.2577    1.9828 H   0  0  0  0  0  0  0  0  0  0  0  0
    7.4025    0.1664    2.6057 H   0  0  0  0  0  0  0  0  0  0  0  0
    6.1960   -2.0024    2.6071 H   0  0  0  0  0  0  0  0  0  0  0  0
    3.7910   -2.0879    1.9828 H   0  0  0  0  0  0  0  0  0  0  0  0
  1  5  1  0  0  0  0
  2  1  1  0  0  0  0
  2  3  2  0  0  0  0
  3 16  1  0  0  0  0
  3  4  1  0  0  0  0
  4 10  1  0  0  0  0
  5  4  1  0  0  0  0
  5  6  2  0  0  0  0
  6 23  1  0  0  0  0
  7  6  1  0  0  0  0
  7  8  2  0  0  0  0
  9  7  2  0  0  0  0
 10 24  1  0  0  0  0
 10 11  1  0  0  0  0
 10 25  1  0  0  0  0
 11 27  1  0  0  0  0
 12 28  1  0  0  0  0
 12 11  1  0  0  0  0
 13 12  1  0  0  0  0
 14 13  2  0  0  0  0
 15 13  1  0  0  0  0
 15 29  1  0  0  0  0
 16 21  1  0  0  0  0
 17 16  2  0  0  0  0
 17 18  1  0  0  0  0
 18 19  2  0  0  0  0
 19 20  1  0  0  0  0
 19 34  1  0  0  0  0
 20 35  1  0  0  0  0
 21 20  2  0  0  0  0
 22  2  1  0  0  0  0
 26 11  1  0  0  0  0
 30 15  1  0  0  0  0
 31 15  1  0  0  0  0
 32 17  1  0  0  0  0
 33 18  1  0  0  0  0
 36 21  1  0  0  0  0
M  END
$$$$
