rmsd22.gzmat
 OpenBabel08211713383D

 57 60  0  0  1  0  0  0  0  0999 V2000
    0.0000    0.0000    0.0000 N   0  0  0  0  0  0  0  0  0  0  0  0
    1.3932    0.0000    0.0000 C   0  0  0  0  0  0  0  0  0  0  0  0
    2.0979    0.0000    0.9858 O   0  0  0  0  0  0  0  0  0  0  0  0
    1.8322   -0.0282   -1.3341 N   0  0  0  0  0  0  0  0  0  0  0  0
    0.7198    0.0829   -2.2759 C   0  0  1  0  0  0  0  0  0  0  0  0
    0.8054   -0.6206   -3.1317 H   0  0  0  0  0  0  0  0  0  0  0  0
   -0.5647   -0.1442   -1.3563 C   0  0  0  0  0  0  0  0  0  0  0  0
   -1.1124   -1.5714   -1.5602 C   0  0  0  0  0  0  0  0  0  0  0  0
   -2.1784   -1.5833   -2.6574 C   0  0  0  0  0  0  0  0  0  0  0  0
   -3.4081   -0.7580   -2.2409 C   0  0  0  0  0  0  0  0  0  0  0  0
   -3.0331    0.3887   -1.2876 C   0  0  0  0  0  0  0  0  0  0  0  0
   -1.6367    0.9248   -1.6113 C   0  0  0  0  0  0  0  0  0  0  0  0
    0.6736    1.3285   -2.8914 O   0  0  0  0  0  0  0  0  0  0  0  0
    3.2621    0.0345   -1.6728 C   0  0  0  0  0  0  0  0  0  0  0  0
    3.8264    1.2780   -2.1777 N   0  0  0  0  0  0  0  0  0  0  0  0
    3.8465    2.4255   -1.2560 C   0  0  0  0  0  0  0  0  0  0  0  0
    2.5639    3.2067   -1.1201 C   0  0  0  0  0  0  0  0  0  0  0  0
    1.7621    3.0486    0.0113 C   0  0  0  0  0  0  0  0  0  0  0  0
    0.5497    3.7267    0.1116 C   0  0  0  0  0  0  0  0  0  0  0  0
    0.1397    4.5787   -0.9124 C   0  0  0  0  0  0  0  0  0  0  0  0
    0.9615    4.7772   -2.0203 C   0  0  0  0  0  0  0  0  0  0  0  0
    2.1774    4.1046   -2.1174 C   0  0  0  0  0  0  0  0  0  0  0  0
    3.4756    1.6026   -3.5726 C   0  0  0  0  0  0  0  0  0  0  0  0
    4.5842    2.3872   -4.2279 C   0  0  0  0  0  0  0  0  0  0  0  0
    5.9219    2.1067   -3.9444 C   0  0  0  0  0  0  0  0  0  0  0  0
    6.9345    2.8138   -4.5870 C   0  0  0  0  0  0  0  0  0  0  0  0
    6.6154    3.8015   -5.5177 C   0  0  0  0  0  0  0  0  0  0  0  0
    5.2802    4.0825   -5.8014 C   0  0  0  0  0  0  0  0  0  0  0  0
    4.2643    3.3788   -5.1578 C   0  0  0  0  0  0  0  0  0  0  0  0
   -0.5508   -0.1343    0.8216 H   0  0  0  0  0  0  0  0  0  0  0  0
   -0.2932   -2.2741   -1.7974 H   0  0  0  0  0  0  0  0  0  0  0  0
   -1.5490   -1.9472   -0.6136 H   0  0  0  0  0  0  0  0  0  0  0  0
   -1.7535   -1.1815   -3.5977 H   0  0  0  0  0  0  0  0  0  0  0  0
   -2.4800   -2.6218   -2.8851 H   0  0  0  0  0  0  0  0  0  0  0  0
   -4.1572   -1.4103   -1.7571 H   0  0  0  0  0  0  0  0  0  0  0  0
   -3.9009   -0.3517   -3.1432 H   0  0  0  0  0  0  0  0  0  0  0  0
   -3.0724    0.0414   -0.2386 H   0  0  0  0  0  0  0  0  0  0  0  0
   -3.7786    1.2017   -1.3610 H   0  0  0  0  0  0  0  0  0  0  0  0
   -1.6036    1.2455   -2.6748 H   0  0  0  0  0  0  0  0  0  0  0  0
   -1.4198    1.8362   -1.0208 H   0  0  0  0  0  0  0  0  0  0  0  0
    0.7203    2.0775   -2.2488 H   0  0  0  0  0  0  0  0  0  0  0  0
    3.4514   -0.7640   -2.4393 H   0  0  0  0  0  0  0  0  0  0  0  0
    3.8273   -0.2320   -0.7327 H   0  0  0  0  0  0  0  0  0  0  0  0
    4.6612    3.1063   -1.6143 H   0  0  0  0  0  0  0  0  0  0  0  0
    4.1808    2.0532   -0.2564 H   0  0  0  0  0  0  0  0  0  0  0  0
    2.0841    2.3888    0.8214 H   0  0  0  0  0  0  0  0  0  0  0  0
   -0.0740    3.5914    0.9936 H   0  0  0  0  0  0  0  0  0  0  0  0
   -0.8116    5.1010   -0.8396 H   0  0  0  0  0  0  0  0  0  0  0  0
    0.6577    5.4627   -2.8091 H   0  0  0  0  0  0  0  0  0  0  0  0
    2.8319    4.2852   -2.9708 H   0  0  0  0  0  0  0  0  0  0  0  0
    2.5042    2.1453   -3.6588 H   0  0  0  0  0  0  0  0  0  0  0  0
    3.3299    0.6525   -4.1423 H   0  0  0  0  0  0  0  0  0  0  0  0
    6.1656    1.3358   -3.2121 H   0  0  0  0  0  0  0  0  0  0  0  0
    7.9756    2.5917   -4.3643 H   0  0  0  0  0  0  0  0  0  0  0  0
    7.4067    4.3507   -6.0210 H   0  0  0  0  0  0  0  0  0  0  0  0
    5.0302    4.8514   -6.5288 H   0  0  0  0  0  0  0  0  0  0  0  0
    3.2245    3.6019   -5.3875 H   0  0  0  0  0  0  0  0  0  0  0  0
  1  2  1  0  0  0  0
  1 30  1  0  0  0  0
  2  3  2  0  0  0  0
  4  2  1  0  0  0  0
  5  6  1  6  0  0  0
  5  7  1  0  0  0  0
  5  4  1  0  0  0  0
  7  1  1  0  0  0  0
  8  7  1  0  0  0  0
  8 32  1  0  0  0  0
  9 10  1  0  0  0  0
  9  8  1  0  0  0  0
 10 35  1  0  0  0  0
 10 11  1  0  0  0  0
 11 37  1  0  0  0  0
 12  7  1  0  0  0  0
 12 11  1  0  0  0  0
 12 40  1  0  0  0  0
 13  5  1  0  0  0  0
 13 41  1  0  0  0  0
 14  4  1  0  0  0  0
 14 43  1  0  0  0  0
 15 14  1  0  0  0  0
 15 16  1  0  0  0  0
 16 17  1  0  0  0  0
 16 45  1  0  0  0  0
 17 18  2  0  0  0  0
 18 19  1  0  0  0  0
 18 46  1  0  0  0  0
 19 47  1  0  0  0  0
 20 48  1  0  0  0  0
 20 19  2  0  0  0  0
 21 20  1  0  0  0  0
 22 21  2  0  0  0  0
 22 17  1  0  0  0  0
 23 15  1  0  0  0  0
 24 25  1  0  0  0  0
 24 23  1  0  0  0  0
 25 53  1  0  0  0  0
 26 54  1  0  0  0  0
 26 25  2  0  0  0  0
 27 26  1  0  0  0  0
 28 27  2  0  0  0  0
 28 29  1  0  0  0  0
 29 24  2  0  0  0  0
 31  8  1  0  0  0  0
 33  9  1  0  0  0  0
 34  9  1  0  0  0  0
 36 10  1  0  0  0  0
 38 11  1  0  0  0  0
 39 12  1  0  0  0  0
 42 14  1  0  0  0  0
 44 16  1  0  0  0  0
 49 21  1  0  0  0  0
 50 22  1  0  0  0  0
 51 23  1  0  0  0  0
 52 23  1  0  0  0  0
 55 27  1  0  0  0  0
 56 28  1  0  0  0  0
 57 29  1  0  0  0  0
M  END
$$$$
