rmsd40.gzmat
 OpenBabel08211713383D

 57 60  0  0  1  0  0  0  0  0999 V2000
    0.0000    0.0000    0.0000 N   0  0  0  0  0  0  0  0  0  0  0  0
    1.3904    0.0000    0.0000 C   0  0  0  0  0  0  0  0  0  0  0  0
    2.0910    0.0000    0.9863 O   0  0  0  0  0  0  0  0  0  0  0  0
    1.8461   -0.0574   -1.3466 N   0  0  0  0  0  0  0  0  0  0  0  0
    0.7096    0.0926   -2.2773 C   0  0  1  0  0  0  0  0  0  0  0  0
    0.7826   -0.6289   -3.1205 H   0  0  0  0  0  0  0  0  0  0  0  0
   -0.5694   -0.1343   -1.3552 C   0  0  0  0  0  0  0  0  0  0  0  0
   -1.1172   -1.5606   -1.5666 C   0  0  0  0  0  0  0  0  0  0  0  0
   -2.1637   -1.5667   -2.6820 C   0  0  0  0  0  0  0  0  0  0  0  0
   -3.4024   -0.7522   -2.2734 C   0  0  0  0  0  0  0  0  0  0  0  0
   -3.0438    0.3941   -1.3131 C   0  0  0  0  0  0  0  0  0  0  0  0
   -1.6417    0.9355   -1.6017 C   0  0  0  0  0  0  0  0  0  0  0  0
    0.6642    1.3327   -2.9015 O   0  0  0  0  0  0  0  0  0  0  0  0
    3.1317    0.5734   -1.6676 C   0  0  0  0  0  0  0  0  0  0  0  0
    3.0075    2.0482   -1.5676 N   0  0  0  0  0  0  0  0  0  0  0  0
    3.5155    2.7635   -2.7567 C   0  0  0  0  0  0  0  0  0  0  0  0
    4.9796    2.5557   -3.0430 C   0  0  0  0  0  0  0  0  0  0  0  0
    5.3866    1.5545   -3.9261 C   0  0  0  0  0  0  0  0  0  0  0  0
    6.7431    1.3427   -4.1624 C   0  0  0  0  0  0  0  0  0  0  0  0
    7.6959    2.1332   -3.5216 C   0  0  0  0  0  0  0  0  0  0  0  0
    7.2896    3.1466   -2.6553 C   0  0  0  0  0  0  0  0  0  0  0  0
    5.9335    3.3628   -2.4214 C   0  0  0  0  0  0  0  0  0  0  0  0
    3.5317    2.5837   -0.2912 C   0  0  0  0  0  0  0  0  0  0  0  0
    2.9688    3.9578   -0.0453 C   0  0  0  0  0  0  0  0  0  0  0  0
    1.5914    4.1732   -0.1301 C   0  0  0  0  0  0  0  0  0  0  0  0
    1.0700    5.4425    0.1034 C   0  0  0  0  0  0  0  0  0  0  0  0
    1.9207    6.4970    0.4337 C   0  0  0  0  0  0  0  0  0  0  0  0
    3.2933    6.2789    0.5329 C   0  0  0  0  0  0  0  0  0  0  0  0
    3.8194    5.0106    0.2940 C   0  0  0  0  0  0  0  0  0  0  0  0
   -0.5507   -0.1459    0.8200 H   0  0  0  0  0  0  0  0  0  0  0  0
   -0.2955   -2.2656   -1.7904 H   0  0  0  0  0  0  0  0  0  0  0  0
   -1.5710   -1.9360   -0.6284 H   0  0  0  0  0  0  0  0  0  0  0  0
   -1.7267   -1.1504   -3.6103 H   0  0  0  0  0  0  0  0  0  0  0  0
   -2.4553   -2.6037   -2.9282 H   0  0  0  0  0  0  0  0  0  0  0  0
   -4.1505   -1.4124   -1.7982 H   0  0  0  0  0  0  0  0  0  0  0  0
   -3.8914   -0.3475   -3.1783 H   0  0  0  0  0  0  0  0  0  0  0  0
   -3.1064    0.0457   -0.2656 H   0  0  0  0  0  0  0  0  0  0  0  0
   -3.7880    1.2064   -1.4027 H   0  0  0  0  0  0  0  0  0  0  0  0
   -1.5876    1.2809   -2.6571 H   0  0  0  0  0  0  0  0  0  0  0  0
   -1.4355    1.8341   -0.9893 H   0  0  0  0  0  0  0  0  0  0  0  0
    0.9982    2.0590   -2.3160 H   0  0  0  0  0  0  0  0  0  0  0  0
    3.4074    0.2609   -2.7048 H   0  0  0  0  0  0  0  0  0  0  0  0
    3.8950    0.1562   -0.9603 H   0  0  0  0  0  0  0  0  0  0  0  0
    3.2953    3.8503   -2.6167 H   0  0  0  0  0  0  0  0  0  0  0  0
    2.8912    2.4460   -3.6287 H   0  0  0  0  0  0  0  0  0  0  0  0
    4.6479    0.9413   -4.4387 H   0  0  0  0  0  0  0  0  0  0  0  0
    7.0592    0.5609   -4.8503 H   0  0  0  0  0  0  0  0  0  0  0  0
    8.7550    1.9633   -3.7022 H   0  0  0  0  0  0  0  0  0  0  0  0
    8.0316    3.7721   -2.1631 H   0  0  0  0  0  0  0  0  0  0  0  0
    5.6178    4.1680   -1.7588 H   0  0  0  0  0  0  0  0  0  0  0  0
    4.6442    2.5846   -0.2593 H   0  0  0  0  0  0  0  0  0  0  0  0
    3.2026    1.9083    0.5442 H   0  0  0  0  0  0  0  0  0  0  0  0
    0.9298    3.3436   -0.3751 H   0  0  0  0  0  0  0  0  0  0  0  0
   -0.0024    5.6113    0.0301 H   0  0  0  0  0  0  0  0  0  0  0  0
    1.5124    7.4873    0.6184 H   0  0  0  0  0  0  0  0  0  0  0  0
    3.9568    7.0990    0.7983 H   0  0  0  0  0  0  0  0  0  0  0  0
    4.8912    4.8462    0.3807 H   0  0  0  0  0  0  0  0  0  0  0  0
  1  2  1  0  0  0  0
  1 30  1  0  0  0  0
  2  3  2  0  0  0  0
  4  2  1  0  0  0  0
  5  6  1  6  0  0  0
  5  7  1  0  0  0  0
  5  4  1  0  0  0  0
  7  1  1  0  0  0  0
  8  7  1  0  0  0  0
  8 32  1  0  0  0  0
  9 10  1  0  0  0  0
  9  8  1  0  0  0  0
 10 35  1  0  0  0  0
 10 11  1  0  0  0  0
 11 37  1  0  0  0  0
 12  7  1  0  0  0  0
 12 11  1  0  0  0  0
 12 40  1  0  0  0  0
 13 41  1  0  0  0  0
 13  5  1  0  0  0  0
 14 15  1  0  0  0  0
 14  4  1  0  0  0  0
 14 43  1  0  0  0  0
 15 23  1  0  0  0  0
 16 44  1  0  0  0  0
 16 15  1  0  0  0  0
 17 16  1  0  0  0  0
 17 22  2  0  0  0  0
 18 17  1  0  0  0  0
 19 18  2  0  0  0  0
 19 20  1  0  0  0  0
 20 21  2  0  0  0  0
 21 22  1  0  0  0  0
 21 49  1  0  0  0  0
 22 50  1  0  0  0  0
 23 51  1  0  0  0  0
 23 24  1  0  0  0  0
 23 52  1  0  0  0  0
 24 29  1  0  0  0  0
 25 24  2  0  0  0  0
 25 26  1  0  0  0  0
 26 27  2  0  0  0  0
 27 28  1  0  0  0  0
 27 55  1  0  0  0  0
 28 56  1  0  0  0  0
 29 57  1  0  0  0  0
 29 28  2  0  0  0  0
 31  8  1  0  0  0  0
 33  9  1  0  0  0  0
 34  9  1  0  0  0  0
 36 10  1  0  0  0  0
 38 11  1  0  0  0  0
 39 12  1  0  0  0  0
 42 14  1  0  0  0  0
 45 16  1  0  0  0  0
 46 18  1  0  0  0  0
 47 19  1  0  0  0  0
 48 20  1  0  0  0  0
 53 25  1  0  0  0  0
 54 26  1  0  0  0  0
M  END
$$$$
