rmsd35.gzmat
 OpenBabel08211713383D

 57 60  0  0  1  0  0  0  0  0999 V2000
    0.0000    0.0000    0.0000 N   0  0  0  0  0  0  0  0  0  0  0  0
    1.3901    0.0000    0.0000 C   0  0  0  0  0  0  0  0  0  0  0  0
    2.0962    0.0000    0.9852 O   0  0  0  0  0  0  0  0  0  0  0  0
    1.8279   -0.0053   -1.3338 N   0  0  0  0  0  0  0  0  0  0  0  0
    0.7178    0.0729   -2.2784 C   0  0  1  0  0  0  0  0  0  0  0  0
    0.7799   -0.6680   -3.1055 H   0  0  0  0  0  0  0  0  0  0  0  0
   -0.5766   -0.0706   -1.3553 C   0  0  0  0  0  0  0  0  0  0  0  0
   -1.2259   -1.4522   -1.5742 C   0  0  0  0  0  0  0  0  0  0  0  0
   -2.3040   -1.3671   -2.6558 C   0  0  0  0  0  0  0  0  0  0  0  0
   -3.4708   -0.4768   -2.1968 C   0  0  0  0  0  0  0  0  0  0  0  0
   -2.9988    0.6453   -1.2566 C   0  0  0  0  0  0  0  0  0  0  0  0
   -1.5694    1.0757   -1.5945 C   0  0  0  0  0  0  0  0  0  0  0  0
    0.7087    1.2980   -2.9426 O   0  0  0  0  0  0  0  0  0  0  0  0
    3.2306   -0.2668   -1.6867 C   0  0  0  0  0  0  0  0  0  0  0  0
    3.9940    0.8163   -2.2993 N   0  0  0  0  0  0  0  0  0  0  0  0
    4.2175    2.0021   -1.4494 C   0  0  0  0  0  0  0  0  0  0  0  0
    3.0395    2.9252   -1.2552 C   0  0  0  0  0  0  0  0  0  0  0  0
    2.3399    2.9141   -0.0470 C   0  0  0  0  0  0  0  0  0  0  0  0
    1.2099    3.7105    0.1181 C   0  0  0  0  0  0  0  0  0  0  0  0
    0.7783    4.5335   -0.9203 C   0  0  0  0  0  0  0  0  0  0  0  0
    1.5041    4.5865   -2.1083 C   0  0  0  0  0  0  0  0  0  0  0  0
    2.6407    3.7965   -2.2705 C   0  0  0  0  0  0  0  0  0  0  0  0
    3.6178    1.1629   -3.6871 C   0  0  0  0  0  0  0  0  0  0  0  0
    3.5457   -0.0592   -4.5644 C   0  0  0  0  0  0  0  0  0  0  0  0
    2.3800   -0.3200   -5.2862 C   0  0  0  0  0  0  0  0  0  0  0  0
    2.3118   -1.4375   -6.1150 C   0  0  0  0  0  0  0  0  0  0  0  0
    3.4051   -2.2950   -6.2231 C   0  0  0  0  0  0  0  0  0  0  0  0
    4.5698   -2.0342   -5.5018 C   0  0  0  0  0  0  0  0  0  0  0  0
    4.6416   -0.9172   -4.6737 C   0  0  0  0  0  0  0  0  0  0  0  0
   -0.5611    0.0266    0.8227 H   0  0  0  0  0  0  0  0  0  0  0  0
   -0.4620   -2.2071   -1.8349 H   0  0  0  0  0  0  0  0  0  0  0  0
   -1.6735   -1.8127   -0.6268 H   0  0  0  0  0  0  0  0  0  0  0  0
   -1.8673   -0.9656   -3.5909 H   0  0  0  0  0  0  0  0  0  0  0  0
   -2.6742   -2.3774   -2.9064 H   0  0  0  0  0  0  0  0  0  0  0  0
   -4.2366   -1.0880   -1.6865 H   0  0  0  0  0  0  0  0  0  0  0  0
   -3.9727   -0.0432   -3.0809 H   0  0  0  0  0  0  0  0  0  0  0  0
   -3.0537    0.3079   -0.2051 H   0  0  0  0  0  0  0  0  0  0  0  0
   -3.6811    1.5119   -1.3296 H   0  0  0  0  0  0  0  0  0  0  0  0
   -1.5243    1.3956   -2.6583 H   0  0  0  0  0  0  0  0  0  0  0  0
   -1.2801    1.9672   -1.0070 H   0  0  0  0  0  0  0  0  0  0  0  0
    0.8845    2.0584   -2.3370 H   0  0  0  0  0  0  0  0  0  0  0  0
    3.2521   -1.1429   -2.3894 H   0  0  0  0  0  0  0  0  0  0  0  0
    3.7654   -0.5586   -0.7380 H   0  0  0  0  0  0  0  0  0  0  0  0
    5.0727    2.5671   -1.8947 H   0  0  0  0  0  0  0  0  0  0  0  0
    4.5863    1.6342   -0.4596 H   0  0  0  0  0  0  0  0  0  0  0  0
    2.6703    2.2665    0.7707 H   0  0  0  0  0  0  0  0  0  0  0  0
    0.6657    3.6873    1.0611 H   0  0  0  0  0  0  0  0  0  0  0  0
   -0.1126    5.1452   -0.7974 H   0  0  0  0  0  0  0  0  0  0  0  0
    1.1879    5.2509   -2.9104 H   0  0  0  0  0  0  0  0  0  0  0  0
    3.2154    3.8653   -3.1920 H   0  0  0  0  0  0  0  0  0  0  0  0
    4.4077    1.8468   -4.0838 H   0  0  0  0  0  0  0  0  0  0  0  0
    2.6561    1.7284   -3.7376 H   0  0  0  0  0  0  0  0  0  0  0  0
    1.5231    0.3509   -5.1999 H   0  0  0  0  0  0  0  0  0  0  0  0
    1.4039   -1.6401   -6.6787 H   0  0  0  0  0  0  0  0  0  0  0  0
    3.3508   -3.1666   -6.8703 H   0  0  0  0  0  0  0  0  0  0  0  0
    5.4227   -2.7039   -5.5861 H   0  0  0  0  0  0  0  0  0  0  0  0
    5.5453   -0.7097   -4.1007 H   0  0  0  0  0  0  0  0  0  0  0  0
  1 30  1  0  0  0  0
  2  1  1  0  0  0  0
  2  3  2  0  0  0  0
  4  2  1  0  0  0  0
  5  6  1  6  0  0  0
  5  7  1  0  0  0  0
  5  4  1  0  0  0  0
  7  1  1  0  0  0  0
  8  7  1  0  0  0  0
  8 32  1  0  0  0  0
  9 10  1  0  0  0  0
  9  8  1  0  0  0  0
 10 35  1  0  0  0  0
 10 11  1  0  0  0  0
 11 37  1  0  0  0  0
 12  7  1  0  0  0  0
 12 11  1  0  0  0  0
 12 40  1  0  0  0  0
 13 41  1  0  0  0  0
 13  5  1  0  0  0  0
 14  4  1  0  0  0  0
 14 43  1  0  0  0  0
 15 14  1  0  0  0  0
 15 16  1  0  0  0  0
 16 17  1  0  0  0  0
 16 45  1  0  0  0  0
 17 18  2  0  0  0  0
 18 19  1  0  0  0  0
 18 46  1  0  0  0  0
 19 47  1  0  0  0  0
 20 48  1  0  0  0  0
 20 19  2  0  0  0  0
 21 20  1  0  0  0  0
 22 21  2  0  0  0  0
 22 17  1  0  0  0  0
 23 15  1  0  0  0  0
 24 23  1  0  0  0  0
 25 53  1  0  0  0  0
 25 24  2  0  0  0  0
 26 25  1  0  0  0  0
 27 26  2  0  0  0  0
 27 28  1  0  0  0  0
 28 29  2  0  0  0  0
 29 24  1  0  0  0  0
 29 57  1  0  0  0  0
 31  8  1  0  0  0  0
 33  9  1  0  0  0  0
 34  9  1  0  0  0  0
 36 10  1  0  0  0  0
 38 11  1  0  0  0  0
 39 12  1  0  0  0  0
 42 14  1  0  0  0  0
 44 16  1  0  0  0  0
 49 21  1  0  0  0  0
 50 22  1  0  0  0  0
 51 23  1  0  0  0  0
 52 23  1  0  0  0  0
 54 26  1  0  0  0  0
 55 27  1  0  0  0  0
 56 28  1  0  0  0  0
M  END
$$$$
