57

N         -0.02370       -0.39060        0.02780
C          1.33930       -0.31790       -0.09450
O          2.17450       -0.57570        0.75350
N          1.59310        0.10990       -1.39600
C          0.37770        0.53650       -2.05680
H          0.38580        0.19640       -3.11120
C         -0.72140       -0.21440       -1.24760
C         -1.02780       -1.58870       -1.89420
C         -2.18180       -1.49460       -2.89200
C         -3.49790       -1.12140       -2.17540
C         -3.24040       -0.26310       -0.91880
C         -2.00880        0.62410       -1.10380
O          0.20530        1.92860       -1.99930
C          2.88160        0.55940       -1.84430
N          2.96860        2.02750       -1.88070
C          3.85760        2.53950       -2.92270
C          3.58460        3.98670       -3.27300
C          2.27820        4.42050       -3.54760
C          2.02890        5.74950       -3.89310
C          3.08280        6.66580       -3.97610
C          4.38710        6.24180       -3.71390
C          4.63310        4.91080       -3.36280
C          3.13930        2.66120       -0.55440
C          4.50950        2.50390        0.07200
C          5.49370        3.48520       -0.12380
C          6.77520        3.33160        0.41070
C          7.08930        2.19080        1.15470
C          6.11180        1.21520        1.36930
C          4.82860        1.36930        0.83660
H         -0.42090       -0.90810        0.80150
H         -0.11150       -1.98560       -2.35950
H         -1.29540       -2.29850       -1.09360
H         -1.93500       -0.73170       -3.65020
H         -2.29610       -2.44170       -3.44200
H         -4.04450       -2.03580       -1.89140
H         -4.15310       -0.57590       -2.87400
H         -3.09300       -0.91630       -0.04090
H         -4.12380        0.35230       -0.68770
H         -2.13350        1.24390       -2.00440
H         -1.87320        1.32740       -0.27140
H          1.11970        2.28910       -2.05460
H          3.04860        0.20240       -2.87320
H          3.64050        0.09250       -1.19480
H          3.68700        1.92230       -3.82110
H          4.92630        2.41950       -2.65990
H          1.44890        3.71200       -3.49080
H          1.00570        6.07160       -4.10140
H          2.88630        7.70640       -4.24480
H          5.21730        6.94950       -3.77670
H          5.65450        4.58280       -3.15330
H          2.37030        2.23740        0.10620
H          2.90680        3.72970       -0.67560
H          5.24630        4.38440       -0.69280
H          7.52830        4.10760        0.25160
H          8.09060        2.06830        1.57530
H          6.34530        0.32860        1.96420
H          4.06170        0.61260        1.02150
