rmsd249.gzmat
 OpenBabel08211713383D

 57 60  0  0  1  0  0  0  0  0999 V2000
    0.0000    0.0000    0.0000 N   0  0  0  0  0  0  0  0  0  0  0  0
    1.3991    0.0000    0.0000 C   0  0  0  0  0  0  0  0  0  0  0  0
    2.1033    0.0000    0.9837 O   0  0  0  0  0  0  0  0  0  0  0  0
    1.8351   -0.0047   -1.3377 N   0  0  0  0  0  0  0  0  0  0  0  0
    0.7117    0.1572   -2.2621 C   0  0  1  0  0  0  0  0  0  0  0  0
    0.8056   -0.4578   -3.1841 H   0  0  0  0  0  0  0  0  0  0  0  0
   -0.5484   -0.1918   -1.3611 C   0  0  0  0  0  0  0  0  0  0  0  0
   -0.9508   -1.6625   -1.5823 C   0  0  0  0  0  0  0  0  0  0  0  0
   -1.9845   -1.7716   -2.7039 C   0  0  0  0  0  0  0  0  0  0  0  0
   -3.2978   -1.0737   -2.3148 C   0  0  0  0  0  0  0  0  0  0  0  0
   -3.0589    0.0930   -1.3429 C   0  0  0  0  0  0  0  0  0  0  0  0
   -1.7142    0.7705   -1.6203 C   0  0  0  0  0  0  0  0  0  0  0  0
    0.6711    1.4635   -2.7523 O   0  0  0  0  0  0  0  0  0  0  0  0
    3.2215    0.3224   -1.7067 C   0  0  0  0  0  0  0  0  0  0  0  0
    4.1244   -0.8284   -1.7905 N   0  0  0  0  0  0  0  0  0  0  0  0
    4.1070   -1.5568   -3.0700 C   0  0  0  0  0  0  0  0  0  0  0  0
    2.8353   -2.2524   -3.4803 C   0  0  0  0  0  0  0  0  0  0  0  0
    2.1360   -1.8018   -4.6026 C   0  0  0  0  0  0  0  0  0  0  0  0
    0.9753   -2.4538   -5.0133 C   0  0  0  0  0  0  0  0  0  0  0  0
    0.5104   -3.5629   -4.3093 C   0  0  0  0  0  0  0  0  0  0  0  0
    1.2148   -4.0239   -3.1983 C   0  0  0  0  0  0  0  0  0  0  0  0
    2.3775   -3.3750   -2.7893 C   0  0  0  0  0  0  0  0  0  0  0  0
    4.0795   -1.6814   -0.5826 C   0  0  0  0  0  0  0  0  0  0  0  0
    5.2157   -2.6666   -0.5595 C   0  0  0  0  0  0  0  0  0  0  0  0
    6.5070   -2.2689   -0.9135 C   0  0  0  0  0  0  0  0  0  0  0  0
    7.5516   -3.1884   -0.8849 C   0  0  0  0  0  0  0  0  0  0  0  0
    7.3141   -4.5045   -0.4897 C   0  0  0  0  0  0  0  0  0  0  0  0
    6.0296   -4.8975   -0.1193 C   0  0  0  0  0  0  0  0  0  0  0  0
    4.9806   -3.9808   -0.1517 C   0  0  0  0  0  0  0  0  0  0  0  0
   -0.5356   -0.2302    0.8130 H   0  0  0  0  0  0  0  0  0  0  0  0
   -0.0588   -2.2791   -1.8149 H   0  0  0  0  0  0  0  0  0  0  0  0
   -1.3641   -2.0900   -0.6483 H   0  0  0  0  0  0  0  0  0  0  0  0
   -1.5774   -1.3278   -3.6332 H   0  0  0  0  0  0  0  0  0  0  0  0
   -2.1743   -2.8344   -2.9420 H   0  0  0  0  0  0  0  0  0  0  0  0
   -3.9915   -1.8009   -1.8549 H   0  0  0  0  0  0  0  0  0  0  0  0
   -3.8059   -0.7084   -3.2260 H   0  0  0  0  0  0  0  0  0  0  0  0
   -3.0898   -0.2710   -0.2990 H   0  0  0  0  0  0  0  0  0  0  0  0
   -3.8788    0.8295   -1.4278 H   0  0  0  0  0  0  0  0  0  0  0  0
   -1.6845    1.1135   -2.6769 H   0  0  0  0  0  0  0  0  0  0  0  0
   -1.6078    1.6831   -1.0038 H   0  0  0  0  0  0  0  0  0  0  0  0
    0.5981    2.1343   -2.0421 H   0  0  0  0  0  0  0  0  0  0  0  0
    3.6480    1.0044   -0.9196 H   0  0  0  0  0  0  0  0  0  0  0  0
    3.2153    0.8615   -2.6874 H   0  0  0  0  0  0  0  0  0  0  0  0
    4.9345   -2.3124   -3.0354 H   0  0  0  0  0  0  0  0  0  0  0  0
    4.4197   -0.8244   -3.8546 H   0  0  0  0  0  0  0  0  0  0  0  0
    2.4963   -0.9395   -5.1609 H   0  0  0  0  0  0  0  0  0  0  0  0
    0.4348   -2.0979   -5.8880 H   0  0  0  0  0  0  0  0  0  0  0  0
   -0.3944   -4.0725   -4.6313 H   0  0  0  0  0  0  0  0  0  0  0  0
    0.8618   -4.8975   -2.6536 H   0  0  0  0  0  0  0  0  0  0  0  0
    2.9382   -3.7535   -1.9350 H   0  0  0  0  0  0  0  0  0  0  0  0
    3.0965   -2.1919   -0.4652 H   0  0  0  0  0  0  0  0  0  0  0  0
    4.1668   -1.0071    0.3127 H   0  0  0  0  0  0  0  0  0  0  0  0
    6.6862   -1.2353   -1.2133 H   0  0  0  0  0  0  0  0  0  0  0  0
    8.5548   -2.8789   -1.1682 H   0  0  0  0  0  0  0  0  0  0  0  0
    8.1317   -5.2200   -0.4652 H   0  0  0  0  0  0  0  0  0  0  0  0
    5.8443   -5.9216    0.1966 H   0  0  0  0  0  0  0  0  0  0  0  0
    3.9827   -4.2908    0.1512 H   0  0  0  0  0  0  0  0  0  0  0  0
  1  2  1  0  0  0  0
  1 30  1  0  0  0  0
  2  3  2  0  0  0  0
  4  2  1  0  0  0  0
  5  6  1  6  0  0  0
  5  7  1  0  0  0  0
  5  4  1  0  0  0  0
  7  1  1  0  0  0  0
  8  7  1  0  0  0  0
  8 32  1  0  0  0  0
  9 10  1  0  0  0  0
  9  8  1  0  0  0  0
 10 35  1  0  0  0  0
 10 11  1  0  0  0  0
 11 37  1  0  0  0  0
 12  7  1  0  0  0  0
 12 11  1  0  0  0  0
 12 40  1  0  0  0  0
 13  5  1  0  0  0  0
 13 41  1  0  0  0  0
 14  4  1  0  0  0  0
 14 42  1  0  0  0  0
 15 14  1  0  0  0  0
 15 23  1  0  0  0  0
 16 44  1  0  0  0  0
 16 15  1  0  0  0  0
 17 16  1  0  0  0  0
 17 22  2  0  0  0  0
 18 17  1  0  0  0  0
 19 18  2  0  0  0  0
 19 20  1  0  0  0  0
 20 21  2  0  0  0  0
 21 22  1  0  0  0  0
 21 49  1  0  0  0  0
 22 50  1  0  0  0  0
 23 24  1  0  0  0  0
 23 51  1  0  0  0  0
 23 52  1  0  0  0  0
 24 29  2  0  0  0  0
 25 26  2  0  0  0  0
 25 24  1  0  0  0  0
 26 27  1  0  0  0  0
 27 55  1  0  0  0  0
 27 28  2  0  0  0  0
 28 56  1  0  0  0  0
 29 28  1  0  0  0  0
 29 57  1  0  0  0  0
 31  8  1  0  0  0  0
 33  9  1  0  0  0  0
 34  9  1  0  0  0  0
 36 10  1  0  0  0  0
 38 11  1  0  0  0  0
 39 12  1  0  0  0  0
 43 14  1  0  0  0  0
 45 16  1  0  0  0  0
 46 18  1  0  0  0  0
 47 19  1  0  0  0  0
 48 20  1  0  0  0  0
 53 25  1  0  0  0  0
 54 26  1  0  0  0  0
M  END
$$$$
