57

N         -0.01830       -0.36800       -0.06440
C          1.33650       -0.27090       -0.25220
O          2.21970       -0.48290        0.55580
N          1.51750        0.13160       -1.57760
C          0.26510        0.52180       -2.18590
H          0.22370        0.15210       -3.22970
C         -0.78140       -0.22540       -1.30470
C         -1.10150       -1.61530       -1.91010
C         -2.29910       -1.55220       -2.85790
C         -3.58680       -1.17810       -2.09170
C         -3.28320       -0.29970       -0.85980
C         -2.07180        0.59920       -1.11100
O          0.07230        1.91250       -2.16990
C          2.76910        0.63460       -2.07120
N          2.83870        2.10430       -1.99690
C          3.59730        2.75410       -3.07450
C          5.10950        2.64060       -2.99010
C          5.88300        3.76140       -2.65760
C          7.27270        3.66860       -2.54150
C          7.91240        2.44570       -2.75660
C          7.15440        1.32170       -3.09830
C          5.76670        1.42080       -3.21680
C          3.19070        2.57170       -0.64650
C          2.84220        4.02310       -0.41050
C          1.51280        4.46200       -0.51820
C          1.18830        5.80130       -0.29660
C          2.18510        6.72210        0.04410
C          3.50790        6.29210        0.16760
C          3.83150        4.95070       -0.06000
H         -0.36970       -0.87240        0.73960
H         -0.20220       -2.01190       -2.40770
H         -1.32570       -2.31170       -1.08490
H         -2.09390       -0.80180       -3.64050
H         -2.42710       -2.51090       -3.38420
H         -4.11390       -2.09180       -1.77150
H         -4.27510       -0.64740       -2.76960
H         -3.08870       -0.93920        0.01910
H         -4.16260        0.30870       -0.59720
H         -2.24540        1.20850       -2.01070
H         -1.90890        1.31160       -0.29110
H          0.97790        2.29580       -2.24210
H          2.87050        0.34880       -3.12990
H          3.57030        0.14110       -1.49490
H          3.32020        3.81880       -3.07610
H          3.23960        2.32900       -4.02630
H          5.38570        4.71880       -2.48570
H          7.85690        4.55490       -2.28190
H          8.99830        2.36850       -2.66400
H          7.64750        0.36340       -3.27870
H          5.19160        0.53640       -3.49910
H          4.26650        2.40900       -0.44530
H          2.64990        1.94020        0.07190
H          0.72820        3.74480       -0.76790
H          0.14890        6.12760       -0.38350
H          1.92910        7.77010        0.21790
H          4.29260        7.00200        0.44070
H          4.86710        4.61560        0.03610
