57
rmsd41.gzmat
N          0.00000        0.00000        0.00000
C          1.38980        0.00000        0.00000
O          2.09110        0.00000        0.98610
N          1.84440       -0.05830       -1.34650
C          0.71060        0.10550       -2.27740
H          0.77580       -0.61260       -3.12440
C         -0.57060       -0.11790       -1.35610
C         -1.12810       -1.53870       -1.57960
C         -2.18190       -1.52900       -2.68830
C         -3.41090       -0.70350       -2.27180
C         -3.03860        0.43150       -1.30320
C         -1.63340        0.96290       -1.59380
O          0.66970        1.34940       -2.89440
C          3.14620        0.53650       -1.66700
N          3.05470        2.01620       -1.61220
C          3.61880        2.68430       -2.80350
C          5.08160        2.42060       -3.04790
C          5.47360        1.38460       -3.89740
C          6.82680        1.12340       -4.10040
C          7.79210        1.89970       -3.46100
C          7.40180        2.94770       -2.62920
C          6.04900        3.21170       -2.42730
C          3.55020        2.57720       -0.33470
C          3.03110        3.98030       -0.16860
C          1.66320        4.23390       -0.29310
C          1.17990        5.53200       -0.15460
C          2.05990        6.57910        0.11830
C          3.42220        6.32330        0.26070
C          3.90980        5.02530        0.11930
H         -0.55300       -0.13820        0.81950
H         -0.31020       -2.24410       -1.81820
H         -1.57790       -1.92320       -0.64310
H         -1.74660       -1.11370       -3.61790
H         -2.48510       -2.56250       -2.93580
H         -4.16650       -1.35820       -1.80070
H         -3.89480       -0.28590       -3.17380
H         -3.09920        0.07400       -0.25850
H         -3.77650        1.25110       -1.38140
H         -1.57890        1.31410       -2.64750
H         -1.41750        1.85660       -0.97780
H          1.05750        2.06320       -2.32680
H          3.42890        0.19010       -2.69180
H          3.89180        0.12410       -0.93830
H          3.43330        3.78160       -2.69670
H          3.00460        2.36720       -3.68260
H          4.72500        0.78220       -4.40860
H          7.13090        0.31340       -4.76040
H          8.84840        1.69090       -3.61530
H          8.15440        3.56130       -2.13740
H          5.74690        4.04140       -1.78900
H          4.66020        2.53760       -0.25910
H          3.16350        1.94450        0.50840
H          0.97960        3.41150       -0.49750
H          0.11500        5.72880       -0.25740
H          1.68250        7.59290        0.22430
H          4.10780        7.13810        0.48310
H          4.97340        4.83300        0.24050
