57
rmsd108.gzmat
N          0.00000        0.00000        0.00000
C          1.40090        0.00000        0.00000
O          2.10830        0.00000        0.98190
N          1.83440        0.02260       -1.33550
C          0.71370        0.17360       -2.26180
H          0.81330       -0.43110       -3.18750
C         -0.54320       -0.19910       -1.36300
C         -0.92290       -1.67380       -1.59400
C         -1.97910       -1.79240       -2.69250
C         -3.29620       -1.12840       -2.25770
C         -3.05610        0.06170       -1.31410
C         -1.72190        0.74860       -1.61810
O          0.65150        1.48350       -2.74160
C          3.23350        0.27480       -1.70550
N          3.90750       -0.82360       -2.39350
C          3.39060       -1.08670       -3.75260
C          4.42600       -1.80710       -4.57930
C          5.77760       -1.47600       -4.46500
C          6.72700       -2.14910       -5.22840
C          6.33000       -3.15050       -6.11370
C          4.97980       -3.47050       -6.23980
C          4.02660       -2.79890       -5.47650
C          4.14790       -2.03480       -1.58810
C          2.96640       -2.93360       -1.31980
C          2.47710       -3.77880       -2.31680
C          1.38570       -4.60590       -2.06150
C          0.79500       -4.61290       -0.79950
C          1.30230       -3.79400        0.20800
C          2.38420       -2.95640       -0.05130
H         -0.52940       -0.25720        0.80970
H         -0.02490       -2.27650       -1.84100
H         -1.30840       -2.11990       -0.65590
H         -1.60830       -1.32660       -3.62520
H         -2.15400       -2.85630       -2.93840
H         -3.94570       -1.86950       -1.75680
H         -3.85490       -0.79440       -3.15090
H         -3.07220       -0.27950       -0.26210
H         -3.88450        0.78800       -1.40640
H         -1.70810        1.08280       -2.67750
H         -1.61590        1.66850       -1.01200
H          0.59400        2.14640       -2.02180
H          3.80720        0.49670       -0.76320
H          3.27450        1.17750       -2.37130
H          3.16580       -0.10640       -4.24280
H          2.43250       -1.65520       -3.73470
H          6.08230       -0.69470       -3.76640
H          7.78010       -1.89440       -5.13300
H          7.07390       -3.67990       -6.70380
H          4.66870       -4.24850       -6.93350
H          2.97440       -3.05190       -5.58480
H          4.60970       -1.70600       -0.62470
H          4.94370       -2.61910       -2.11670
H          2.96100       -3.80820       -3.29230
H          1.00270       -5.25600       -2.84480
H         -0.05190       -5.26420       -0.59860
H          0.85710       -3.81090        1.20090
H          2.77220       -2.31100        0.74080
