57
rmsd200.gzmat
N          0.00000        0.00000        0.00000
C          1.38830        0.00000        0.00000
O          2.08710        0.00000        0.98920
N          1.84490       -0.06240       -1.34380
C          0.71160        0.09000       -2.27840
H          0.77420       -0.64680       -3.10950
C         -0.57370       -0.10840       -1.35590
C         -1.15840       -1.51900       -1.57310
C         -2.16840       -1.50120       -2.72200
C         -3.39040       -0.63630       -2.36840
C         -3.03830        0.47060       -1.36090
C         -1.61840        0.99020       -1.59570
O          0.67760        1.32280       -2.91330
C          3.15140        0.51430       -1.67330
N          3.08170        1.99900       -1.67260
C          3.79680        2.60440       -2.82270
C          3.17710        3.94590       -3.13020
C          1.98330        4.00690       -3.85090
C          1.39650        5.24010       -4.12370
C          2.00520        6.41590       -3.68730
C          3.20450        6.35640       -2.98070
C          3.79130        5.12350       -2.70320
C          3.43860        2.61530       -0.37750
C          4.84010        2.33880        0.10390
C          5.90130        3.15490       -0.28910
C          7.19750        2.87060        0.13550
C          7.43670        1.77670        0.96460
C          6.37390        0.97660        1.38150
C          5.07840        1.26010        0.95680
H         -0.55420       -0.12420        0.82040
H         -0.35280       -2.25080       -1.76580
H         -1.65320       -1.87170       -0.64700
H         -1.68540       -1.11330       -3.64000
H         -2.48890       -2.53080       -2.96390
H         -4.19690       -1.26840       -1.95550
H         -3.80320       -0.18790       -3.29090
H         -3.13850        0.08950       -0.32780
H         -3.76310        1.30130       -1.44440
H         -1.53060        1.36780       -2.63840
H         -1.40830        1.86720       -0.95420
H          1.13030        2.03550       -2.38420
H          3.43480        0.13410       -2.68620
H          3.89110        0.11640       -0.92930
H          3.69160        1.94010       -3.71350
H          4.89090        2.69880       -2.63870
H          1.50760        3.09000       -4.20490
H          0.46120        5.28370       -4.67820
H          1.54600        7.37820       -3.90040
H          3.68430        7.27290       -2.64420
H          4.73060        5.08650       -2.15460
H          2.69390        2.25450        0.37680
H          3.25990        3.71360       -0.46500
H          5.72120        4.02330       -0.91940
H          8.02270        3.50590       -0.17760
H          8.44920        1.55350        1.29230
H          6.55270        0.13080        2.04300
H          4.24450        0.63920        1.30130
