
     RDKit          3D

 57 60  0  0  0  0  0  0  0  0999 V2000
    0.0137    0.2014   -0.0256 N   0  0  0  0  0  0  0  0  0  0  0  0
    1.3943    0.1336   -0.0028 C   0  0  0  0  0  0  0  0  0  0  0  0
    2.1094    0.0769    0.9803 O   0  0  0  0  0  0  0  0  0  0  0  0
    1.8138    0.1598   -1.3245 N   0  0  0  0  0  0  0  0  0  0  0  0
    0.7123    0.3955   -2.2262 C   0  0  1  0  0  0  0  0  0  0  0  0
    0.7898   -0.2139   -3.1360 H   0  0  0  0  0  0  0  0  0  0  0  0
   -0.5093   -0.0623   -1.3693 C   0  0  0  0  0  0  0  0  0  0  0  0
   -0.7549   -1.5761   -1.5838 C   0  0  0  0  0  0  0  0  0  0  0  0
   -1.7479   -1.8305   -2.7156 C   0  0  0  0  0  0  0  0  0  0  0  0
   -3.1444   -1.2731   -2.3641 C   0  0  0  0  0  0  0  0  0  0  0  0
   -3.0518   -0.0612   -1.4135 C   0  0  0  0  0  0  0  0  0  0  0  0
   -1.7831    0.7505   -1.6805 C   0  0  0  0  0  0  0  0  0  0  0  0
    0.6623    1.7239   -2.6920 O   0  0  0  0  0  0  0  0  0  0  0  0
    3.2149    0.2893   -1.7035 C   0  0  0  0  0  0  0  0  0  0  0  0
    3.8090   -0.8244   -2.3917 N   0  0  0  0  0  0  0  0  0  0  0  0
    3.3628   -1.0478   -3.7539 C   0  0  0  0  0  0  0  0  0  0  0  0
    4.4003   -1.7348   -4.6198 C   0  0  0  0  0  0  0  0  0  0  0  0
    5.7566   -1.3974   -4.5091 C   0  0  0  0  0  0  0  0  0  0  0  0
    6.7091   -2.0051   -5.3285 C   0  0  0  0  0  0  0  0  0  0  0  0
    6.3186   -2.9595   -6.2741 C   0  0  0  0  0  0  0  0  0  0  0  0
    4.9698   -3.3024   -6.3915 C   0  0  0  0  0  0  0  0  0  0  0  0
    4.0193   -2.6947   -5.5655 C   0  0  0  0  0  0  0  0  0  0  0  0
    4.1141   -2.0147   -1.5984 C   0  0  0  0  0  0  0  0  0  0  0  0
    2.9603   -2.9530   -1.2774 C   0  0  0  0  0  0  0  0  0  0  0  0
    2.4904   -3.8636   -2.2379 C   0  0  0  0  0  0  0  0  0  0  0  0
    1.4290   -4.7264   -1.9492 C   0  0  0  0  0  0  0  0  0  0  0  0
    0.8323   -4.7060   -0.6854 C   0  0  0  0  0  0  0  0  0  0  0  0
    1.3052   -3.8173    0.2843 C   0  0  0  0  0  0  0  0  0  0  0  0
    2.3575   -2.9473   -0.0107 C   0  0  0  0  0  0  0  0  0  0  0  0
   -0.4762   -0.1275    0.7983 H   0  0  0  0  0  0  0  0  0  0  0  0
    0.2029   -2.0836   -1.7612 H   0  0  0  0  0  0  0  0  0  0  0  0
   -1.1493   -2.0038   -0.6477 H   0  0  0  0  0  0  0  0  0  0  0  0
   -1.3713   -1.3517   -3.6361 H   0  0  0  0  0  0  0  0  0  0  0  0
   -1.8026   -2.9074   -2.9376 H   0  0  0  0  0  0  0  0  0  0  0  0
   -3.7581   -2.0596   -1.8952 H   0  0  0  0  0  0  0  0  0  0  0  0
   -3.6697   -0.9835   -3.2889 H   0  0  0  0  0  0  0  0  0  0  0  0
   -3.0483   -0.4049   -0.3646 H   0  0  0  0  0  0  0  0  0  0  0  0
   -3.9430    0.5771   -1.5171 H   0  0  0  0  0  0  0  0  0  0  0  0
   -1.7601    1.0617   -2.7364 H   0  0  0  0  0  0  0  0  0  0  0  0
   -1.7673    1.6753   -1.0845 H   0  0  0  0  0  0  0  0  0  0  0  0
    0.5909    2.3092   -1.9237 H   0  0  0  0  0  0  0  0  0  0  0  0
    3.7597    0.4669   -0.7656 H   0  0  0  0  0  0  0  0  0  0  0  0
    3.3090    1.1802   -2.3461 H   0  0  0  0  0  0  0  0  0  0  0  0
    3.1413   -0.0572   -4.1887 H   0  0  0  0  0  0  0  0  0  0  0  0
    2.4171   -1.6242   -3.8159 H   0  0  0  0  0  0  0  0  0  0  0  0
    6.0515   -0.6596   -3.7596 H   0  0  0  0  0  0  0  0  0  0  0  0
    7.7633   -1.7340   -5.2298 H   0  0  0  0  0  0  0  0  0  0  0  0
    7.0648   -3.4367   -6.9139 H   0  0  0  0  0  0  0  0  0  0  0  0
    4.6558   -4.0505   -7.1237 H   0  0  0  0  0  0  0  0  0  0  0  0
    2.9642   -2.9695   -5.6559 H   0  0  0  0  0  0  0  0  0  0  0  0
    4.5690   -1.6712   -0.6577 H   0  0  0  0  0  0  0  0  0  0  0  0
    4.8857   -2.5839   -2.1415 H   0  0  0  0  0  0  0  0  0  0  0  0
    2.9777   -3.9149   -3.2142 H   0  0  0  0  0  0  0  0  0  0  0  0
    1.0770   -5.4279   -2.7100 H   0  0  0  0  0  0  0  0  0  0  0  0
    0.0076   -5.3852   -0.4559 H   0  0  0  0  0  0  0  0  0  0  0  0
    0.8515   -3.7985    1.2785 H   0  0  0  0  0  0  0  0  0  0  0  0
    2.7046   -2.2401    0.7448 H   0  0  0  0  0  0  0  0  0  0  0  0
  1  2  1  0
  7  1  1  0
  1 30  1  0
  2  3  2  0
  2  4  1  0
  4  5  1  0
  4 14  1  0
  5  6  1  6
  5  7  1  0
  5 13  1  0
  7  8  1  0
  7 12  1  0
  8  9  1  0
  8 31  1  0
  8 32  1  0
  9 10  1  0
  9 33  1  0
  9 34  1  0
 10 11  1  0
 10 35  1  0
 10 36  1  0
 11 12  1  0
 11 37  1  0
 11 38  1  0
 12 39  1  0
 12 40  1  0
 13 41  1  0
 14 15  1  0
 14 42  1  0
 14 43  1  0
 15 16  1  0
 15 23  1  0
 16 17  1  0
 16 44  1  0
 16 45  1  0
 17 18  2  0
 17 22  1  0
 18 19  1  0
 18 46  1  0
 19 20  2  0
 19 47  1  0
 20 21  1  0
 20 48  1  0
 21 22  2  0
 21 49  1  0
 22 50  1  0
 23 24  1  0
 23 51  1  0
 23 52  1  0
 24 25  2  0
 24 29  1  0
 25 26  1  0
 25 53  1  0
 26 27  2  0
 26 54  1  0
 27 28  1  0
 27 55  1  0
 28 29  2  0
 28 56  1  0
 29 57  1  0
M  END

