57
rmsd249.gzmat
N          0.00000        0.00000        0.00000
C          1.39910        0.00000        0.00000
O          2.10330        0.00000        0.98370
N          1.83510       -0.00470       -1.33770
C          0.71170        0.15720       -2.26210
H          0.80560       -0.45780       -3.18410
C         -0.54840       -0.19180       -1.36110
C         -0.95080       -1.66250       -1.58230
C         -1.98450       -1.77160       -2.70390
C         -3.29780       -1.07370       -2.31480
C         -3.05890        0.09300       -1.34290
C         -1.71420        0.77050       -1.62030
O          0.67110        1.46350       -2.75230
C          3.22150        0.32240       -1.70670
N          4.12440       -0.82840       -1.79050
C          4.10700       -1.55680       -3.07000
C          2.83530       -2.25240       -3.48030
C          2.13600       -1.80180       -4.60260
C          0.97530       -2.45380       -5.01330
C          0.51040       -3.56290       -4.30930
C          1.21480       -4.02390       -3.19830
C          2.37750       -3.37500       -2.78930
C          4.07950       -1.68140       -0.58260
C          5.21570       -2.66660       -0.55950
C          6.50700       -2.26890       -0.91350
C          7.55160       -3.18840       -0.88490
C          7.31410       -4.50450       -0.48970
C          6.02960       -4.89750       -0.11930
C          4.98060       -3.98080       -0.15170
H         -0.53560       -0.23020        0.81300
H         -0.05880       -2.27910       -1.81490
H         -1.36410       -2.09000       -0.64830
H         -1.57740       -1.32780       -3.63320
H         -2.17430       -2.83440       -2.94200
H         -3.99150       -1.80090       -1.85490
H         -3.80590       -0.70840       -3.22600
H         -3.08980       -0.27100       -0.29900
H         -3.87880        0.82950       -1.42780
H         -1.68450        1.11350       -2.67690
H         -1.60780        1.68310       -1.00380
H          0.59810        2.13430       -2.04210
H          3.64800        1.00440       -0.91960
H          3.21530        0.86150       -2.68740
H          4.93450       -2.31240       -3.03540
H          4.41970       -0.82440       -3.85460
H          2.49630       -0.93950       -5.16090
H          0.43480       -2.09790       -5.88800
H         -0.39440       -4.07250       -4.63130
H          0.86180       -4.89750       -2.65360
H          2.93820       -3.75350       -1.93500
H          3.09650       -2.19190       -0.46520
H          4.16680       -1.00710        0.31270
H          6.68620       -1.23530       -1.21330
H          8.55480       -2.87890       -1.16820
H          8.13170       -5.22000       -0.46520
H          5.84430       -5.92160        0.19660
H          3.98270       -4.29080        0.15120
