
     RDKit          3D

 57 60  0  0  0  0  0  0  0  0999 V2000
   -0.0183   -0.3680   -0.0644 N   0  0  0  0  0  0  0  0  0  0  0  0
    1.3365   -0.2709   -0.2522 C   0  0  0  0  0  0  0  0  0  0  0  0
    2.2197   -0.4829    0.5558 O   0  0  0  0  0  0  0  0  0  0  0  0
    1.5175    0.1316   -1.5776 N   0  0  0  0  0  0  0  0  0  0  0  0
    0.2651    0.5218   -2.1859 C   0  0  1  0  0  0  0  0  0  0  0  0
    0.2237    0.1521   -3.2297 H   0  0  0  0  0  0  0  0  0  0  0  0
   -0.7814   -0.2254   -1.3047 C   0  0  0  0  0  0  0  0  0  0  0  0
   -1.1015   -1.6153   -1.9101 C   0  0  0  0  0  0  0  0  0  0  0  0
   -2.2991   -1.5522   -2.8579 C   0  0  0  0  0  0  0  0  0  0  0  0
   -3.5868   -1.1781   -2.0917 C   0  0  0  0  0  0  0  0  0  0  0  0
   -3.2832   -0.2997   -0.8598 C   0  0  0  0  0  0  0  0  0  0  0  0
   -2.0718    0.5992   -1.1110 C   0  0  0  0  0  0  0  0  0  0  0  0
    0.0723    1.9125   -2.1699 O   0  0  0  0  0  0  0  0  0  0  0  0
    2.7691    0.6346   -2.0712 C   0  0  0  0  0  0  0  0  0  0  0  0
    2.8387    2.1043   -1.9969 N   0  0  0  0  0  0  0  0  0  0  0  0
    3.5973    2.7541   -3.0745 C   0  0  0  0  0  0  0  0  0  0  0  0
    5.1095    2.6406   -2.9901 C   0  0  0  0  0  0  0  0  0  0  0  0
    5.8830    3.7614   -2.6576 C   0  0  0  0  0  0  0  0  0  0  0  0
    7.2727    3.6686   -2.5415 C   0  0  0  0  0  0  0  0  0  0  0  0
    7.9124    2.4457   -2.7566 C   0  0  0  0  0  0  0  0  0  0  0  0
    7.1544    1.3217   -3.0983 C   0  0  0  0  0  0  0  0  0  0  0  0
    5.7667    1.4208   -3.2168 C   0  0  0  0  0  0  0  0  0  0  0  0
    3.1907    2.5717   -0.6465 C   0  0  0  0  0  0  0  0  0  0  0  0
    2.8422    4.0231   -0.4105 C   0  0  0  0  0  0  0  0  0  0  0  0
    1.5128    4.4620   -0.5182 C   0  0  0  0  0  0  0  0  0  0  0  0
    1.1883    5.8013   -0.2966 C   0  0  0  0  0  0  0  0  0  0  0  0
    2.1851    6.7221    0.0441 C   0  0  0  0  0  0  0  0  0  0  0  0
    3.5079    6.2921    0.1676 C   0  0  0  0  0  0  0  0  0  0  0  0
    3.8315    4.9507   -0.0600 C   0  0  0  0  0  0  0  0  0  0  0  0
   -0.3697   -0.8724    0.7396 H   0  0  0  0  0  0  0  0  0  0  0  0
   -0.2022   -2.0119   -2.4077 H   0  0  0  0  0  0  0  0  0  0  0  0
   -1.3257   -2.3117   -1.0849 H   0  0  0  0  0  0  0  0  0  0  0  0
   -2.0939   -0.8018   -3.6405 H   0  0  0  0  0  0  0  0  0  0  0  0
   -2.4271   -2.5109   -3.3842 H   0  0  0  0  0  0  0  0  0  0  0  0
   -4.1139   -2.0918   -1.7715 H   0  0  0  0  0  0  0  0  0  0  0  0
   -4.2751   -0.6474   -2.7696 H   0  0  0  0  0  0  0  0  0  0  0  0
   -3.0887   -0.9392    0.0191 H   0  0  0  0  0  0  0  0  0  0  0  0
   -4.1626    0.3087   -0.5972 H   0  0  0  0  0  0  0  0  0  0  0  0
   -2.2454    1.2085   -2.0107 H   0  0  0  0  0  0  0  0  0  0  0  0
   -1.9089    1.3116   -0.2911 H   0  0  0  0  0  0  0  0  0  0  0  0
    0.9779    2.2958   -2.2421 H   0  0  0  0  0  0  0  0  0  0  0  0
    2.8705    0.3488   -3.1299 H   0  0  0  0  0  0  0  0  0  0  0  0
    3.5703    0.1411   -1.4949 H   0  0  0  0  0  0  0  0  0  0  0  0
    3.3202    3.8188   -3.0761 H   0  0  0  0  0  0  0  0  0  0  0  0
    3.2396    2.3290   -4.0263 H   0  0  0  0  0  0  0  0  0  0  0  0
    5.3857    4.7188   -2.4857 H   0  0  0  0  0  0  0  0  0  0  0  0
    7.8569    4.5549   -2.2819 H   0  0  0  0  0  0  0  0  0  0  0  0
    8.9983    2.3685   -2.6640 H   0  0  0  0  0  0  0  0  0  0  0  0
    7.6475    0.3634   -3.2787 H   0  0  0  0  0  0  0  0  0  0  0  0
    5.1916    0.5364   -3.4991 H   0  0  0  0  0  0  0  0  0  0  0  0
    4.2665    2.4090   -0.4453 H   0  0  0  0  0  0  0  0  0  0  0  0
    2.6499    1.9402    0.0719 H   0  0  0  0  0  0  0  0  0  0  0  0
    0.7282    3.7448   -0.7679 H   0  0  0  0  0  0  0  0  0  0  0  0
    0.1489    6.1276   -0.3835 H   0  0  0  0  0  0  0  0  0  0  0  0
    1.9291    7.7701    0.2179 H   0  0  0  0  0  0  0  0  0  0  0  0
    4.2926    7.0020    0.4407 H   0  0  0  0  0  0  0  0  0  0  0  0
    4.8671    4.6156    0.0361 H   0  0  0  0  0  0  0  0  0  0  0  0
  1  2  1  0
  7  1  1  0
  1 30  1  0
  2  3  2  0
  2  4  1  0
  4  5  1  0
  4 14  1  0
  5  6  1  6
  5  7  1  0
  5 13  1  0
  7  8  1  0
  7 12  1  0
  8  9  1  0
  8 31  1  0
  8 32  1  0
  9 10  1  0
  9 33  1  0
  9 34  1  0
 10 11  1  0
 10 35  1  0
 10 36  1  0
 11 12  1  0
 11 37  1  0
 11 38  1  0
 12 39  1  0
 12 40  1  0
 13 41  1  0
 14 15  1  0
 14 42  1  0
 14 43  1  0
 15 16  1  0
 15 23  1  0
 16 17  1  0
 16 44  1  0
 16 45  1  0
 17 18  2  0
 17 22  1  0
 18 19  1  0
 18 46  1  0
 19 20  2  0
 19 47  1  0
 20 21  1  0
 20 48  1  0
 21 22  2  0
 21 49  1  0
 22 50  1  0
 23 24  1  0
 23 51  1  0
 23 52  1  0
 24 25  2  0
 24 29  1  0
 25 26  1  0
 25 53  1  0
 26 27  2  0
 26 54  1  0
 27 28  1  0
 27 55  1  0
 28 29  2  0
 28 56  1  0
 29 57  1  0
M  END

