
     RDKit          3D

 57 60  0  0  0  0  0  0  0  0999 V2000
   -0.1053    0.1358   -0.0063 N   0  0  0  0  0  0  0  0  0  0  0  0
    1.2699    0.0478   -0.0429 C   0  0  0  0  0  0  0  0  0  0  0  0
    2.0218   -0.0550    0.9095 O   0  0  0  0  0  0  0  0  0  0  0  0
    1.6407    0.1281   -1.3768 N   0  0  0  0  0  0  0  0  0  0  0  0
    0.5067    0.3436   -2.2418 C   0  0  1  0  0  0  0  0  0  0  0  0
    0.5587   -0.3002   -3.1350 H   0  0  0  0  0  0  0  0  0  0  0  0
   -0.6938   -0.0863   -1.3273 C   0  0  0  0  0  0  0  0  0  0  0  0
   -1.0143   -1.5876   -1.5390 C   0  0  0  0  0  0  0  0  0  0  0  0
   -2.0766   -1.7889   -2.6194 C   0  0  0  0  0  0  0  0  0  0  0  0
   -3.4271   -1.1821   -2.1801 C   0  0  0  0  0  0  0  0  0  0  0  0
   -3.2320    0.0190   -1.2311 C   0  0  0  0  0  0  0  0  0  0  0  0
   -1.9481    0.7788   -1.5674 C   0  0  0  0  0  0  0  0  0  0  0  0
    0.4149    1.6498   -2.7468 O   0  0  0  0  0  0  0  0  0  0  0  0
    3.0425    0.0747   -1.7859 C   0  0  0  0  0  0  0  0  0  0  0  0
    3.6738    1.2722   -2.2649 N   0  0  0  0  0  0  0  0  0  0  0  0
    3.8881    2.3555   -1.3055 C   0  0  0  0  0  0  0  0  0  0  0  0
    2.7155    3.3053   -1.1213 C   0  0  0  0  0  0  0  0  0  0  0  0
    1.8014    3.1335   -0.0706 C   0  0  0  0  0  0  0  0  0  0  0  0
    0.6637    3.9408    0.0274 C   0  0  0  0  0  0  0  0  0  0  0  0
    0.4306    4.9452   -0.9180 C   0  0  0  0  0  0  0  0  0  0  0  0
    1.3561    5.1509   -1.9459 C   0  0  0  0  0  0  0  0  0  0  0  0
    2.4912    4.3417   -2.0411 C   0  0  0  0  0  0  0  0  0  0  0  0
    3.4325    1.6508   -3.6463 C   0  0  0  0  0  0  0  0  0  0  0  0
    4.5942    2.3955   -4.2726 C   0  0  0  0  0  0  0  0  0  0  0  0
    5.9184    2.0296   -3.9930 C   0  0  0  0  0  0  0  0  0  0  0  0
    6.9846    2.6979   -4.5973 C   0  0  0  0  0  0  0  0  0  0  0  0
    6.7423    3.7434   -5.4947 C   0  0  0  0  0  0  0  0  0  0  0  0
    5.4265    4.1158   -5.7799 C   0  0  0  0  0  0  0  0  0  0  0  0
    4.3617    3.4473   -5.1682 C   0  0  0  0  0  0  0  0  0  0  0  0
   -0.5696   -0.1794    0.8373 H   0  0  0  0  0  0  0  0  0  0  0  0
   -0.0839   -2.1307   -1.7707 H   0  0  0  0  0  0  0  0  0  0  0  0
   -1.3808   -2.0051   -0.5859 H   0  0  0  0  0  0  0  0  0  0  0  0
   -1.7324   -1.3090   -3.5515 H   0  0  0  0  0  0  0  0  0  0  0  0
   -2.1916   -2.8583   -2.8546 H   0  0  0  0  0  0  0  0  0  0  0  0
   -4.0406   -1.9497   -1.6804 H   0  0  0  0  0  0  0  0  0  0  0  0
   -3.9941   -0.8670   -3.0711 H   0  0  0  0  0  0  0  0  0  0  0  0
   -3.1864   -0.3306   -0.1849 H   0  0  0  0  0  0  0  0  0  0  0  0
   -4.1006    0.6936   -1.2835 H   0  0  0  0  0  0  0  0  0  0  0  0
   -1.9691    1.0920   -2.6220 H   0  0  0  0  0  0  0  0  0  0  0  0
   -1.8559    1.7014   -0.9760 H   0  0  0  0  0  0  0  0  0  0  0  0
    0.5080    2.2773   -2.0120 H   0  0  0  0  0  0  0  0  0  0  0  0
    3.1368   -0.6893   -2.5761 H   0  0  0  0  0  0  0  0  0  0  0  0
    3.5712   -0.2798   -0.8890 H   0  0  0  0  0  0  0  0  0  0  0  0
    4.7647    2.9350   -1.6380 H   0  0  0  0  0  0  0  0  0  0  0  0
    4.1432    1.8946   -0.3402 H   0  0  0  0  0  0  0  0  0  0  0  0
    1.9808    2.3543    0.6720 H   0  0  0  0  0  0  0  0  0  0  0  0
   -0.0420    3.7806    0.8460 H   0  0  0  0  0  0  0  0  0  0  0  0
   -0.4615    5.5720   -0.8472 H   0  0  0  0  0  0  0  0  0  0  0  0
    1.1919    5.9449   -2.6785 H   0  0  0  0  0  0  0  0  0  0  0  0
    3.2118    4.5108   -2.8441 H   0  0  0  0  0  0  0  0  0  0  0  0
    2.5022    2.2321   -3.7795 H   0  0  0  0  0  0  0  0  0  0  0  0
    3.2751    0.7145   -4.2106 H   0  0  0  0  0  0  0  0  0  0  0  0
    6.0974    1.2188   -3.2830 H   0  0  0  0  0  0  0  0  0  0  0  0
    8.0117    2.4030   -4.3674 H   0  0  0  0  0  0  0  0  0  0  0  0
    7.5768    4.2681   -5.9661 H   0  0  0  0  0  0  0  0  0  0  0  0
    5.2271    4.9344   -6.4761 H   0  0  0  0  0  0  0  0  0  0  0  0
    3.3320    3.7448   -5.3867 H   0  0  0  0  0  0  0  0  0  0  0  0
  1  2  1  0
  7  1  1  0
  1 30  1  0
  2  3  2  0
  2  4  1  0
  4  5  1  0
  4 14  1  0
  5  6  1  6
  5  7  1  0
  5 13  1  0
  7  8  1  0
  7 12  1  0
  8  9  1  0
  8 31  1  0
  8 32  1  0
  9 10  1  0
  9 33  1  0
  9 34  1  0
 10 11  1  0
 10 35  1  0
 10 36  1  0
 11 12  1  0
 11 37  1  0
 11 38  1  0
 12 39  1  0
 12 40  1  0
 13 41  1  0
 14 15  1  0
 14 42  1  0
 14 43  1  0
 15 16  1  0
 15 23  1  0
 16 17  1  0
 16 44  1  0
 16 45  1  0
 17 18  2  0
 17 22  1  0
 18 19  1  0
 18 46  1  0
 19 20  2  0
 19 47  1  0
 20 21  1  0
 20 48  1  0
 21 22  2  0
 21 49  1  0
 22 50  1  0
 23 24  1  0
 23 51  1  0
 23 52  1  0
 24 25  2  0
 24 29  1  0
 25 26  1  0
 25 53  1  0
 26 27  2  0
 26 54  1  0
 27 28  1  0
 27 55  1  0
 28 29  2  0
 28 56  1  0
 29 57  1  0
M  END

