57
rmsd35.gzmat
N          0.00000        0.00000        0.00000
C          1.39010        0.00000        0.00000
O          2.09620        0.00000        0.98520
N          1.82790       -0.00530       -1.33380
C          0.71780        0.07290       -2.27840
H          0.77990       -0.66800       -3.10550
C         -0.57660       -0.07060       -1.35530
C         -1.22590       -1.45220       -1.57420
C         -2.30400       -1.36710       -2.65580
C         -3.47080       -0.47680       -2.19680
C         -2.99880        0.64530       -1.25660
C         -1.56940        1.07570       -1.59450
O          0.70870        1.29800       -2.94260
C          3.23060       -0.26680       -1.68670
N          3.99400        0.81630       -2.29930
C          4.21750        2.00210       -1.44940
C          3.03950        2.92520       -1.25520
C          2.33990        2.91410       -0.04700
C          1.20990        3.71050        0.11810
C          0.77830        4.53350       -0.92030
C          1.50410        4.58650       -2.10830
C          2.64070        3.79650       -2.27050
C          3.61780        1.16290       -3.68710
C          3.54570       -0.05920       -4.56440
C          2.38000       -0.32000       -5.28620
C          2.31180       -1.43750       -6.11500
C          3.40510       -2.29500       -6.22310
C          4.56980       -2.03420       -5.50180
C          4.64160       -0.91720       -4.67370
H         -0.56110        0.02660        0.82270
H         -0.46200       -2.20710       -1.83490
H         -1.67350       -1.81270       -0.62680
H         -1.86730       -0.96560       -3.59090
H         -2.67420       -2.37740       -2.90640
H         -4.23660       -1.08800       -1.68650
H         -3.97270       -0.04320       -3.08090
H         -3.05370        0.30790       -0.20510
H         -3.68110        1.51190       -1.32960
H         -1.52430        1.39560       -2.65830
H         -1.28010        1.96720       -1.00700
H          0.88450        2.05840       -2.33700
H          3.25210       -1.14290       -2.38940
H          3.76540       -0.55860       -0.73800
H          5.07270        2.56710       -1.89470
H          4.58630        1.63420       -0.45960
H          2.67030        2.26650        0.77070
H          0.66570        3.68730        1.06110
H         -0.11260        5.14520       -0.79740
H          1.18790        5.25090       -2.91040
H          3.21540        3.86530       -3.19200
H          4.40770        1.84680       -4.08380
H          2.65610        1.72840       -3.73760
H          1.52310        0.35090       -5.19990
H          1.40390       -1.64010       -6.67870
H          3.35080       -3.16660       -6.87030
H          5.42270       -2.70390       -5.58610
H          5.54530       -0.70970       -4.10070
