rmsd41.gzmat
 OpenBabel08211713383D

 57 60  0  0  1  0  0  0  0  0999 V2000
    0.0000    0.0000    0.0000 N   0  0  0  0  0  0  0  0  0  0  0  0
    1.3898    0.0000    0.0000 C   0  0  0  0  0  0  0  0  0  0  0  0
    2.0911    0.0000    0.9861 O   0  0  0  0  0  0  0  0  0  0  0  0
    1.8444   -0.0583   -1.3465 N   0  0  0  0  0  0  0  0  0  0  0  0
    0.7106    0.1055   -2.2774 C   0  0  1  0  0  0  0  0  0  0  0  0
    0.7758   -0.6126   -3.1244 H   0  0  0  0  0  0  0  0  0  0  0  0
   -0.5706   -0.1179   -1.3561 C   0  0  0  0  0  0  0  0  0  0  0  0
   -1.1281   -1.5387   -1.5796 C   0  0  0  0  0  0  0  0  0  0  0  0
   -2.1819   -1.5290   -2.6883 C   0  0  0  0  0  0  0  0  0  0  0  0
   -3.4109   -0.7035   -2.2718 C   0  0  0  0  0  0  0  0  0  0  0  0
   -3.0386    0.4315   -1.3032 C   0  0  0  0  0  0  0  0  0  0  0  0
   -1.6334    0.9629   -1.5938 C   0  0  0  0  0  0  0  0  0  0  0  0
    0.6697    1.3494   -2.8944 O   0  0  0  0  0  0  0  0  0  0  0  0
    3.1462    0.5365   -1.6670 C   0  0  0  0  0  0  0  0  0  0  0  0
    3.0547    2.0162   -1.6122 N   0  0  0  0  0  0  0  0  0  0  0  0
    3.6188    2.6843   -2.8035 C   0  0  0  0  0  0  0  0  0  0  0  0
    5.0816    2.4206   -3.0479 C   0  0  0  0  0  0  0  0  0  0  0  0
    5.4736    1.3846   -3.8974 C   0  0  0  0  0  0  0  0  0  0  0  0
    6.8268    1.1234   -4.1004 C   0  0  0  0  0  0  0  0  0  0  0  0
    7.7921    1.8997   -3.4610 C   0  0  0  0  0  0  0  0  0  0  0  0
    7.4018    2.9477   -2.6292 C   0  0  0  0  0  0  0  0  0  0  0  0
    6.0490    3.2117   -2.4273 C   0  0  0  0  0  0  0  0  0  0  0  0
    3.5502    2.5772   -0.3347 C   0  0  0  0  0  0  0  0  0  0  0  0
    3.0311    3.9803   -0.1686 C   0  0  0  0  0  0  0  0  0  0  0  0
    1.6632    4.2339   -0.2931 C   0  0  0  0  0  0  0  0  0  0  0  0
    1.1799    5.5320   -0.1546 C   0  0  0  0  0  0  0  0  0  0  0  0
    2.0599    6.5791    0.1183 C   0  0  0  0  0  0  0  0  0  0  0  0
    3.4222    6.3233    0.2607 C   0  0  0  0  0  0  0  0  0  0  0  0
    3.9098    5.0253    0.1193 C   0  0  0  0  0  0  0  0  0  0  0  0
   -0.5530   -0.1382    0.8195 H   0  0  0  0  0  0  0  0  0  0  0  0
   -0.3102   -2.2441   -1.8182 H   0  0  0  0  0  0  0  0  0  0  0  0
   -1.5779   -1.9232   -0.6431 H   0  0  0  0  0  0  0  0  0  0  0  0
   -1.7466   -1.1137   -3.6179 H   0  0  0  0  0  0  0  0  0  0  0  0
   -2.4851   -2.5625   -2.9358 H   0  0  0  0  0  0  0  0  0  0  0  0
   -4.1665   -1.3582   -1.8007 H   0  0  0  0  0  0  0  0  0  0  0  0
   -3.8948   -0.2859   -3.1738 H   0  0  0  0  0  0  0  0  0  0  0  0
   -3.0992    0.0740   -0.2585 H   0  0  0  0  0  0  0  0  0  0  0  0
   -3.7765    1.2511   -1.3814 H   0  0  0  0  0  0  0  0  0  0  0  0
   -1.5789    1.3141   -2.6475 H   0  0  0  0  0  0  0  0  0  0  0  0
   -1.4175    1.8566   -0.9778 H   0  0  0  0  0  0  0  0  0  0  0  0
    1.0575    2.0632   -2.3268 H   0  0  0  0  0  0  0  0  0  0  0  0
    3.4289    0.1901   -2.6918 H   0  0  0  0  0  0  0  0  0  0  0  0
    3.8918    0.1241   -0.9383 H   0  0  0  0  0  0  0  0  0  0  0  0
    3.4333    3.7816   -2.6967 H   0  0  0  0  0  0  0  0  0  0  0  0
    3.0046    2.3672   -3.6826 H   0  0  0  0  0  0  0  0  0  0  0  0
    4.7250    0.7822   -4.4086 H   0  0  0  0  0  0  0  0  0  0  0  0
    7.1309    0.3134   -4.7604 H   0  0  0  0  0  0  0  0  0  0  0  0
    8.8484    1.6909   -3.6153 H   0  0  0  0  0  0  0  0  0  0  0  0
    8.1544    3.5613   -2.1374 H   0  0  0  0  0  0  0  0  0  0  0  0
    5.7469    4.0414   -1.7890 H   0  0  0  0  0  0  0  0  0  0  0  0
    4.6602    2.5376   -0.2591 H   0  0  0  0  0  0  0  0  0  0  0  0
    3.1635    1.9445    0.5084 H   0  0  0  0  0  0  0  0  0  0  0  0
    0.9796    3.4115   -0.4975 H   0  0  0  0  0  0  0  0  0  0  0  0
    0.1150    5.7288   -0.2574 H   0  0  0  0  0  0  0  0  0  0  0  0
    1.6825    7.5929    0.2243 H   0  0  0  0  0  0  0  0  0  0  0  0
    4.1078    7.1381    0.4831 H   0  0  0  0  0  0  0  0  0  0  0  0
    4.9734    4.8330    0.2405 H   0  0  0  0  0  0  0  0  0  0  0  0
  1  2  1  0  0  0  0
  1 30  1  0  0  0  0
  2  3  2  0  0  0  0
  4  2  1  0  0  0  0
  5  6  1  6  0  0  0
  5  7  1  0  0  0  0
  5  4  1  0  0  0  0
  7  1  1  0  0  0  0
  8  7  1  0  0  0  0
  8 32  1  0  0  0  0
  9 10  1  0  0  0  0
  9  8  1  0  0  0  0
 10 35  1  0  0  0  0
 10 11  1  0  0  0  0
 11 37  1  0  0  0  0
 12  7  1  0  0  0  0
 12 11  1  0  0  0  0
 12 40  1  0  0  0  0
 13 41  1  0  0  0  0
 13  5  1  0  0  0  0
 14 15  1  0  0  0  0
 14  4  1  0  0  0  0
 14 43  1  0  0  0  0
 15 23  1  0  0  0  0
 16 44  1  0  0  0  0
 16 15  1  0  0  0  0
 17 16  1  0  0  0  0
 17 22  2  0  0  0  0
 18 17  1  0  0  0  0
 19 18  2  0  0  0  0
 19 20  1  0  0  0  0
 20 21  2  0  0  0  0
 21 22  1  0  0  0  0
 21 49  1  0  0  0  0
 22 50  1  0  0  0  0
 23 51  1  0  0  0  0
 23 24  1  0  0  0  0
 23 52  1  0  0  0  0
 24 29  1  0  0  0  0
 25 24  2  0  0  0  0
 25 26  1  0  0  0  0
 26 27  2  0  0  0  0
 27 55  1  0  0  0  0
 27 28  1  0  0  0  0
 28 56  1  0  0  0  0
 29 57  1  0  0  0  0
 29 28  2  0  0  0  0
 31  8  1  0  0  0  0
 33  9  1  0  0  0  0
 34  9  1  0  0  0  0
 36 10  1  0  0  0  0
 38 11  1  0  0  0  0
 39 12  1  0  0  0  0
 42 14  1  0  0  0  0
 45 16  1  0  0  0  0
 46 18  1  0  0  0  0
 47 19  1  0  0  0  0
 48 20  1  0  0  0  0
 53 25  1  0  0  0  0
 54 26  1  0  0  0  0
M  END
$$$$
