57

N         -0.00360        0.34310       -0.02740
C          1.37450        0.25390        0.02730
O          2.07000        0.27760        1.02460
N          1.81980        0.15330       -1.28630
C          0.73660        0.33550       -2.22370
H          0.81720       -0.34980       -3.07440
C         -0.50900       -0.01940       -1.35300
C         -0.79820       -1.54150       -1.44510
C         -1.83050       -1.85260       -2.52760
C         -3.20030       -1.23380       -2.18220
C         -3.04770        0.07360       -1.37620
C         -1.75400        0.79910       -1.74970
O          0.72450        1.62280       -2.79720
C          3.23540        0.29080       -1.61920
N          3.98740       -0.92660       -1.78600
C          4.03090       -1.53800       -3.10980
C          2.79600       -2.27820       -3.59680
C          1.99940       -1.74450       -4.62050
C          0.86290       -2.41750       -5.07820
C          0.49880       -3.63990       -4.50880
C          1.28950       -4.19030       -3.49550
C          2.43340       -3.52160       -3.05280
C          3.94330       -1.81650       -0.63740
C          5.12170       -2.76190       -0.56270
C          6.41790       -2.31300       -0.85730
C          7.51060       -3.17520       -0.75670
C          7.32570       -4.50310       -0.35630
C          6.04000       -4.96010       -0.05930
C          4.94730       -4.09390       -0.16600
H         -0.51730        0.10780        0.81390
H          0.14210       -2.08620       -1.61970
H         -1.17960       -1.88290       -0.46750
H         -1.46320       -1.45700       -3.48830
H         -1.91770       -2.94010       -2.67190
H         -3.80510       -1.95240       -1.60490
H         -3.75960       -1.03850       -3.11190
H         -3.03800       -0.14900       -0.29490
H         -3.91620        0.73060       -1.53870
H         -1.73220        0.98190       -2.83520
H         -1.69580        1.78620       -1.26740
H          0.65930        2.27200       -2.08140
H          3.68380        0.86120       -0.79110
H          3.30720        0.89010       -2.53870
H          4.88160       -2.23830       -3.11760
H          4.27320       -0.74270       -3.83260
H          2.27680       -0.78600       -5.06880
H          0.26040       -1.98460       -5.88060
H         -0.39190       -4.16640       -4.85910
H          1.02170       -5.15480       -3.05690
H          3.06730       -3.98190       -2.29310
H          3.00230       -2.40110       -0.58700
H          3.92670       -1.18020        0.26230
H          6.55170       -1.27690       -1.17650
H          8.51400       -2.81040       -0.99070
H          8.18120       -5.17850       -0.27900
H          5.88440       -5.99600        0.25220
H          3.94150       -4.45560        0.06690
