
     RDKit          3D

 57 60  0  0  0  0  0  0  0  0999 V2000
   -0.1041    0.1231   -0.0347 N   0  0  0  0  0  0  0  0  0  0  0  0
    1.2730    0.0875    0.0449 C   0  0  0  0  0  0  0  0  0  0  0  0
    1.9432   -0.0114    1.0574 O   0  0  0  0  0  0  0  0  0  0  0  0
    1.7531    0.2118   -1.2483 N   0  0  0  0  0  0  0  0  0  0  0  0
    0.6906    0.3645   -2.2094 C   0  0  1  0  0  0  0  0  0  0  0  0
    0.8548   -0.2766   -3.0893 H   0  0  0  0  0  0  0  0  0  0  0  0
   -0.5645   -0.1182   -1.4027 C   0  0  0  0  0  0  0  0  0  0  0  0
   -0.7967   -1.6313   -1.6438 C   0  0  0  0  0  0  0  0  0  0  0  0
   -1.7450   -1.8729   -2.8179 C   0  0  0  0  0  0  0  0  0  0  0  0
   -3.1562   -1.3296   -2.5040 C   0  0  0  0  0  0  0  0  0  0  0  0
   -3.1035   -0.1288   -1.5362 C   0  0  0  0  0  0  0  0  0  0  0  0
   -1.8306    0.6908   -1.7515 C   0  0  0  0  0  0  0  0  0  0  0  0
    0.5821    1.6657   -2.7325 O   0  0  0  0  0  0  0  0  0  0  0  0
    3.1854    0.1611   -1.5456 C   0  0  0  0  0  0  0  0  0  0  0  0
    3.8535    1.3586   -1.9793 N   0  0  0  0  0  0  0  0  0  0  0  0
    4.0008    2.4359   -1.0057 C   0  0  0  0  0  0  0  0  0  0  0  0
    2.7919    3.3500   -0.8569 C   0  0  0  0  0  0  0  0  0  0  0  0
    1.8450    3.1333    0.1551 C   0  0  0  0  0  0  0  0  0  0  0  0
    0.6683    3.8863    0.2083 C   0  0  0  0  0  0  0  0  0  0  0  0
    0.4283    4.8849   -0.7415 C   0  0  0  0  0  0  0  0  0  0  0  0
    1.3856    5.1400   -1.7284 C   0  0  0  0  0  0  0  0  0  0  0  0
    2.5583    4.3821   -1.7791 C   0  0  0  0  0  0  0  0  0  0  0  0
    3.6728    1.8015   -3.3585 C   0  0  0  0  0  0  0  0  0  0  0  0
    3.8129    0.6828   -4.3640 C   0  0  0  0  0  0  0  0  0  0  0  0
    2.7560    0.3691   -5.2281 C   0  0  0  0  0  0  0  0  0  0  0  0
    2.8794   -0.6679   -6.1590 C   0  0  0  0  0  0  0  0  0  0  0  0
    4.0628   -1.4060   -6.2312 C   0  0  0  0  0  0  0  0  0  0  0  0
    5.1231   -1.1013   -5.3695 C   0  0  0  0  0  0  0  0  0  0  0  0
    4.9976   -0.0647   -4.4440 C   0  0  0  0  0  0  0  0  0  0  0  0
   -0.6209   -0.2316    0.7615 H   0  0  0  0  0  0  0  0  0  0  0  0
    0.1743   -2.1310   -1.7907 H   0  0  0  0  0  0  0  0  0  0  0  0
   -1.2301   -2.0699   -0.7290 H   0  0  0  0  0  0  0  0  0  0  0  0
   -1.3374   -1.3725   -3.7130 H   0  0  0  0  0  0  0  0  0  0  0  0
   -1.7894   -2.9449   -3.0652 H   0  0  0  0  0  0  0  0  0  0  0  0
   -3.7788   -2.1274   -2.0667 H   0  0  0  0  0  0  0  0  0  0  0  0
   -3.6516   -1.0322   -3.4426 H   0  0  0  0  0  0  0  0  0  0  0  0
   -3.1370   -0.4847   -0.4916 H   0  0  0  0  0  0  0  0  0  0  0  0
   -3.9940    0.5060   -1.6646 H   0  0  0  0  0  0  0  0  0  0  0  0
   -1.7713    1.0110   -2.8025 H   0  0  0  0  0  0  0  0  0  0  0  0
   -1.8344    1.6115   -1.1500 H   0  0  0  0  0  0  0  0  0  0  0  0
    0.5940    2.3017   -1.9996 H   0  0  0  0  0  0  0  0  0  0  0  0
    3.3430   -0.6118   -2.3119 H   0  0  0  0  0  0  0  0  0  0  0  0
    3.6458   -0.1781   -0.6069 H   0  0  0  0  0  0  0  0  0  0  0  0
    4.8713    3.0444   -1.3090 H   0  0  0  0  0  0  0  0  0  0  0  0
    4.2367    1.9802   -0.0325 H   0  0  0  0  0  0  0  0  0  0  0  0
    2.0237    2.3530    0.8965 H   0  0  0  0  0  0  0  0  0  0  0  0
   -0.0637    3.6870    0.9945 H   0  0  0  0  0  0  0  0  0  0  0  0
   -0.4939    5.4697   -0.7057 H   0  0  0  0  0  0  0  0  0  0  0  0
    1.2164    5.9303   -2.4638 H   0  0  0  0  0  0  0  0  0  0  0  0
    3.2996    4.5897   -2.5544 H   0  0  0  0  0  0  0  0  0  0  0  0
    4.4572    2.5560   -3.5529 H   0  0  0  0  0  0  0  0  0  0  0  0
    2.7010    2.2976   -3.5203 H   0  0  0  0  0  0  0  0  0  0  0  0
    1.8283    0.9430   -5.1585 H   0  0  0  0  0  0  0  0  0  0  0  0
    2.0466   -0.9013   -6.8272 H   0  0  0  0  0  0  0  0  0  0  0  0
    4.1611   -2.2178   -6.9560 H   0  0  0  0  0  0  0  0  0  0  0  0
    6.0518   -1.6753   -5.4224 H   0  0  0  0  0  0  0  0  0  0  0  0
    5.8174    0.1683   -3.7596 H   0  0  0  0  0  0  0  0  0  0  0  0
  1  2  1  0
  7  1  1  0
  1 30  1  0
  2  3  2  0
  2  4  1  0
  4  5  1  0
  4 14  1  0
  5  6  1  6
  5  7  1  0
  5 13  1  0
  7  8  1  0
  7 12  1  0
  8  9  1  0
  8 31  1  0
  8 32  1  0
  9 10  1  0
  9 33  1  0
  9 34  1  0
 10 11  1  0
 10 35  1  0
 10 36  1  0
 11 12  1  0
 11 37  1  0
 11 38  1  0
 12 39  1  0
 12 40  1  0
 13 41  1  0
 14 15  1  0
 14 42  1  0
 14 43  1  0
 15 16  1  0
 15 23  1  0
 16 17  1  0
 16 44  1  0
 16 45  1  0
 17 18  2  0
 17 22  1  0
 18 19  1  0
 18 46  1  0
 19 20  2  0
 19 47  1  0
 20 21  1  0
 20 48  1  0
 21 22  2  0
 21 49  1  0
 22 50  1  0
 23 24  1  0
 23 51  1  0
 23 52  1  0
 24 25  2  0
 24 29  1  0
 25 26  1  0
 25 53  1  0
 26 27  2  0
 26 54  1  0
 27 28  1  0
 27 55  1  0
 28 29  2  0
 28 56  1  0
 29 57  1  0
M  END

