rmsd23.gzmat
 OpenBabel08211713403D

 35 36  0  0  0  0  0  0  0  0999 V2000
    0.0000    0.0000    0.0000 N   0  0  0  0  0  0  0  0  0  0  0  0
    0.9922    0.0000    0.0000 H   0  0  0  0  0  0  0  0  0  0  0  0
   -0.8186    0.0000   -1.1313 C   0  0  0  0  0  0  0  0  0  0  0  0
   -2.1496   -0.0034   -0.7418 C   0  0  0  0  0  0  0  0  0  0  0  0
   -2.1767   -0.0040    0.6966 C   0  0  0  0  0  0  0  0  0  0  0  0
   -3.1987   -0.0102    1.6524 C   0  0  0  0  0  0  0  0  0  0  0  0
   -2.8548   -0.0236    2.9909 C   0  0  0  0  0  0  0  0  0  0  0  0
   -1.5043   -0.0250    3.4051 C   0  0  0  0  0  0  0  0  0  0  0  0
   -0.4681   -0.0159    2.4916 C   0  0  0  0  0  0  0  0  0  0  0  0
   -0.8140   -0.0053    1.1332 C   0  0  0  0  0  0  0  0  0  0  0  0
   -3.3244   -0.0419   -1.6303 C   0  0  0  0  0  0  0  0  0  0  0  0
   -3.6449   -1.4760   -2.0280 C   0  0  0  0  0  0  0  0  0  0  0  0
   -3.7108   -1.8303   -3.1864 O   0  0  0  0  0  0  0  0  0  0  0  0
   -3.8954   -2.3366   -0.9762 N   0  0  0  0  0  0  0  0  0  0  0  0
   -4.1274   -3.7722   -1.1984 C   0  0  0  0  0  0  0  0  0  0  0  0
   -4.3863   -4.3839    0.1871 C   0  0  0  0  0  0  0  0  0  0  0  0
   -4.3098   -3.8456    1.2601 O   0  0  0  0  0  0  0  0  0  0  0  0
   -4.7219   -5.6907    0.0788 O   0  0  0  0  0  0  0  0  0  0  0  0
   -5.3647   -3.9988   -2.0714 C   0  0  0  0  0  0  0  0  0  0  0  0
   -2.8832   -4.4499   -1.7854 C   0  0  0  0  0  0  0  0  0  0  0  0
   -0.4007   -0.0022   -2.1217 H   0  0  0  0  0  0  0  0  0  0  0  0
   -4.2408   -0.0043    1.3406 H   0  0  0  0  0  0  0  0  0  0  0  0
   -3.6337   -0.0394    3.7515 H   0  0  0  0  0  0  0  0  0  0  0  0
   -1.2861   -0.0350    4.4727 H   0  0  0  0  0  0  0  0  0  0  0  0
    0.5694   -0.0187    2.8058 H   0  0  0  0  0  0  0  0  0  0  0  0
   -3.1510    0.5495   -2.5595 H   0  0  0  0  0  0  0  0  0  0  0  0
   -4.2135    0.4251   -1.1526 H   0  0  0  0  0  0  0  0  0  0  0  0
   -3.7151   -2.0455   -0.0162 H   0  0  0  0  0  0  0  0  0  0  0  0
   -4.8981   -6.1240    0.9524 H   0  0  0  0  0  0  0  0  0  0  0  0
   -5.1978   -3.6099   -3.0900 H   0  0  0  0  0  0  0  0  0  0  0  0
   -6.2463   -3.4824   -1.6748 H   0  0  0  0  0  0  0  0  0  0  0  0
   -5.6021   -5.0660   -2.1610 H   0  0  0  0  0  0  0  0  0  0  0  0
   -2.6589   -4.0364   -2.7825 H   0  0  0  0  0  0  0  0  0  0  0  0
   -3.0324   -5.5301   -1.9021 H   0  0  0  0  0  0  0  0  0  0  0  0
   -1.9950   -4.2913   -1.1634 H   0  0  0  0  0  0  0  0  0  0  0  0
  1  2  1  0  0  0  0
  1 10  1  0  0  0  0
  3  4  2  0  0  0  0
  3  1  1  0  0  0  0
  4  5  1  0  0  0  0
  5 10  2  0  0  0  0
  5  6  1  0  0  0  0
  6  7  2  0  0  0  0
  7  8  1  0  0  0  0
  7 23  1  0  0  0  0
  8 24  1  0  0  0  0
  9 25  1  0  0  0  0
  9  8  2  0  0  0  0
 10  9  1  0  0  0  0
 11 27  1  0  0  0  0
 11  4  1  0  0  0  0
 12 11  1  0  0  0  0
 12 14  1  0  0  0  0
 13 12  2  0  0  0  0
 14 28  1  0  0  0  0
 15 14  1  0  0  0  0
 15 16  1  0  0  0  0
 16 17  2  0  0  0  0
 18 16  1  0  0  0  0
 18 29  1  0  0  0  0
 19 31  1  0  0  0  0
 19 15  1  0  0  0  0
 20 15  1  0  0  0  0
 20 35  1  0  0  0  0
 21  3  1  0  0  0  0
 22  6  1  0  0  0  0
 26 11  1  0  0  0  0
 30 19  1  0  0  0  0
 32 19  1  0  0  0  0
 33 20  1  0  0  0  0
 34 20  1  0  0  0  0
M  END
$$$$
