35
rmsd158.gzmat
N          0.00000        0.00000        0.00000
H          0.99240        0.00000        0.00000
C         -0.81870        0.00000       -1.13110
C         -2.14960       -0.01620       -0.74140
C         -2.17710       -0.03460        0.69700
C         -3.19760       -0.05790        1.65430
C         -2.85300       -0.04510        2.99280
C         -1.50260       -0.02080        3.40620
C         -0.46760       -0.01190        2.49110
C         -0.81400       -0.01780        1.13310
C         -3.32280        0.02610       -1.63190
C         -3.68920        1.47220       -1.93920
O         -3.65310        1.92990       -3.06150
N         -4.10520        2.21460       -0.85060
C         -4.40580        3.65000       -0.96470
C         -4.88510        4.09590        0.42580
O         -4.96150        3.43560        1.42850
O         -5.23320        5.40400        0.41820
C         -3.14740        4.45140       -1.31620
C         -5.53880        3.89830       -1.96380
H         -0.40160        0.01810       -2.12180
H         -4.24030       -0.08890        1.34560
H         -3.63200       -0.05130        3.75350
H         -1.28310       -0.00920        4.47340
H          0.57030        0.00010        2.80370
H         -4.19190       -0.50660       -1.18860
H         -3.12210       -0.49660       -2.59590
H         -4.01740        1.84200        0.09320
H         -5.54630        5.73120        1.29940
H         -2.77530        4.16010       -2.31200
H         -2.33290        4.27320       -0.60470
H         -3.35160        5.52880       -1.34180
H         -5.22060        3.63180       -2.98620
H         -5.83850        4.95340       -1.97540
H         -6.42320        3.29120       -1.73970
