35
rmsd22.gzmat
N          0.00000        0.00000        0.00000
H          0.99230        0.00000        0.00000
C         -0.81870        0.00000       -1.13150
C         -2.14950       -0.02050       -0.74190
C         -2.17590       -0.02860        0.69680
C         -3.19850       -0.04770        1.65170
C         -2.85490       -0.07810        2.99000
C         -1.50460       -0.08500        3.40440
C         -0.46820       -0.05430        2.49130
C         -0.81370       -0.02570        1.13330
C         -3.32590       -0.06900       -1.62730
C         -3.68200       -1.50150       -1.99970
O         -3.86980       -1.84400       -3.14880
N         -3.82760       -2.37460       -0.93880
C         -4.11200       -3.80190       -1.15420
C         -4.17810       -4.44290        0.24060
O         -3.92190       -3.93730        1.30120
O         -4.56670       -5.73670        0.15490
C         -5.46450       -3.99010       -1.84650
C         -2.97780       -4.48680       -1.92590
H         -0.40110        0.01010       -2.12170
H         -4.24010       -0.04010        1.33850
H         -3.63410       -0.10390        3.74960
H         -1.28680       -0.11810        4.47170
H          0.56900       -0.05740        2.80540
H         -3.14880        0.50230       -2.56840
H         -4.20890        0.41900       -1.15700
H         -3.54350       -2.09990        0.00070
H         -4.60710       -6.19360        1.03300
H         -5.44150       -3.55950       -2.86150
H         -6.27610       -3.49150       -1.30530
H         -5.72010       -5.05240       -1.94390
H         -2.90120       -4.06840       -2.94320
H         -3.15440       -5.56460       -2.02530
H         -2.00470       -4.34030       -1.44430
