35
rmsd23.gzmat
N          0.00000        0.00000        0.00000
H          0.99220        0.00000        0.00000
C         -0.81860        0.00000       -1.13130
C         -2.14960       -0.00340       -0.74180
C         -2.17670       -0.00400        0.69660
C         -3.19870       -0.01020        1.65240
C         -2.85480       -0.02360        2.99090
C         -1.50430       -0.02500        3.40510
C         -0.46810       -0.01590        2.49160
C         -0.81400       -0.00530        1.13320
C         -3.32440       -0.04190       -1.63030
C         -3.64490       -1.47600       -2.02800
O         -3.71080       -1.83030       -3.18640
N         -3.89540       -2.33660       -0.97620
C         -4.12740       -3.77220       -1.19840
C         -4.38630       -4.38390        0.18710
O         -4.30980       -3.84560        1.26010
O         -4.72190       -5.69070        0.07880
C         -5.36470       -3.99880       -2.07140
C         -2.88320       -4.44990       -1.78540
H         -0.40070       -0.00220       -2.12170
H         -4.24080       -0.00430        1.34060
H         -3.63370       -0.03940        3.75150
H         -1.28610       -0.03500        4.47270
H          0.56940       -0.01870        2.80580
H         -3.15100        0.54950       -2.55950
H         -4.21350        0.42510       -1.15260
H         -3.71510       -2.04550       -0.01620
H         -4.89810       -6.12400        0.95240
H         -5.19780       -3.60990       -3.09000
H         -6.24630       -3.48240       -1.67480
H         -5.60210       -5.06600       -2.16100
H         -2.65890       -4.03640       -2.78250
H         -3.03240       -5.53010       -1.90210
H         -1.99500       -4.29130       -1.16340
