35

N         -0.02020       -0.11870        0.63570
H          0.93170       -0.13290        0.97370
C         -0.39650       -0.20480       -0.69140
C         -1.77010       -0.18080       -0.79250
C         -2.27440       -0.08430        0.55780
C         -3.56950       -0.04870        1.10620
C         -3.71050        0.02340        2.48870
C         -2.58060        0.06070        3.33500
C         -1.28750        0.02410        2.81950
C         -1.14720       -0.05110        1.42760
C         -2.61000       -0.28110       -2.02670
C         -3.59410       -1.46150       -2.01490
O         -4.71040       -1.37010       -2.50610
N         -3.10500       -2.58740       -1.43450
C         -3.87530       -3.79870       -1.18440
C         -2.92670       -4.73110       -0.42910
O         -1.80370       -4.44670       -0.08580
O         -3.48350       -5.92360       -0.16850
C         -5.09420       -3.50430       -0.28390
C         -4.31010       -4.46170       -2.50510
H          0.35170       -0.27520       -1.47900
H         -4.44650       -0.07950        0.45530
H         -4.70930        0.05300        2.93030
H         -2.72350        0.11770        4.41670
H         -0.41620        0.04900        3.47820
H         -1.97150       -0.38110       -2.92020
H         -3.23210        0.61430       -2.17820
H         -2.20000       -2.54210       -0.97210
H         -2.82310       -6.44290        0.32140
H         -5.75500       -2.80220       -0.80860
H         -4.76760       -3.04230        0.66020
H         -5.64280       -4.42970       -0.06160
H         -4.94380       -3.75510       -3.05620
H         -4.86970       -5.38610       -2.30800
H         -3.43020       -4.70140       -3.12150
