rmsd121.gzmat
 OpenBabel08211713403D

 35 36  0  0  0  0  0  0  0  0999 V2000
    0.0000    0.0000    0.0000 N   0  0  0  0  0  0  0  0  0  0  0  0
    0.9925    0.0000    0.0000 H   0  0  0  0  0  0  0  0  0  0  0  0
   -0.8173    0.0000   -1.1332 C   0  0  0  0  0  0  0  0  0  0  0  0
   -2.1475    0.0499   -0.7453 C   0  0  0  0  0  0  0  0  0  0  0  0
   -2.1748    0.0770    0.6926 C   0  0  0  0  0  0  0  0  0  0  0  0
   -3.2022    0.1303    1.6405 C   0  0  0  0  0  0  0  0  0  0  0  0
   -2.8647    0.1615    2.9800 C   0  0  0  0  0  0  0  0  0  0  0  0
   -1.5156    0.1430    3.3992 C   0  0  0  0  0  0  0  0  0  0  0  0
   -0.4749    0.0902    2.4919 C   0  0  0  0  0  0  0  0  0  0  0  0
   -0.8140    0.0548    1.1315 C   0  0  0  0  0  0  0  0  0  0  0  0
   -3.3371    0.1265   -1.6118 C   0  0  0  0  0  0  0  0  0  0  0  0
   -4.0505    1.4592   -1.4265 C   0  0  0  0  0  0  0  0  0  0  0  0
   -5.2513    1.5407   -1.2772 O   0  0  0  0  0  0  0  0  0  0  0  0
   -3.2325    2.5735   -1.4793 N   0  0  0  0  0  0  0  0  0  0  0  0
   -3.7428    3.9180   -1.1686 C   0  0  0  0  0  0  0  0  0  0  0  0
   -2.5492    4.8730   -1.3274 C   0  0  0  0  0  0  0  0  0  0  0  0
   -1.3952    4.5874   -1.5139 O   0  0  0  0  0  0  0  0  0  0  0  0
   -2.9428    6.1614   -1.2078 O   0  0  0  0  0  0  0  0  0  0  0  0
   -4.8402    4.3303   -2.1515 C   0  0  0  0  0  0  0  0  0  0  0  0
   -4.2156    4.0062    0.2877 C   0  0  0  0  0  0  0  0  0  0  0  0
   -0.3953   -0.0389   -2.1207 H   0  0  0  0  0  0  0  0  0  0  0  0
   -4.2411    0.1492    1.3135 H   0  0  0  0  0  0  0  0  0  0  0  0
   -3.6458    0.2004    3.7365 H   0  0  0  0  0  0  0  0  0  0  0  0
   -1.3012    0.1701    4.4670 H   0  0  0  0  0  0  0  0  0  0  0  0
    0.5604    0.0762    2.8118 H   0  0  0  0  0  0  0  0  0  0  0  0
   -4.0553   -0.6928   -1.3665 H   0  0  0  0  0  0  0  0  0  0  0  0
   -3.0901   -0.0137   -2.6853 H   0  0  0  0  0  0  0  0  0  0  0  0
   -2.2212    2.4595   -1.4718 H   0  0  0  0  0  0  0  0  0  0  0  0
   -2.1982    6.8095   -1.2934 H   0  0  0  0  0  0  0  0  0  0  0  0
   -5.7303    3.6898   -2.0310 H   0  0  0  0  0  0  0  0  0  0  0  0
   -4.5150    4.2291   -3.1931 H   0  0  0  0  0  0  0  0  0  0  0  0
   -5.1555    5.3682   -1.9879 H   0  0  0  0  0  0  0  0  0  0  0  0
   -5.0800    3.3414    0.4487 H   0  0  0  0  0  0  0  0  0  0  0  0
   -4.5275    5.0246    0.5480 H   0  0  0  0  0  0  0  0  0  0  0  0
   -3.4367    3.6941    0.9935 H   0  0  0  0  0  0  0  0  0  0  0  0
  1  2  1  0  0  0  0
  1 10  1  0  0  0  0
  3  4  2  0  0  0  0
  3  1  1  0  0  0  0
  4  5  1  0  0  0  0
  5 10  2  0  0  0  0
  5  6  1  0  0  0  0
  6  7  2  0  0  0  0
  7  8  1  0  0  0  0
  7 23  1  0  0  0  0
  8 24  1  0  0  0  0
  9 25  1  0  0  0  0
  9  8  2  0  0  0  0
 10  9  1  0  0  0  0
 11 12  1  0  0  0  0
 11 26  1  0  0  0  0
 11  4  1  0  0  0  0
 12 13  2  0  0  0  0
 14 28  1  0  0  0  0
 14 12  1  0  0  0  0
 14 15  1  0  0  0  0
 15 20  1  0  0  0  0
 16 18  1  0  0  0  0
 16 15  1  0  0  0  0
 17 16  2  0  0  0  0
 19 30  1  0  0  0  0
 19 32  1  0  0  0  0
 19 15  1  0  0  0  0
 20 33  1  0  0  0  0
 20 34  1  0  0  0  0
 20 35  1  0  0  0  0
 21  3  1  0  0  0  0
 22  6  1  0  0  0  0
 27 11  1  0  0  0  0
 29 18  1  0  0  0  0
 31 19  1  0  0  0  0
M  END
$$$$
