35
rmsd214.gzmat
N          0.00000        0.00000        0.00000
H          0.99200        0.00000        0.00000
C         -0.81690        0.00000       -1.13430
C         -2.14750       -0.02420       -0.74700
C         -2.17650       -0.03510        0.69120
C         -3.20570       -0.04270        1.63870
C         -2.86910       -0.05680        2.97870
C         -1.52030       -0.06060        3.39850
C         -0.47770       -0.04390        2.49170
C         -0.81560       -0.02720        1.13130
C         -3.33700       -0.04590       -1.61730
C         -4.16230        1.20770       -1.36960
O         -5.18140        1.20370       -0.71270
N         -3.67720        2.35270       -1.97460
C         -4.30110        3.66560       -1.74130
C         -3.52760        4.66390       -2.61720
O         -2.50400        4.47290       -3.22090
O         -4.13940        5.86930       -2.63500
C         -5.76840        3.66190       -2.17460
C         -4.13720        4.10110       -0.28060
H         -0.39250        0.01780       -2.12040
H         -4.24620       -0.02780        1.30840
H         -3.65130       -0.06450        3.73490
H         -1.30740       -0.07730        4.46680
H          0.55730       -0.04430        2.81190
H         -3.97170       -0.93500       -1.38130
H         -3.07390       -0.14960       -2.68960
H         -2.76220        2.35690       -2.41320
H         -3.66540        6.54360       -3.18520
H         -6.36300        2.98950       -1.53290
H         -5.89100        3.30800       -3.20410
H         -6.21180        4.66280       -2.10160
H         -4.69050        3.41710        0.38470
H         -4.52860        5.11180       -0.11460
H         -3.09000        4.07930        0.04250
