rmsd144.gzmat
 OpenBabel08211713403D

 35 36  0  0  0  0  0  0  0  0999 V2000
    0.0000    0.0000    0.0000 N   0  0  0  0  0  0  0  0  0  0  0  0
    0.9925    0.0000    0.0000 H   0  0  0  0  0  0  0  0  0  0  0  0
   -0.8179    0.0000   -1.1324 C   0  0  0  0  0  0  0  0  0  0  0  0
   -2.1481    0.0586   -0.7444 C   0  0  0  0  0  0  0  0  0  0  0  0
   -2.1744    0.0988    0.6932 C   0  0  0  0  0  0  0  0  0  0  0  0
   -3.1994    0.1700    1.6427 C   0  0  0  0  0  0  0  0  0  0  0  0
   -2.8591    0.2099    2.9814 C   0  0  0  0  0  0  0  0  0  0  0  0
   -1.5098    0.1729    3.3990 C   0  0  0  0  0  0  0  0  0  0  0  0
   -0.4715    0.1012    2.4904 C   0  0  0  0  0  0  0  0  0  0  0  0
   -0.8130    0.0666    1.1315 C   0  0  0  0  0  0  0  0  0  0  0  0
   -3.3341    0.1056   -1.6174 C   0  0  0  0  0  0  0  0  0  0  0  0
   -4.0896    1.4191   -1.4727 C   0  0  0  0  0  0  0  0  0  0  0  0
   -5.3014    1.4690   -1.4326 O   0  0  0  0  0  0  0  0  0  0  0  0
   -3.3043    2.5555   -1.4398 N   0  0  0  0  0  0  0  0  0  0  0  0
   -3.8868    3.8874   -1.2141 C   0  0  0  0  0  0  0  0  0  0  0  0
   -2.7072    4.8722   -1.2007 C   0  0  0  0  0  0  0  0  0  0  0  0
   -1.5331    4.6189   -1.2715 O   0  0  0  0  0  0  0  0  0  0  0  0
   -3.1455    6.1466   -1.0806 O   0  0  0  0  0  0  0  0  0  0  0  0
   -4.8307    4.2698   -2.3572 C   0  0  0  0  0  0  0  0  0  0  0  0
   -4.5842    3.9710    0.1484 C   0  0  0  0  0  0  0  0  0  0  0  0
   -0.3971   -0.0450   -2.1199 H   0  0  0  0  0  0  0  0  0  0  0  0
   -4.2385    0.1940    1.3176 H   0  0  0  0  0  0  0  0  0  0  0  0
   -3.6377    0.2703    3.7391 H   0  0  0  0  0  0  0  0  0  0  0  0
   -1.2933    0.2005    4.4664 H   0  0  0  0  0  0  0  0  0  0  0  0
    0.5642    0.0722    2.8084 H   0  0  0  0  0  0  0  0  0  0  0  0
   -4.0356   -0.7281   -1.3691 H   0  0  0  0  0  0  0  0  0  0  0  0
   -3.0742   -0.0460   -2.6875 H   0  0  0  0  0  0  0  0  0  0  0  0
   -2.2937    2.4758   -1.3538 H   0  0  0  0  0  0  0  0  0  0  0  0
   -2.4139    6.8143   -1.0554 H   0  0  0  0  0  0  0  0  0  0  0  0
   -5.7138    3.6088   -2.3646 H   0  0  0  0  0  0  0  0  0  0  0  0
   -4.3502    4.1713   -3.3369 H   0  0  0  0  0  0  0  0  0  0  0  0
   -5.1905    5.3007   -2.2527 H   0  0  0  0  0  0  0  0  0  0  0  0
   -5.4507    3.2895    0.1779 H   0  0  0  0  0  0  0  0  0  0  0  0
   -4.9561    4.9839    0.3458 H   0  0  0  0  0  0  0  0  0  0  0  0
   -3.9199    3.6824    0.9711 H   0  0  0  0  0  0  0  0  0  0  0  0
  1  2  1  0  0  0  0
  1 10  1  0  0  0  0
  3  4  2  0  0  0  0
  3  1  1  0  0  0  0
  4  5  1  0  0  0  0
  5 10  2  0  0  0  0
  5  6  1  0  0  0  0
  6  7  2  0  0  0  0
  7  8  1  0  0  0  0
  7 23  1  0  0  0  0
  8 24  1  0  0  0  0
  9 25  1  0  0  0  0
  9  8  2  0  0  0  0
 10  9  1  0  0  0  0
 11 12  1  0  0  0  0
 11 26  1  0  0  0  0
 11  4  1  0  0  0  0
 12 14  1  0  0  0  0
 12 13  2  0  0  0  0
 14 28  1  0  0  0  0
 14 15  1  0  0  0  0
 15 16  1  0  0  0  0
 15 20  1  0  0  0  0
 16 18  1  0  0  0  0
 17 16  2  0  0  0  0
 18 29  1  0  0  0  0
 19 32  1  0  0  0  0
 19 15  1  0  0  0  0
 20 33  1  0  0  0  0
 20 34  1  0  0  0  0
 20 35  1  0  0  0  0
 21  3  1  0  0  0  0
 22  6  1  0  0  0  0
 27 11  1  0  0  0  0
 30 19  1  0  0  0  0
 31 19  1  0  0  0  0
M  END
$$$$
