35

N         -0.05030       -0.73790       -0.16120
H          0.89750       -1.08340       -0.21550
C         -0.95000       -0.70820       -1.20820
C         -2.14970       -0.18590       -0.78240
C         -1.98080        0.14170        0.61590
C         -2.81130        0.70580        1.60460
C         -2.30980        0.88310        2.89050
C         -0.98890        0.50910        3.21790
C         -0.14240       -0.04900        2.26410
C         -0.64760       -0.22560        0.96980
C         -3.36140        0.06430       -1.63160
C         -3.53610        1.56820       -1.86730
O         -2.84910        2.18020       -2.66970
N         -4.46990        2.15000       -1.06580
C         -4.65410        3.58720       -0.90280
C         -5.68070        3.73030        0.22150
O         -6.13060        2.81000        0.86560
O         -6.02820        5.00470        0.44160
C         -3.34280        4.26300       -0.44600
C         -5.18870        4.23070       -2.19550
H         -0.66820       -1.05790       -2.19940
H         -3.83120        1.01570        1.37340
H         -2.94860        1.32040        3.66140
H         -0.62370        0.66140        4.23630
H          0.88100       -0.33690        2.51650
H         -4.26350       -0.36480       -1.16340
H         -3.23190       -0.40580       -2.61640
H         -5.00630        1.57800       -0.42200
H         -6.66230        5.00420        1.17910
H         -2.58250        4.11350       -1.22310
H         -2.98300        3.80710        0.48870
H         -3.50080        5.33840       -0.28640
H         -4.45340        4.06360       -2.99320
H         -5.34530        5.30900       -2.05610
H         -6.14180        3.76690       -2.49170
