35
rmsd145.gzmat
N          0.00000        0.00000        0.00000
H          0.99250        0.00000        0.00000
C         -0.81830        0.00000       -1.13300
C         -2.14820       -0.04420       -0.74410
C         -2.17450       -0.07180        0.69390
C         -3.20210       -0.12600        1.64170
C         -2.86420       -0.16210        2.98100
C         -1.51490       -0.14290        3.39950
C         -0.47440       -0.08670        2.49200
C         -0.81350       -0.05140        1.13210
C         -3.34070       -0.11230       -1.60780
C         -4.06680       -1.43220       -1.38270
O         -5.24360       -1.49280       -1.09730
N         -3.28450       -2.55950       -1.55670
C         -3.78170       -3.90510       -1.22940
C         -2.64100       -4.87290       -1.58320
O         -1.52810       -4.59810       -1.94960
O         -3.03040       -6.15850       -1.42340
C         -4.07010       -4.03880        0.27050
C         -5.00520       -4.26250       -2.07650
H         -0.39620        0.03230       -2.12040
H         -4.24130       -0.14230        1.31360
H         -3.64550       -0.20590        3.73720
H         -1.29980       -0.17240        4.46720
H          0.56090       -0.07030        2.81160
H         -3.09400        0.00620       -2.68360
H         -4.04510        0.72200       -1.37380
H         -2.27750       -2.46360       -1.66540
H         -2.32230       -6.81510       -1.64600
H         -4.88990       -3.36250        0.56260
H         -3.20190       -3.77310        0.88450
H         -4.37580       -5.05930        0.53160
H         -5.85650       -3.60720       -1.82360
H         -5.32270       -5.29850       -1.90490
H         -4.81440       -4.13400       -3.14790
