35
rmsd90.gzmat
N          0.00000        0.00000        0.00000
H          0.99210        0.00000        0.00000
C         -0.81990        0.00000       -1.13020
C         -2.15050        0.00370       -0.73930
C         -2.17640        0.00390        0.69900
C         -3.19630        0.00820        1.65680
C         -2.85020        0.03650        2.99460
C         -1.49930        0.04920        3.40650
C         -0.46470        0.03010        2.49130
C         -0.81280        0.00950        1.13370
C         -3.32450        0.03480       -1.62900
C         -3.71030        1.47180       -1.95170
O         -3.70670        1.90870       -3.08340
N         -4.11190        2.23000       -0.86830
C         -4.45750        3.65260       -1.01110
C         -4.87110        4.13660        0.38740
O         -4.88780        3.50880        1.41340
O         -5.23830        5.43870        0.35480
C         -3.24660        4.47540       -1.46360
C         -5.65290        3.83200       -1.95150
H         -0.40340        0.00210       -2.12110
H         -4.23960       -0.01260        1.34880
H         -3.62800        0.05370        3.75600
H         -1.27880        0.07550        4.47310
H          0.57320        0.03330        2.80340
H         -4.18930       -0.50100       -1.18050
H         -3.12040       -0.49620       -2.58800
H         -3.98870        1.88320        0.08100
H         -5.50910        5.79250        1.23910
H         -2.91430        4.14770       -2.46290
H         -2.39230        4.35920       -0.78700
H         -3.48890        5.54330       -1.52960
H         -5.38720        3.52410       -2.97730
H         -5.97570        4.87940       -1.99440
H         -6.50960        3.21970       -1.64800
