
     RDKit          3D

 35 36  0  0  0  0  0  0  0  0999 V2000
   -0.0202   -0.1187    0.6357 N   0  0  0  0  0  0  0  0  0  0  0  0
    0.9317   -0.1329    0.9737 H   0  0  0  0  0  0  0  0  0  0  0  0
   -0.3965   -0.2048   -0.6914 C   0  0  0  0  0  0  0  0  0  0  0  0
   -1.7701   -0.1808   -0.7925 C   0  0  0  0  0  0  0  0  0  0  0  0
   -2.2744   -0.0843    0.5578 C   0  0  0  0  0  0  0  0  0  0  0  0
   -3.5695   -0.0487    1.1062 C   0  0  0  0  0  0  0  0  0  0  0  0
   -3.7105    0.0234    2.4887 C   0  0  0  0  0  0  0  0  0  0  0  0
   -2.5806    0.0607    3.3350 C   0  0  0  0  0  0  0  0  0  0  0  0
   -1.2875    0.0241    2.8195 C   0  0  0  0  0  0  0  0  0  0  0  0
   -1.1472   -0.0511    1.4276 C   0  0  0  0  0  0  0  0  0  0  0  0
   -2.6100   -0.2811   -2.0267 C   0  0  0  0  0  0  0  0  0  0  0  0
   -3.5941   -1.4615   -2.0149 C   0  0  0  0  0  0  0  0  0  0  0  0
   -4.7104   -1.3701   -2.5061 O   0  0  0  0  0  0  0  0  0  0  0  0
   -3.1050   -2.5874   -1.4345 N   0  0  0  0  0  0  0  0  0  0  0  0
   -3.8753   -3.7987   -1.1844 C   0  0  0  0  0  0  0  0  0  0  0  0
   -2.9267   -4.7311   -0.4291 C   0  0  0  0  0  0  0  0  0  0  0  0
   -1.8037   -4.4467   -0.0858 O   0  0  0  0  0  0  0  0  0  0  0  0
   -3.4835   -5.9236   -0.1685 O   0  0  0  0  0  0  0  0  0  0  0  0
   -5.0942   -3.5043   -0.2839 C   0  0  0  0  0  0  0  0  0  0  0  0
   -4.3101   -4.4617   -2.5051 C   0  0  0  0  0  0  0  0  0  0  0  0
    0.3517   -0.2752   -1.4790 H   0  0  0  0  0  0  0  0  0  0  0  0
   -4.4465   -0.0795    0.4553 H   0  0  0  0  0  0  0  0  0  0  0  0
   -4.7093    0.0530    2.9303 H   0  0  0  0  0  0  0  0  0  0  0  0
   -2.7235    0.1177    4.4167 H   0  0  0  0  0  0  0  0  0  0  0  0
   -0.4162    0.0490    3.4782 H   0  0  0  0  0  0  0  0  0  0  0  0
   -1.9715   -0.3811   -2.9202 H   0  0  0  0  0  0  0  0  0  0  0  0
   -3.2321    0.6143   -2.1782 H   0  0  0  0  0  0  0  0  0  0  0  0
   -2.2000   -2.5421   -0.9721 H   0  0  0  0  0  0  0  0  0  0  0  0
   -2.8231   -6.4429    0.3214 H   0  0  0  0  0  0  0  0  0  0  0  0
   -5.7550   -2.8022   -0.8086 H   0  0  0  0  0  0  0  0  0  0  0  0
   -4.7676   -3.0423    0.6602 H   0  0  0  0  0  0  0  0  0  0  0  0
   -5.6428   -4.4297   -0.0616 H   0  0  0  0  0  0  0  0  0  0  0  0
   -4.9438   -3.7551   -3.0562 H   0  0  0  0  0  0  0  0  0  0  0  0
   -4.8697   -5.3861   -2.3080 H   0  0  0  0  0  0  0  0  0  0  0  0
   -3.4302   -4.7014   -3.1215 H   0  0  0  0  0  0  0  0  0  0  0  0
  1  2  1  0
  1  3  1  0
  1 10  1  0
  3  4  2  0
  3 21  1  0
  4  5  1  0
  4 11  1  0
  5  6  1  0
  5 10  2  0
  6  7  2  0
  6 22  1  0
  7  8  1  0
  7 23  1  0
  8  9  2  0
  8 24  1  0
  9 10  1  0
  9 25  1  0
 11 12  1  0
 11 26  1  0
 11 27  1  0
 12 13  2  0
 12 14  1  0
 14 15  1  0
 14 28  1  0
 15 16  1  0
 15 19  1  0
 15 20  1  0
 16 17  2  0
 16 18  1  0
 18 29  1  0
 19 30  1  0
 19 31  1  0
 19 32  1  0
 20 33  1  0
 20 34  1  0
 20 35  1  0
M  END

