rmsd214.gzmat
 OpenBabel08211713403D

 35 36  0  0  0  0  0  0  0  0999 V2000
    0.0000    0.0000    0.0000 N   0  0  0  0  0  0  0  0  0  0  0  0
    0.9920    0.0000    0.0000 H   0  0  0  0  0  0  0  0  0  0  0  0
   -0.8169    0.0000   -1.1343 C   0  0  0  0  0  0  0  0  0  0  0  0
   -2.1475   -0.0242   -0.7470 C   0  0  0  0  0  0  0  0  0  0  0  0
   -2.1765   -0.0351    0.6912 C   0  0  0  0  0  0  0  0  0  0  0  0
   -3.2057   -0.0427    1.6387 C   0  0  0  0  0  0  0  0  0  0  0  0
   -2.8691   -0.0568    2.9787 C   0  0  0  0  0  0  0  0  0  0  0  0
   -1.5203   -0.0606    3.3985 C   0  0  0  0  0  0  0  0  0  0  0  0
   -0.4777   -0.0439    2.4917 C   0  0  0  0  0  0  0  0  0  0  0  0
   -0.8156   -0.0272    1.1313 C   0  0  0  0  0  0  0  0  0  0  0  0
   -3.3370   -0.0459   -1.6173 C   0  0  0  0  0  0  0  0  0  0  0  0
   -4.1623    1.2077   -1.3696 C   0  0  0  0  0  0  0  0  0  0  0  0
   -5.1814    1.2037   -0.7127 O   0  0  0  0  0  0  0  0  0  0  0  0
   -3.6772    2.3527   -1.9746 N   0  0  0  0  0  0  0  0  0  0  0  0
   -4.3011    3.6656   -1.7413 C   0  0  0  0  0  0  0  0  0  0  0  0
   -3.5276    4.6639   -2.6172 C   0  0  0  0  0  0  0  0  0  0  0  0
   -2.5040    4.4729   -3.2209 O   0  0  0  0  0  0  0  0  0  0  0  0
   -4.1394    5.8693   -2.6350 O   0  0  0  0  0  0  0  0  0  0  0  0
   -5.7684    3.6619   -2.1746 C   0  0  0  0  0  0  0  0  0  0  0  0
   -4.1372    4.1011   -0.2806 C   0  0  0  0  0  0  0  0  0  0  0  0
   -0.3925    0.0178   -2.1204 H   0  0  0  0  0  0  0  0  0  0  0  0
   -4.2462   -0.0278    1.3084 H   0  0  0  0  0  0  0  0  0  0  0  0
   -3.6513   -0.0645    3.7349 H   0  0  0  0  0  0  0  0  0  0  0  0
   -1.3074   -0.0773    4.4668 H   0  0  0  0  0  0  0  0  0  0  0  0
    0.5573   -0.0443    2.8119 H   0  0  0  0  0  0  0  0  0  0  0  0
   -3.9717   -0.9350   -1.3813 H   0  0  0  0  0  0  0  0  0  0  0  0
   -3.0739   -0.1496   -2.6896 H   0  0  0  0  0  0  0  0  0  0  0  0
   -2.7622    2.3569   -2.4132 H   0  0  0  0  0  0  0  0  0  0  0  0
   -3.6654    6.5436   -3.1852 H   0  0  0  0  0  0  0  0  0  0  0  0
   -6.3630    2.9895   -1.5329 H   0  0  0  0  0  0  0  0  0  0  0  0
   -5.8910    3.3080   -3.2041 H   0  0  0  0  0  0  0  0  0  0  0  0
   -6.2118    4.6628   -2.1016 H   0  0  0  0  0  0  0  0  0  0  0  0
   -4.6905    3.4171    0.3847 H   0  0  0  0  0  0  0  0  0  0  0  0
   -4.5286    5.1118   -0.1146 H   0  0  0  0  0  0  0  0  0  0  0  0
   -3.0900    4.0793    0.0425 H   0  0  0  0  0  0  0  0  0  0  0  0
  1  2  1  0  0  0  0
  1 10  1  0  0  0  0
  3  4  2  0  0  0  0
  3  1  1  0  0  0  0
  4  5  1  0  0  0  0
  5 10  2  0  0  0  0
  5  6  1  0  0  0  0
  6  7  2  0  0  0  0
  7  8  1  0  0  0  0
  7 23  1  0  0  0  0
  8 24  1  0  0  0  0
  9 25  1  0  0  0  0
  9  8  2  0  0  0  0
 10  9  1  0  0  0  0
 11 26  1  0  0  0  0
 11 12  1  0  0  0  0
 11  4  1  0  0  0  0
 12 13  2  0  0  0  0
 14 15  1  0  0  0  0
 14 12  1  0  0  0  0
 15 20  1  0  0  0  0
 16 15  1  0  0  0  0
 17 16  2  0  0  0  0
 18 16  1  0  0  0  0
 19 32  1  0  0  0  0
 19 15  1  0  0  0  0
 19 30  1  0  0  0  0
 20 34  1  0  0  0  0
 20 35  1  0  0  0  0
 20 33  1  0  0  0  0
 21  3  1  0  0  0  0
 22  6  1  0  0  0  0
 27 11  1  0  0  0  0
 28 14  1  0  0  0  0
 29 18  1  0  0  0  0
 31 19  1  0  0  0  0
M  END
$$$$
