26
rmsd119.gzmat
Br         0.00000        0.00000        0.00000
C          1.89840        0.00000        0.00000
C          2.56780        0.00000        1.21870
C          3.96180       -0.00640        1.21570
C          4.65060       -0.02130        0.00270
C          3.96540       -0.00380       -1.21140
C          2.57100        0.00490       -1.21690
C          6.13980       -0.00400        0.03650
O          6.78630        0.83170        0.62600
N          6.74400       -1.07020       -0.62000
C          8.16640       -1.12350       -0.79860
C          8.54920       -0.78840       -2.20710
O          7.81660       -0.65790       -3.15170
O          9.89350       -0.66580       -2.33630
C          9.11370       -0.76590        0.34040
C          8.97110       -2.20190       -0.06830
H          2.02700        0.01020        2.16530
H          4.51350        0.00990        2.15800
H          4.51160        0.01830       -2.15700
H          2.03310        0.01960       -2.16540
H          6.20110       -1.71500       -1.18120
H         10.18000       -0.43140       -3.25550
H          8.69380       -0.41280        1.28490
H         10.02620       -0.21450        0.11000
H          9.78250       -2.70240       -0.59380
H          8.44650       -2.90180        0.57850
