rmsd118.gzmat
 OpenBabel08211713403D

 26 27  0  0  0  0  0  0  0  0999 V2000
    0.0000    0.0000    0.0000 Br  0  0  0  0  0  0  0  0  0  0  0  0
    1.8985    0.0000    0.0000 C   0  0  0  0  0  0  0  0  0  0  0  0
    2.5709    0.0000    1.2170 C   0  0  0  0  0  0  0  0  0  0  0  0
    3.9652    0.0000    1.2114 C   0  0  0  0  0  0  0  0  0  0  0  0
    4.6498   -0.0027   -0.0031 C   0  0  0  0  0  0  0  0  0  0  0  0
    3.9622    0.0076   -1.2160 C   0  0  0  0  0  0  0  0  0  0  0  0
    2.5681    0.0047   -1.2184 C   0  0  0  0  0  0  0  0  0  0  0  0
    6.1388    0.0360   -0.0261 C   0  0  0  0  0  0  0  0  0  0  0  0
    6.7794    0.9371   -0.5172 O   0  0  0  0  0  0  0  0  0  0  0  0
    6.7507   -1.0861    0.5213 N   0  0  0  0  0  0  0  0  0  0  0  0
    8.1725   -1.1361    0.7088 C   0  0  0  0  0  0  0  0  0  0  0  0
    8.5326   -0.9415    2.1495 C   0  0  0  0  0  0  0  0  0  0  0  0
    7.7880   -0.9593    3.0939 O   0  0  0  0  0  0  0  0  0  0  0  0
    9.8662   -0.7549    2.3076 O   0  0  0  0  0  0  0  0  0  0  0  0
    8.9999   -2.1228   -0.1188 C   0  0  0  0  0  0  0  0  0  0  0  0
    9.1233   -0.6505   -0.3786 C   0  0  0  0  0  0  0  0  0  0  0  0
    2.0330    0.0028    2.1658 H   0  0  0  0  0  0  0  0  0  0  0  0
    4.5144    0.0140    2.1557 H   0  0  0  0  0  0  0  0  0  0  0  0
    4.5128    0.0267   -2.1585 H   0  0  0  0  0  0  0  0  0  0  0  0
    2.0281    0.0117   -2.1655 H   0  0  0  0  0  0  0  0  0  0  0  0
    6.2119   -1.7893    1.0126 H   0  0  0  0  0  0  0  0  0  0  0  0
   10.1309   -0.6109    3.2522 H   0  0  0  0  0  0  0  0  0  0  0  0
    8.4880   -2.7618   -0.8361 H   0  0  0  0  0  0  0  0  0  0  0  0
    9.8165   -2.6618    0.3578 H   0  0  0  0  0  0  0  0  0  0  0  0
   10.0250   -0.1114   -0.0849 H   0  0  0  0  0  0  0  0  0  0  0  0
    8.7072   -0.2085   -1.2867 H   0  0  0  0  0  0  0  0  0  0  0  0
  1  2  1  0  0  0  0
  2  3  2  0  0  0  0
  3 17  1  0  0  0  0
  4  3  1  0  0  0  0
  4 18  1  0  0  0  0
  5  4  2  0  0  0  0
  6  5  1  0  0  0  0
  7  6  2  0  0  0  0
  7  2  1  0  0  0  0
  8  5  1  0  0  0  0
  8 10  1  0  0  0  0
  9  8  2  0  0  0  0
 10 11  1  0  0  0  0
 10 21  1  0  0  0  0
 11 12  1  0  0  0  0
 12 14  1  0  0  0  0
 12 13  2  0  0  0  0
 14 22  1  0  0  0  0
 15 24  1  0  0  0  0
 15 11  1  0  0  0  0
 16 15  1  0  0  0  0
 16 25  1  0  0  0  0
 16 11  1  0  0  0  0
 19  6  1  0  0  0  0
 20  7  1  0  0  0  0
 23 15  1  0  0  0  0
 26 16  1  0  0  0  0
M  END
$$$$
