26
rmsd124.gzmat
Br         0.00000        0.00000        0.00000
C          1.89830        0.00000        0.00000
C          2.57060        0.00000        1.21690
C          3.96470        0.00210        1.21130
C          4.64920        0.00760       -0.00340
C          3.96230        0.01530       -1.21600
C          2.56810        0.00570       -1.21830
C          6.13840        0.05710       -0.01090
O          6.77950        1.01540       -0.37510
N          6.74760       -1.12250        0.40260
C          8.16280       -1.18450        0.63210
C          8.47010       -1.17300        2.09780
O          7.69210       -1.30170        3.00590
O          9.79750       -1.01940        2.32520
C          9.03480       -2.04710       -0.28370
C          9.14350       -0.55240       -0.34810
H          2.03380        0.00110        2.16620
H          4.51410        0.00860        2.15570
H          4.51130        0.03670       -2.15890
H          2.02780        0.00780       -2.16520
H          6.20050       -1.88290        0.78910
H         10.02870       -0.99480        3.28900
H          8.56160       -2.59390       -1.09690
H          9.84090       -2.63410        0.15260
H         10.02580       -0.04510        0.04430
H          8.74930       -0.00320       -1.20650
