rmsd17.gzmat
 OpenBabel08211713403D

 26 27  0  0  0  0  0  0  0  0999 V2000
    0.0000    0.0000    0.0000 Br  0  0  0  0  0  0  0  0  0  0  0  0
    1.8988    0.0000    0.0000 C   0  0  0  0  0  0  0  0  0  0  0  0
    2.5721    0.0000    1.2166 C   0  0  0  0  0  0  0  0  0  0  0  0
    3.9663   -0.0073    1.2103 C   0  0  0  0  0  0  0  0  0  0  0  0
    4.6504   -0.0152   -0.0044 C   0  0  0  0  0  0  0  0  0  0  0  0
    3.9617    0.0035   -1.2168 C   0  0  0  0  0  0  0  0  0  0  0  0
    2.5677    0.0057   -1.2187 C   0  0  0  0  0  0  0  0  0  0  0  0
    6.1390    0.0050   -0.0366 C   0  0  0  0  0  0  0  0  0  0  0  0
    6.7867    0.8432   -0.6204 O   0  0  0  0  0  0  0  0  0  0  0  0
    6.7454   -1.0640    0.6146 N   0  0  0  0  0  0  0  0  0  0  0  0
    8.1690   -1.1075    0.7864 C   0  0  0  0  0  0  0  0  0  0  0  0
    8.5669   -0.6847    2.1664 C   0  0  0  0  0  0  0  0  0  0  0  0
    7.8446   -0.4717    3.1036 O   0  0  0  0  0  0  0  0  0  0  0  0
    9.9146   -0.5808    2.2789 O   0  0  0  0  0  0  0  0  0  0  0  0
    8.9644   -2.2239    0.1061 C   0  0  0  0  0  0  0  0  0  0  0  0
    9.0975   -0.8133   -0.3861 C   0  0  0  0  0  0  0  0  0  0  0  0
    2.0351    0.0092    2.1658 H   0  0  0  0  0  0  0  0  0  0  0  0
    4.5152    0.0078    2.1550 H   0  0  0  0  0  0  0  0  0  0  0  0
    4.5122    0.0259   -2.1599 H   0  0  0  0  0  0  0  0  0  0  0  0
    2.0274    0.0173   -2.1652 H   0  0  0  0  0  0  0  0  0  0  0  0
    6.2069   -1.7145    1.1714 H   0  0  0  0  0  0  0  0  0  0  0  0
   10.2110   -0.2844    3.1771 H   0  0  0  0  0  0  0  0  0  0  0  0
    8.4303   -2.9614   -0.4894 H   0  0  0  0  0  0  0  0  0  0  0  0
    9.7869   -2.6923    0.6442 H   0  0  0  0  0  0  0  0  0  0  0  0
   10.0136   -0.2505   -0.2036 H   0  0  0  0  0  0  0  0  0  0  0  0
    8.6588   -0.5121   -1.3396 H   0  0  0  0  0  0  0  0  0  0  0  0
  1  2  1  0  0  0  0
  2  3  2  0  0  0  0
  3 17  1  0  0  0  0
  4  3  1  0  0  0  0
  4 18  1  0  0  0  0
  5  4  2  0  0  0  0
  6  5  1  0  0  0  0
  7  6  2  0  0  0  0
  7  2  1  0  0  0  0
  8  5  1  0  0  0  0
  8 10  1  0  0  0  0
  9  8  2  0  0  0  0
 10 11  1  0  0  0  0
 10 21  1  0  0  0  0
 11 12  1  0  0  0  0
 12 14  1  0  0  0  0
 12 13  2  0  0  0  0
 14 22  1  0  0  0  0
 15 24  1  0  0  0  0
 15 11  1  0  0  0  0
 16 25  1  0  0  0  0
 16 15  1  0  0  0  0
 16 11  1  0  0  0  0
 19  6  1  0  0  0  0
 20  7  1  0  0  0  0
 23 15  1  0  0  0  0
 26 16  1  0  0  0  0
M  END
$$$$
