rmsd157.gzmat
 OpenBabel08211713403D

 26 27  0  0  0  0  0  0  0  0999 V2000
    0.0000    0.0000    0.0000 Br  0  0  0  0  0  0  0  0  0  0  0  0
    1.8984    0.0000    0.0000 C   0  0  0  0  0  0  0  0  0  0  0  0
    2.5712    0.0000    1.2167 C   0  0  0  0  0  0  0  0  0  0  0  0
    3.9654   -0.0047    1.2106 C   0  0  0  0  0  0  0  0  0  0  0  0
    4.6503   -0.0173   -0.0039 C   0  0  0  0  0  0  0  0  0  0  0  0
    3.9618   -0.0009   -1.2166 C   0  0  0  0  0  0  0  0  0  0  0  0
    2.5678    0.0047   -1.2186 C   0  0  0  0  0  0  0  0  0  0  0  0
    6.1390    0.0031    0.0184 C   0  0  0  0  0  0  0  0  0  0  0  0
    6.7904    0.8166    0.6325 O   0  0  0  0  0  0  0  0  0  0  0  0
    6.7404   -1.0312   -0.6918 N   0  0  0  0  0  0  0  0  0  0  0  0
    8.1558   -1.0368   -0.9274 C   0  0  0  0  0  0  0  0  0  0  0  0
    8.4695   -0.5778   -2.3180 C   0  0  0  0  0  0  0  0  0  0  0  0
    7.6924   -0.4097   -3.2202 O   0  0  0  0  0  0  0  0  0  0  0  0
    9.7988   -0.3755   -2.4874 O   0  0  0  0  0  0  0  0  0  0  0  0
    9.1347   -0.7447    0.2033 C   0  0  0  0  0  0  0  0  0  0  0  0
    9.0104   -2.1475   -0.3136 C   0  0  0  0  0  0  0  0  0  0  0  0
    2.0345    0.0084    2.1656 H   0  0  0  0  0  0  0  0  0  0  0  0
    4.5205    0.0108    2.1512 H   0  0  0  0  0  0  0  0  0  0  0  0
    4.5069    0.0226   -2.1632 H   0  0  0  0  0  0  0  0  0  0  0  0
    2.0280    0.0153   -2.1662 H   0  0  0  0  0  0  0  0  0  0  0  0
    6.1917   -1.6586   -1.2669 H   0  0  0  0  0  0  0  0  0  0  0  0
   10.0311   -0.0487   -3.3943 H   0  0  0  0  0  0  0  0  0  0  0  0
    8.7380   -0.4762    1.1850 H   0  0  0  0  0  0  0  0  0  0  0  0
   10.0256   -0.1537   -0.0124 H   0  0  0  0  0  0  0  0  0  0  0  0
    9.8145   -2.5844   -0.9033 H   0  0  0  0  0  0  0  0  0  0  0  0
    8.5244   -2.9097    0.2924 H   0  0  0  0  0  0  0  0  0  0  0  0
  1  2  1  0  0  0  0
  2  3  2  0  0  0  0
  3 17  1  0  0  0  0
  4  3  1  0  0  0  0
  4 18  1  0  0  0  0
  5  8  1  0  0  0  0
  5  4  2  0  0  0  0
  6  5  1  0  0  0  0
  7  6  2  0  0  0  0
  7  2  1  0  0  0  0
  8  9  2  0  0  0  0
 10  8  1  0  0  0  0
 11 10  1  0  0  0  0
 11 16  1  0  0  0  0
 11 15  1  0  0  0  0
 12 11  1  0  0  0  0
 13 12  2  0  0  0  0
 14 12  1  0  0  0  0
 15 23  1  0  0  0  0
 16 15  1  0  0  0  0
 16 26  1  0  0  0  0
 19  6  1  0  0  0  0
 20  7  1  0  0  0  0
 21 10  1  0  0  0  0
 22 14  1  0  0  0  0
 24 15  1  0  0  0  0
 25 16  1  0  0  0  0
M  END
$$$$
