26
rmsd157.gzmat
Br         0.00000        0.00000        0.00000
C          1.89840        0.00000        0.00000
C          2.57120        0.00000        1.21670
C          3.96540       -0.00470        1.21060
C          4.65030       -0.01730       -0.00390
C          3.96180       -0.00090       -1.21660
C          2.56780        0.00470       -1.21860
C          6.13900        0.00310        0.01840
O          6.79040        0.81660        0.63250
N          6.74040       -1.03120       -0.69180
C          8.15580       -1.03680       -0.92740
C          8.46950       -0.57780       -2.31800
O          7.69240       -0.40970       -3.22020
O          9.79880       -0.37550       -2.48740
C          9.13470       -0.74470        0.20330
C          9.01040       -2.14750       -0.31360
H          2.03450        0.00840        2.16560
H          4.52050        0.01080        2.15120
H          4.50690        0.02260       -2.16320
H          2.02800        0.01530       -2.16620
H          6.19170       -1.65860       -1.26690
H         10.03110       -0.04870       -3.39430
H          8.73800       -0.47620        1.18500
H         10.02560       -0.15370       -0.01240
H          9.81450       -2.58440       -0.90330
H          8.52440       -2.90970        0.29240
