26

Br         0.00150        0.14000       -0.21910
C          1.89910        0.04630       -0.09790
C          2.52670        0.34900        1.11530
C          3.91590        0.28180        1.19600
C          4.67860       -0.10880        0.08690
C          4.03270       -0.38830       -1.12630
C          2.64240       -0.31150       -1.22530
C          6.17450       -0.13420        0.22300
O          6.76480        0.62490        0.97020
N          6.80550       -1.10270       -0.52870
C          8.18170       -1.02970       -0.89190
C          8.39940       -0.33040       -2.19890
O          7.50500        0.04710       -2.91790
O          9.70130       -0.18660       -2.51480
C          9.22340       -0.93540        0.20260
C          9.08730       -2.21340       -0.55010
H          1.93100        0.63880        1.98200
H          4.43310        0.53460        2.12340
H          4.61920       -0.61960       -2.01890
H          2.14040       -0.51550       -2.17190
H          6.21960       -1.64820       -1.14910
H          9.73240        0.25710       -3.37910
H          8.82360       -0.86370        1.21370
H         10.08360       -0.29770       -0.00630
H          9.85430       -2.47680       -1.28110
H          8.58450       -3.05280       -0.06420
