26
rmsd118.gzmat
Br         0.00000        0.00000        0.00000
C          1.89850        0.00000        0.00000
C          2.57090        0.00000        1.21700
C          3.96520        0.00000        1.21140
C          4.64980       -0.00270       -0.00310
C          3.96220        0.00760       -1.21600
C          2.56810        0.00470       -1.21840
C          6.13880        0.03600       -0.02610
O          6.77940        0.93710       -0.51720
N          6.75070       -1.08610        0.52130
C          8.17250       -1.13610        0.70880
C          8.53260       -0.94150        2.14950
O          7.78800       -0.95930        3.09390
O          9.86620       -0.75490        2.30760
C          8.99990       -2.12280       -0.11880
C          9.12330       -0.65050       -0.37860
H          2.03300        0.00280        2.16580
H          4.51440        0.01400        2.15570
H          4.51280        0.02670       -2.15850
H          2.02810        0.01170       -2.16550
H          6.21190       -1.78930        1.01260
H         10.13090       -0.61090        3.25220
H          8.48800       -2.76180       -0.83610
H          9.81650       -2.66180        0.35780
H         10.02500       -0.11140       -0.08490
H          8.70720       -0.20850       -1.28670
