26
rmsd128.gzmat
Br         0.00000        0.00000        0.00000
C          1.89850        0.00000        0.00000
C          2.56910        0.00000        1.21790
C          3.96350       -0.01040        1.21570
C          4.65080       -0.02340        0.00280
C          3.96380       -0.00340       -1.21150
C          2.57000        0.00360       -1.21750
C          6.13840       -0.00950       -0.04440
O          6.77660        0.76910       -0.71680
N          6.75890       -1.01360        0.69060
C          8.18720       -1.04220        0.82390
C          8.62300       -0.48410        2.14300
O          7.92770       -0.21230        3.08580
O          9.96940       -0.32760        2.19260
C          8.96510       -2.22300        0.23890
C          9.07720       -0.87130       -0.40200
H          2.02960        0.01150        2.16540
H          4.50700        0.00680        2.16280
H          4.52010        0.01680       -2.15190
H          2.03280        0.01710       -2.16600
H          6.23730       -1.60370        1.32500
H         10.28640        0.05590        3.04990
H          8.41550       -3.01870       -0.25990
H          9.80590       -2.63150        0.79710
H          9.99500       -0.28970       -0.30900
H          8.60710       -0.67350       -1.36780
