rmsd8.gzmat
 OpenBabel08211713393D

 40 42  0  0  0  0  0  0  0  0999 V2000
    0.0000    0.0000    0.0000 N   0  0  0  0  0  0  0  0  0  0  0  0
    1.4080    0.0000    0.0000 C   0  0  0  0  0  0  0  0  0  0  0  0
    1.8867    0.0000    1.2934 C   0  0  0  0  0  0  0  0  0  0  0  0
    0.7492   -0.0254    2.1704 C   0  0  0  0  0  0  0  0  0  0  0  0
    0.5884   -0.0414    3.5579 C   0  0  0  0  0  0  0  0  0  0  0  0
   -0.7169   -0.0833    4.0327 C   0  0  0  0  0  0  0  0  0  0  0  0
   -1.8287   -0.1108    3.2500 N   0  0  0  0  0  0  0  0  0  0  0  0
   -1.6984   -0.0960    1.9247 C   0  0  0  0  0  0  0  0  0  0  0  0
   -0.4170   -0.0420    1.3364 C   0  0  0  0  0  0  0  0  0  0  0  0
   -0.9721   -0.0879    5.5037 C   0  0  0  0  0  0  0  0  0  0  0  0
   -0.7603    0.8191    6.2656 O   0  0  0  0  0  0  0  0  0  0  0  0
   -1.4232   -1.3036    5.8793 O   0  0  0  0  0  0  0  0  0  0  0  0
   -1.7578   -1.4788    7.2594 C   0  0  0  0  0  0  0  0  0  0  0  0
   -3.0739   -0.7863    7.5682 C   0  0  0  0  0  0  0  0  0  0  0  0
   -1.0291   -0.0189   -1.4416 S   0  0  0  0  0  0  0  0  0  0  0  0
   -0.2393   -0.6922   -2.4335 O   0  0  0  0  0  0  0  0  0  0  0  0
   -2.2962   -0.4997   -0.9671 O   0  0  0  0  0  0  0  0  0  0  0  0
   -1.1466    1.6723   -1.8366 C   0  0  0  0  0  0  0  0  0  0  0  0
   -2.1154    2.4686   -1.2224 C   0  0  0  0  0  0  0  0  0  0  0  0
   -2.2029    3.8210   -1.5333 C   0  0  0  0  0  0  0  0  0  0  0  0
   -1.3255    4.3885   -2.4643 C   0  0  0  0  0  0  0  0  0  0  0  0
   -0.3657    3.5846   -3.0869 C   0  0  0  0  0  0  0  0  0  0  0  0
   -0.2782    2.2314   -2.7749 C   0  0  0  0  0  0  0  0  0  0  0  0
   -1.4181    5.8399   -2.7777 C   0  0  0  0  0  0  0  0  0  0  0  0
    1.9558   -0.0097   -0.9295 H   0  0  0  0  0  0  0  0  0  0  0  0
    2.9079    0.0123    1.6092 H   0  0  0  0  0  0  0  0  0  0  0  0
    1.4450   -0.0197    4.2261 H   0  0  0  0  0  0  0  0  0  0  0  0
   -2.6247   -0.1497    1.3336 H   0  0  0  0  0  0  0  0  0  0  0  0
   -0.9284   -1.1158    7.8911 H   0  0  0  0  0  0  0  0  0  0  0  0
   -1.8316   -2.5814    7.3198 H   0  0  0  0  0  0  0  0  0  0  0  0
   -2.9639    0.3076    7.5358 H   0  0  0  0  0  0  0  0  0  0  0  0
   -3.4482   -1.0550    8.5611 H   0  0  0  0  0  0  0  0  0  0  0  0
   -3.8438   -1.0524    6.8308 H   0  0  0  0  0  0  0  0  0  0  0  0
   -2.8211    2.0431   -0.4981 H   0  0  0  0  0  0  0  0  0  0  0  0
   -2.9563    4.4417   -1.0511 H   0  0  0  0  0  0  0  0  0  0  0  0
    0.3147    4.0162   -3.8181 H   0  0  0  0  0  0  0  0  0  0  0  0
    0.4755    1.6174   -3.2832 H   0  0  0  0  0  0  0  0  0  0  0  0
   -0.7780    6.1425   -3.6182 H   0  0  0  0  0  0  0  0  0  0  0  0
   -1.1172    6.4529   -1.9120 H   0  0  0  0  0  0  0  0  0  0  0  0
   -2.4457    6.1387   -3.0366 H   0  0  0  0  0  0  0  0  0  0  0  0
  1  9  1  0  0  0  0
  2  1  1  0  0  0  0
  2  3  2  0  0  0  0
  3 26  1  0  0  0  0
  3  4  1  0  0  0  0
  4  5  1  0  0  0  0
  5  6  1  0  0  0  0
  5 27  1  0  0  0  0
  6 10  1  0  0  0  0
  7  6  2  0  0  0  0
  8  7  2  0  0  0  0
  9  8  1  0  0  0  0
  9  4  2  0  0  0  0
 10 12  1  0  0  0  0
 10 11  2  0  0  0  0
 12 13  1  0  0  0  0
 13 30  1  0  0  0  0
 13 14  1  0  0  0  0
 13 29  1  0  0  0  0
 14 32  1  0  0  0  0
 15 17  2  0  0  0  0
 15  1  1  0  0  0  0
 16 15  2  0  0  0  0
 18 15  1  0  0  0  0
 18 19  2  0  0  0  0
 19 34  1  0  0  0  0
 20 19  1  0  0  0  0
 20 35  1  0  0  0  0
 21 20  2  0  0  0  0
 22 23  2  0  0  0  0
 22 21  1  0  0  0  0
 23 18  1  0  0  0  0
 24 21  1  0  0  0  0
 24 39  1  0  0  0  0
 25  2  1  0  0  0  0
 28  8  1  0  0  0  0
 31 14  1  0  0  0  0
 33 14  1  0  0  0  0
 36 22  1  0  0  0  0
 37 23  1  0  0  0  0
 38 24  1  0  0  0  0
 40 24  1  0  0  0  0
M  RAD  1   5   2
M  END
$$$$
