rmsd138.gzmat
 OpenBabel08211713393D

 40 42  0  0  0  0  0  0  0  0999 V2000
    0.0000    0.0000    0.0000 N   0  0  0  0  0  0  0  0  0  0  0  0
    1.4069    0.0000    0.0000 C   0  0  0  0  0  0  0  0  0  0  0  0
    1.8846    0.0000    1.2942 C   0  0  0  0  0  0  0  0  0  0  0  0
    0.7470   -0.0139    2.1707 C   0  0  0  0  0  0  0  0  0  0  0  0
    0.5827   -0.0097    3.5580 C   0  0  0  0  0  0  0  0  0  0  0  0
   -0.7239   -0.0265    4.0292 C   0  0  0  0  0  0  0  0  0  0  0  0
   -1.8341   -0.0801    3.2460 N   0  0  0  0  0  0  0  0  0  0  0  0
   -1.7002   -0.0946    1.9210 C   0  0  0  0  0  0  0  0  0  0  0  0
   -0.4180   -0.0352    1.3358 C   0  0  0  0  0  0  0  0  0  0  0  0
   -0.9980    0.0293    5.4959 C   0  0  0  0  0  0  0  0  0  0  0  0
   -1.2277    1.0083    6.1531 O   0  0  0  0  0  0  0  0  0  0  0  0
   -0.9053   -1.2207    6.0051 O   0  0  0  0  0  0  0  0  0  0  0  0
   -1.1063   -1.3680    7.4134 C   0  0  0  0  0  0  0  0  0  0  0  0
    0.1565   -0.9665    8.1574 C   0  0  0  0  0  0  0  0  0  0  0  0
   -1.0397    0.0771   -1.4327 S   0  0  0  0  0  0  0  0  0  0  0  0
   -0.2183   -0.4298   -2.4960 O   0  0  0  0  0  0  0  0  0  0  0  0
   -2.2700   -0.5321   -1.0138 O   0  0  0  0  0  0  0  0  0  0  0  0
   -1.2600    1.7935   -1.6203 C   0  0  0  0  0  0  0  0  0  0  0  0
   -0.5214    2.4910   -2.5780 C   0  0  0  0  0  0  0  0  0  0  0  0
   -0.6850    3.8647   -2.7177 C   0  0  0  0  0  0  0  0  0  0  0  0
   -1.5881    4.5539   -1.8997 C   0  0  0  0  0  0  0  0  0  0  0  0
   -2.3302    3.8508   -0.9461 C   0  0  0  0  0  0  0  0  0  0  0  0
   -2.1705    2.4752   -0.8114 C   0  0  0  0  0  0  0  0  0  0  0  0
   -1.7489    6.0250   -2.0534 C   0  0  0  0  0  0  0  0  0  0  0  0
    1.9538   -0.0091   -0.9309 H   0  0  0  0  0  0  0  0  0  0  0  0
    2.9051    0.0050    1.6113 H   0  0  0  0  0  0  0  0  0  0  0  0
    1.4375    0.0044    4.2275 H   0  0  0  0  0  0  0  0  0  0  0  0
   -2.6235   -0.1792    1.3296 H   0  0  0  0  0  0  0  0  0  0  0  0
   -1.3231   -2.4503    7.4886 H   0  0  0  0  0  0  0  0  0  0  0  0
   -1.9879   -0.7819    7.7296 H   0  0  0  0  0  0  0  0  0  0  0  0
    1.0338   -1.5018    7.7746 H   0  0  0  0  0  0  0  0  0  0  0  0
    0.0745   -1.1788    9.2287 H   0  0  0  0  0  0  0  0  0  0  0  0
    0.3545    0.1099    8.0492 H   0  0  0  0  0  0  0  0  0  0  0  0
    0.1888    1.9710   -3.2327 H   0  0  0  0  0  0  0  0  0  0  0  0
   -0.1089    4.4071   -3.4643 H   0  0  0  0  0  0  0  0  0  0  0  0
   -3.0353    4.3786   -0.3061 H   0  0  0  0  0  0  0  0  0  0  0  0
   -2.7741    1.9446   -0.0649 H   0  0  0  0  0  0  0  0  0  0  0  0
   -2.5171    6.4476   -1.3902 H   0  0  0  0  0  0  0  0  0  0  0  0
   -2.0319    6.2962   -3.0825 H   0  0  0  0  0  0  0  0  0  0  0  0
   -0.8100    6.5564   -1.8298 H   0  0  0  0  0  0  0  0  0  0  0  0
  1  2  1  0  0  0  0
  1  9  1  0  0  0  0
  2  3  2  0  0  0  0
  3 26  1  0  0  0  0
  3  4  1  0  0  0  0
  4  5  1  0  0  0  0
  5  6  1  0  0  0  0
  5 27  1  0  0  0  0
  6 10  1  0  0  0  0
  7  6  2  0  0  0  0
  8  7  2  0  0  0  0
  9  8  1  0  0  0  0
  9  4  2  0  0  0  0
 10 12  1  0  0  0  0
 10 11  2  0  0  0  0
 12 13  1  0  0  0  0
 13 29  1  0  0  0  0
 13 30  1  0  0  0  0
 13 14  1  0  0  0  0
 14 32  1  0  0  0  0
 15 17  2  0  0  0  0
 15  1  1  0  0  0  0
 16 15  2  0  0  0  0
 18 15  1  0  0  0  0
 18 23  2  0  0  0  0
 19 18  1  0  0  0  0
 20 19  2  0  0  0  0
 20 21  1  0  0  0  0
 21 22  2  0  0  0  0
 22 23  1  0  0  0  0
 22 36  1  0  0  0  0
 23 37  1  0  0  0  0
 24 21  1  0  0  0  0
 24 40  1  0  0  0  0
 24 38  1  0  0  0  0
 25  2  1  0  0  0  0
 28  8  1  0  0  0  0
 31 14  1  0  0  0  0
 33 14  1  0  0  0  0
 34 19  1  0  0  0  0
 35 20  1  0  0  0  0
 39 24  1  0  0  0  0
M  RAD  1   5   2
M  END
$$$$
