40

N         -0.20170       -0.47540       -0.37610
C          1.19020       -0.58710       -0.40180
C          1.66460       -0.68980        0.87690
C          0.52750       -0.61810        1.76180
C          0.34910       -0.65140        3.15160
C         -0.95630       -0.53100        3.63730
N         -2.04180       -0.40370        2.84830
C         -1.90260       -0.38510        1.53260
C         -0.62970       -0.47980        0.95010
C         -1.23650       -0.53600        5.11440
O         -2.32380       -0.40190        5.61420
O         -0.10090       -0.71110        5.82920
C         -0.22860       -0.71810        7.25900
C         -0.25320        0.69070        7.82640
S         -1.13730        0.01250       -1.74220
O         -0.28820       -0.28600       -2.88930
O         -2.45820       -0.57130       -1.55450
C         -1.24210        1.77420       -1.52700
C         -0.19330        2.57590       -1.98630
C         -0.26230        3.95170       -1.78190
C         -1.36140        4.53670       -1.12910
C         -2.40520        3.70350       -0.69580
C         -2.35670        2.32380       -0.89020
C         -1.40690        6.02100       -0.88130
H          1.70330       -0.60160       -1.35990
H          2.70630       -0.81780        1.16230
H          1.18520       -0.76080        3.84070
H         -2.80440       -0.31410        0.91880
H          0.64700       -1.27910        7.61620
H         -1.14320       -1.26500        7.53230
H          0.64130        1.25360        7.51710
H         -0.27470        0.65300        8.92730
H         -1.14870        1.22860        7.48340
H          0.65180        2.12410       -2.50750
H          0.54970        4.58790       -2.14240
H         -3.27500        4.14240       -0.20120
H         -3.17500        1.68020       -0.56690
H         -2.44150        6.39040       -0.82900
H         -0.87720        6.57840       -1.66800
H         -0.92130        6.26710        0.07890
