40
rmsd193.gzmat
N          0.00000        0.00000        0.00000
C          1.40720        0.00000        0.00000
C          1.88520        0.00000        1.29420
C          0.74750        0.01460        2.17060
C          0.58370        0.01000        3.55780
C         -0.72300        0.02700        4.03000
N         -1.83320        0.08790        3.24730
C         -1.69930        0.10460        1.92250
C         -0.41800        0.03820        1.33560
C         -0.99460       -0.03260        5.49640
O         -1.39020       -0.97360        6.12840
O         -0.67170        1.16460        6.04210
C         -0.81640        1.29780        7.45790
C          0.36590        0.64850        8.15810
S         -1.03850       -0.06490       -1.43420
O         -2.24500        0.60000       -1.03220
O         -0.19120        0.38880       -2.50170
C         -1.33320       -1.77260       -1.59540
C         -2.30190       -2.39300       -0.80500
C         -2.53300       -3.75940       -0.92900
C         -1.80300       -4.51460       -1.85180
C         -0.83690       -3.88780       -2.64730
C         -0.60310       -2.52310       -2.51920
C         -2.04890       -5.97430       -2.00000
H          1.95380        0.00960       -0.93120
H          2.90580       -0.00470        1.61130
H          1.43870       -0.00270        4.22760
H         -2.62170        0.19860        1.33160
H         -1.78340        0.87000        7.77680
H         -0.83160        2.39830        7.57230
H          0.33720       -0.44520        8.05090
H          0.36970        0.87440        9.22990
H          1.31890        0.99410        7.73810
H         -2.89640       -1.82080       -0.08210
H         -3.28540       -4.23930       -0.30510
H         -0.26830       -4.47100       -3.36840
H          0.15430       -2.05070       -3.15680
H         -2.42150       -6.21770       -3.00770
H         -2.78890       -6.36200       -1.28530
H         -1.12690       -6.55840       -1.85190
