
     RDKit          3D

 40 42  0  0  0  0  0  0  0  0999 V2000
   -0.2017   -0.4754   -0.3761 N   0  0  0  0  0  0  0  0  0  0  0  0
    1.1902   -0.5871   -0.4018 C   0  0  0  0  0  0  0  0  0  0  0  0
    1.6646   -0.6898    0.8769 C   0  0  0  0  0  0  0  0  0  0  0  0
    0.5275   -0.6181    1.7618 C   0  0  0  0  0  0  0  0  0  0  0  0
    0.3491   -0.6514    3.1516 C   0  0  0  0  0  0  0  0  0  0  0  0
   -0.9563   -0.5310    3.6373 C   0  0  0  0  0  0  0  0  0  0  0  0
   -2.0418   -0.4037    2.8483 N   0  0  0  0  0  0  0  0  0  0  0  0
   -1.9026   -0.3851    1.5326 C   0  0  0  0  0  0  0  0  0  0  0  0
   -0.6297   -0.4798    0.9501 C   0  0  0  0  0  0  0  0  0  0  0  0
   -1.2365   -0.5360    5.1144 C   0  0  0  0  0  0  0  0  0  0  0  0
   -2.3238   -0.4019    5.6142 O   0  0  0  0  0  0  0  0  0  0  0  0
   -0.1009   -0.7111    5.8292 O   0  0  0  0  0  0  0  0  0  0  0  0
   -0.2286   -0.7181    7.2590 C   0  0  0  0  0  0  0  0  0  0  0  0
   -0.2532    0.6907    7.8264 C   0  0  0  0  0  0  0  0  0  0  0  0
   -1.1373    0.0125   -1.7422 S   0  0  0  0  0  0  0  0  0  0  0  0
   -0.2882   -0.2860   -2.8893 O   0  0  0  0  0  0  0  0  0  0  0  0
   -2.4582   -0.5713   -1.5545 O   0  0  0  0  0  0  0  0  0  0  0  0
   -1.2421    1.7742   -1.5270 C   0  0  0  0  0  0  0  0  0  0  0  0
   -0.1933    2.5759   -1.9863 C   0  0  0  0  0  0  0  0  0  0  0  0
   -0.2623    3.9517   -1.7819 C   0  0  0  0  0  0  0  0  0  0  0  0
   -1.3614    4.5367   -1.1291 C   0  0  0  0  0  0  0  0  0  0  0  0
   -2.4052    3.7035   -0.6958 C   0  0  0  0  0  0  0  0  0  0  0  0
   -2.3567    2.3238   -0.8902 C   0  0  0  0  0  0  0  0  0  0  0  0
   -1.4069    6.0210   -0.8813 C   0  0  0  0  0  0  0  0  0  0  0  0
    1.7033   -0.6016   -1.3599 H   0  0  0  0  0  0  0  0  0  0  0  0
    2.7063   -0.8178    1.1623 H   0  0  0  0  0  0  0  0  0  0  0  0
    1.1852   -0.7608    3.8407 H   0  0  0  0  0  0  0  0  0  0  0  0
   -2.8044   -0.3141    0.9188 H   0  0  0  0  0  0  0  0  0  0  0  0
    0.6470   -1.2791    7.6162 H   0  0  0  0  0  0  0  0  0  0  0  0
   -1.1432   -1.2650    7.5323 H   0  0  0  0  0  0  0  0  0  0  0  0
    0.6413    1.2536    7.5171 H   0  0  0  0  0  0  0  0  0  0  0  0
   -0.2747    0.6530    8.9273 H   0  0  0  0  0  0  0  0  0  0  0  0
   -1.1487    1.2286    7.4834 H   0  0  0  0  0  0  0  0  0  0  0  0
    0.6518    2.1241   -2.5075 H   0  0  0  0  0  0  0  0  0  0  0  0
    0.5497    4.5879   -2.1424 H   0  0  0  0  0  0  0  0  0  0  0  0
   -3.2750    4.1424   -0.2012 H   0  0  0  0  0  0  0  0  0  0  0  0
   -3.1750    1.6802   -0.5669 H   0  0  0  0  0  0  0  0  0  0  0  0
   -2.4415    6.3904   -0.8290 H   0  0  0  0  0  0  0  0  0  0  0  0
   -0.8772    6.5784   -1.6680 H   0  0  0  0  0  0  0  0  0  0  0  0
   -0.9213    6.2671    0.0789 H   0  0  0  0  0  0  0  0  0  0  0  0
  1  2  1  0
  1  9  1  0
  1 15  1  0
  2  3  2  0
  2 25  1  0
  3  4  1  0
  3 26  1  0
  4  5  1  0
  4  9  2  0
  5  6  2  0
  5 27  1  0
  6  7  1  0
  6 10  1  0
  7  8  2  0
  8  9  1  0
  8 28  1  0
 10 11  2  0
 10 12  1  0
 12 13  1  0
 13 14  1  0
 13 29  1  0
 13 30  1  0
 14 31  1  0
 14 32  1  0
 14 33  1  0
 15 16  2  0
 15 17  2  0
 15 18  1  0
 18 19  2  0
 18 23  1  0
 19 20  1  0
 19 34  1  0
 20 21  2  0
 20 35  1  0
 21 22  1  0
 21 24  1  0
 22 23  2  0
 22 36  1  0
 23 37  1  0
 24 38  1  0
 24 39  1  0
 24 40  1  0
M  END

