rmsd143.gzmat
 OpenBabel08211713393D

 40 42  0  0  0  0  0  0  0  0999 V2000
    0.0000    0.0000    0.0000 N   0  0  0  0  0  0  0  0  0  0  0  0
    1.4074    0.0000    0.0000 C   0  0  0  0  0  0  0  0  0  0  0  0
    1.8860    0.0000    1.2937 C   0  0  0  0  0  0  0  0  0  0  0  0
    0.7486    0.0220    2.1704 C   0  0  0  0  0  0  0  0  0  0  0  0
    0.5878    0.0358    3.5584 C   0  0  0  0  0  0  0  0  0  0  0  0
   -0.7171    0.0713    4.0313 C   0  0  0  0  0  0  0  0  0  0  0  0
   -1.8292    0.1089    3.2487 N   0  0  0  0  0  0  0  0  0  0  0  0
   -1.6992    0.0997    1.9236 C   0  0  0  0  0  0  0  0  0  0  0  0
   -0.4173    0.0406    1.3366 C   0  0  0  0  0  0  0  0  0  0  0  0
   -0.9993    0.0717    5.4979 C   0  0  0  0  0  0  0  0  0  0  0  0
   -1.1730   -0.8837    6.2051 O   0  0  0  0  0  0  0  0  0  0  0  0
   -0.9823    1.3503    5.9396 O   0  0  0  0  0  0  0  0  0  0  0  0
   -1.3532    1.5759    7.3023 C   0  0  0  0  0  0  0  0  0  0  0  0
   -2.8570    1.4209    7.4548 C   0  0  0  0  0  0  0  0  0  0  0  0
   -1.0332   -0.0098   -1.4389 S   0  0  0  0  0  0  0  0  0  0  0  0
   -2.3103    0.4358   -0.9579 O   0  0  0  0  0  0  0  0  0  0  0  0
   -0.2709    0.6845   -2.4382 O   0  0  0  0  0  0  0  0  0  0  0  0
   -1.0965   -1.7046   -1.8312 C   0  0  0  0  0  0  0  0  0  0  0  0
   -1.9083   -2.5692   -1.0937 C   0  0  0  0  0  0  0  0  0  0  0  0
   -1.9446   -3.9238   -1.4054 C   0  0  0  0  0  0  0  0  0  0  0  0
   -1.1750   -4.4253   -2.4618 C   0  0  0  0  0  0  0  0  0  0  0  0
   -0.3723   -3.5542   -3.2045 C   0  0  0  0  0  0  0  0  0  0  0  0
   -0.3341   -2.1992   -2.8900 C   0  0  0  0  0  0  0  0  0  0  0  0
   -1.2134   -5.8780   -2.7810 C   0  0  0  0  0  0  0  0  0  0  0  0
    1.9549    0.0094   -0.9297 H   0  0  0  0  0  0  0  0  0  0  0  0
    2.9071   -0.0092    1.6097 H   0  0  0  0  0  0  0  0  0  0  0  0
    1.4451    0.0224    4.2253 H   0  0  0  0  0  0  0  0  0  0  0  0
   -2.6254    0.1628    1.3322 H   0  0  0  0  0  0  0  0  0  0  0  0
   -1.0122    2.6186    7.4473 H   0  0  0  0  0  0  0  0  0  0  0  0
   -0.7865    0.8935    7.9600 H   0  0  0  0  0  0  0  0  0  0  0  0
   -3.3902    1.9235    6.6356 H   0  0  0  0  0  0  0  0  0  0  0  0
   -3.2151    1.8427    8.3983 H   0  0  0  0  0  0  0  0  0  0  0  0
   -3.1528    0.3623    7.4252 H   0  0  0  0  0  0  0  0  0  0  0  0
   -2.5267   -2.1987   -0.2668 H   0  0  0  0  0  0  0  0  0  0  0  0
   -2.5738   -4.5981   -0.8266 H   0  0  0  0  0  0  0  0  0  0  0  0
    0.2253   -3.9347   -4.0303 H   0  0  0  0  0  0  0  0  0  0  0  0
    0.2992   -1.5328   -3.4894 H   0  0  0  0  0  0  0  0  0  0  0  0
   -2.2435   -6.2324   -2.9433 H   0  0  0  0  0  0  0  0  0  0  0  0
   -0.7957   -6.4791   -1.9568 H   0  0  0  0  0  0  0  0  0  0  0  0
   -0.6419   -6.1382   -3.6829 H   0  0  0  0  0  0  0  0  0  0  0  0
  1  9  1  0  0  0  0
  2  1  1  0  0  0  0
  2  3  2  0  0  0  0
  3 26  1  0  0  0  0
  3  4  1  0  0  0  0
  4  5  1  0  0  0  0
  5  6  1  0  0  0  0
  5 27  1  0  0  0  0
  6 10  1  0  0  0  0
  7  6  2  0  0  0  0
  8  7  2  0  0  0  0
  9  8  1  0  0  0  0
  9  4  2  0  0  0  0
 10 12  1  0  0  0  0
 10 11  2  0  0  0  0
 12 13  1  0  0  0  0
 13 29  1  0  0  0  0
 13 14  1  0  0  0  0
 13 30  1  0  0  0  0
 14 32  1  0  0  0  0
 15 16  2  0  0  0  0
 15  1  1  0  0  0  0
 17 15  2  0  0  0  0
 18 15  1  0  0  0  0
 18 19  2  0  0  0  0
 19 34  1  0  0  0  0
 20 19  1  0  0  0  0
 20 35  1  0  0  0  0
 21 20  2  0  0  0  0
 22 23  2  0  0  0  0
 22 21  1  0  0  0  0
 23 18  1  0  0  0  0
 24 21  1  0  0  0  0
 24 39  1  0  0  0  0
 25  2  1  0  0  0  0
 28  8  1  0  0  0  0
 31 14  1  0  0  0  0
 33 14  1  0  0  0  0
 36 22  1  0  0  0  0
 37 23  1  0  0  0  0
 38 24  1  0  0  0  0
 40 24  1  0  0  0  0
M  RAD  1   5   2
M  END
$$$$
