
     RDKit          3D

 40 42  0  0  0  0  0  0  0  0999 V2000
    0.2562    0.3808   -0.3448 N   0  0  0  0  0  0  0  0  0  0  0  0
    1.6287    0.1875   -0.5208 C   0  0  0  0  0  0  0  0  0  0  0  0
    2.2268    0.0159    0.6969 C   0  0  0  0  0  0  0  0  0  0  0  0
    1.1883    0.0803    1.6963 C   0  0  0  0  0  0  0  0  0  0  0  0
    1.1464   -0.0270    3.0918 C   0  0  0  0  0  0  0  0  0  0  0  0
   -0.1023    0.0836    3.7089 C   0  0  0  0  0  0  0  0  0  0  0  0
   -1.2556    0.3014    3.0473 N   0  0  0  0  0  0  0  0  0  0  0  0
   -1.2417    0.4195    1.7278 C   0  0  0  0  0  0  0  0  0  0  0  0
   -0.0387    0.3055    1.0154 C   0  0  0  0  0  0  0  0  0  0  0  0
   -0.1421   -0.0433    5.2051 C   0  0  0  0  0  0  0  0  0  0  0  0
    0.8497   -0.2294    5.8777 O   0  0  0  0  0  0  0  0  0  0  0  0
   -1.3761    0.0651    5.7062 O   0  0  0  0  0  0  0  0  0  0  0  0
   -1.5092   -0.0255    7.1332 C   0  0  0  0  0  0  0  0  0  0  0  0
   -1.2212    1.3056    7.8060 C   0  0  0  0  0  0  0  0  0  0  0  0
   -0.8836    0.2857   -1.6365 S   0  0  0  0  0  0  0  0  0  0  0  0
   -2.0193    1.1031   -1.2326 O   0  0  0  0  0  0  0  0  0  0  0  0
   -0.0977    0.5490   -2.8360 O   0  0  0  0  0  0  0  0  0  0  0  0
   -1.3580   -1.4275   -1.6067 C   0  0  0  0  0  0  0  0  0  0  0  0
   -2.5050   -1.8108   -0.9110 C   0  0  0  0  0  0  0  0  0  0  0  0
   -2.8411   -3.1644   -0.8650 C   0  0  0  0  0  0  0  0  0  0  0  0
   -2.0513   -4.1317   -1.5040 C   0  0  0  0  0  0  0  0  0  0  0  0
   -0.9097   -3.7084   -2.2091 C   0  0  0  0  0  0  0  0  0  0  0  0
   -0.5563   -2.3639   -2.2680 C   0  0  0  0  0  0  0  0  0  0  0  0
   -2.4035   -5.5941   -1.4382 C   0  0  0  0  0  0  0  0  0  0  0  0
    2.0431    0.2147   -1.5252 H   0  0  0  0  0  0  0  0  0  0  0  0
    3.2910   -0.1254    0.8710 H   0  0  0  0  0  0  0  0  0  0  0  0
    2.0348   -0.1939    3.7013 H   0  0  0  0  0  0  0  0  0  0  0  0
   -2.1858    0.6271    1.2177 H   0  0  0  0  0  0  0  0  0  0  0  0
   -0.8334   -0.8084    7.5087 H   0  0  0  0  0  0  0  0  0  0  0  0
   -2.5505   -0.3383    7.2951 H   0  0  0  0  0  0  0  0  0  0  0  0
   -0.1695    1.5921    7.6616 H   0  0  0  0  0  0  0  0  0  0  0  0
   -1.4119    1.2292    8.8884 H   0  0  0  0  0  0  0  0  0  0  0  0
   -1.8660    2.0977    7.3951 H   0  0  0  0  0  0  0  0  0  0  0  0
   -3.1277   -1.0591   -0.4258 H   0  0  0  0  0  0  0  0  0  0  0  0
   -3.7383   -3.4736   -0.3239 H   0  0  0  0  0  0  0  0  0  0  0  0
   -0.2922   -4.4477   -2.7255 H   0  0  0  0  0  0  0  0  0  0  0  0
    0.3198   -2.0340   -2.8280 H   0  0  0  0  0  0  0  0  0  0  0  0
   -2.4025   -6.0490   -2.4414 H   0  0  0  0  0  0  0  0  0  0  0  0
   -3.3936   -5.7534   -0.9885 H   0  0  0  0  0  0  0  0  0  0  0  0
   -1.6651   -6.1460   -0.8326 H   0  0  0  0  0  0  0  0  0  0  0  0
  1  2  1  0
  1  9  1  0
  1 15  1  0
  2  3  2  0
  2 25  1  0
  3  4  1  0
  3 26  1  0
  4  5  1  0
  4  9  2  0
  5  6  2  0
  5 27  1  0
  6  7  1  0
  6 10  1  0
  7  8  2  0
  8  9  1  0
  8 28  1  0
 10 11  2  0
 10 12  1  0
 12 13  1  0
 13 14  1  0
 13 29  1  0
 13 30  1  0
 14 31  1  0
 14 32  1  0
 14 33  1  0
 15 16  2  0
 15 17  2  0
 15 18  1  0
 18 19  2  0
 18 23  1  0
 19 20  1  0
 19 34  1  0
 20 21  2  0
 20 35  1  0
 21 22  1  0
 21 24  1  0
 22 23  2  0
 22 36  1  0
 23 37  1  0
 24 38  1  0
 24 39  1  0
 24 40  1  0
M  END

