
     RDKit          3D

 40 42  0  0  0  0  0  0  0  0999 V2000
    0.3994   -0.4611   -0.3687 N   0  0  0  0  0  0  0  0  0  0  0  0
    1.7807   -0.2623   -0.3014 C   0  0  0  0  0  0  0  0  0  0  0  0
    2.1688   -0.1830    1.0075 C   0  0  0  0  0  0  0  0  0  0  0  0
    0.9802   -0.3146    1.8146 C   0  0  0  0  0  0  0  0  0  0  0  0
    0.7080   -0.3075    3.1881 C   0  0  0  0  0  0  0  0  0  0  0  0
   -0.6245   -0.4566    3.5812 C   0  0  0  0  0  0  0  0  0  0  0  0
   -1.6514   -0.6198    2.7245 N   0  0  0  0  0  0  0  0  0  0  0  0
   -1.4194   -0.6421    1.4203 C   0  0  0  0  0  0  0  0  0  0  0  0
   -0.1162   -0.4836    0.9262 C   0  0  0  0  0  0  0  0  0  0  0  0
   -0.9114   -0.4351    5.0555 C   0  0  0  0  0  0  0  0  0  0  0  0
   -0.0470   -0.2882    5.8934 O   0  0  0  0  0  0  0  0  0  0  0  0
   -2.2075   -0.5959    5.3383 O   0  0  0  0  0  0  0  0  0  0  0  0
   -2.5773   -0.5806    6.7257 C   0  0  0  0  0  0  0  0  0  0  0  0
   -2.7423    0.8378    7.2439 C   0  0  0  0  0  0  0  0  0  0  0  0
   -0.5126   -0.2632   -1.8199 S   0  0  0  0  0  0  0  0  0  0  0  0
    0.4621   -0.4405   -2.8897 O   0  0  0  0  0  0  0  0  0  0  0  0
   -1.6938   -1.1019   -1.6710 O   0  0  0  0  0  0  0  0  0  0  0  0
   -0.9967    1.4458   -1.7408 C   0  0  0  0  0  0  0  0  0  0  0  0
   -2.2451    1.7827   -1.2166 C   0  0  0  0  0  0  0  0  0  0  0  0
   -2.5927    3.1311   -1.1251 C   0  0  0  0  0  0  0  0  0  0  0  0
   -1.7149    4.1388   -1.5513 C   0  0  0  0  0  0  0  0  0  0  0  0
   -0.4698    3.7626   -2.0880 C   0  0  0  0  0  0  0  0  0  0  0  0
   -0.1029    2.4243   -2.1885 C   0  0  0  0  0  0  0  0  0  0  0  0
   -2.0842    5.5941   -1.4400 C   0  0  0  0  0  0  0  0  0  0  0  0
    2.3553   -0.2183   -1.2230 H   0  0  0  0  0  0  0  0  0  0  0  0
    3.1888   -0.0603    1.3645 H   0  0  0  0  0  0  0  0  0  0  0  0
    1.4825   -0.1883    3.9461 H   0  0  0  0  0  0  0  0  0  0  0  0
   -2.2652   -0.8069    0.7479 H   0  0  0  0  0  0  0  0  0  0  0  0
   -1.8169   -1.1235    7.3068 H   0  0  0  0  0  0  0  0  0  0  0  0
   -3.5262   -1.1340    6.7658 H   0  0  0  0  0  0  0  0  0  0  0  0
   -1.7803    1.3699    7.2267 H   0  0  0  0  0  0  0  0  0  0  0  0
   -3.1067    0.8185    8.2835 H   0  0  0  0  0  0  0  0  0  0  0  0
   -3.4690    1.3944    6.6322 H   0  0  0  0  0  0  0  0  0  0  0  0
   -2.9342    1.0005   -0.8982 H   0  0  0  0  0  0  0  0  0  0  0  0
   -3.5685    3.4043   -0.7170 H   0  0  0  0  0  0  0  0  0  0  0  0
    0.2200    4.5349   -2.4380 H   0  0  0  0  0  0  0  0  0  0  0  0
    0.8558    2.1320   -2.6191 H   0  0  0  0  0  0  0  0  0  0  0  0
   -1.9757    6.1061   -2.4096 H   0  0  0  0  0  0  0  0  0  0  0  0
   -1.4225    6.1120   -0.7260 H   0  0  0  0  0  0  0  0  0  0  0  0
   -3.1199    5.7251   -1.0967 H   0  0  0  0  0  0  0  0  0  0  0  0
  1  2  1  0
  1  9  1  0
  1 15  1  0
  2  3  2  0
  2 25  1  0
  3  4  1  0
  3 26  1  0
  4  5  1  0
  4  9  2  0
  5  6  2  0
  5 27  1  0
  6  7  1  0
  6 10  1  0
  7  8  2  0
  8  9  1  0
  8 28  1  0
 10 11  2  0
 10 12  1  0
 12 13  1  0
 13 14  1  0
 13 29  1  0
 13 30  1  0
 14 31  1  0
 14 32  1  0
 14 33  1  0
 15 16  2  0
 15 17  2  0
 15 18  1  0
 18 19  2  0
 18 23  1  0
 19 20  1  0
 19 34  1  0
 20 21  2  0
 20 35  1  0
 21 22  1  0
 21 24  1  0
 22 23  2  0
 22 36  1  0
 23 37  1  0
 24 38  1  0
 24 39  1  0
 24 40  1  0
M  END

