40

N         -0.13750       -0.55220       -0.40840
C          1.25270       -0.68380       -0.43630
C          1.73060       -0.76120        0.84290
C          0.59790       -0.65200        1.72980
C          0.42450       -0.64880        3.12050
C         -0.87730       -0.49880        3.60770
N         -1.96390       -0.37590        2.81970
C         -1.82960       -0.39130        1.50340
C         -0.56030       -0.51790        0.91890
C         -1.15190       -0.46450        5.08550
O         -2.23560       -0.30450        5.58570
O         -0.01600       -0.63690        5.80030
C         -0.13850       -0.60820        7.23030
C         -0.14320        0.81400        7.76400
S         -1.07230       -0.08870       -1.78340
O         -0.23110       -0.42730       -2.92530
O         -2.39940       -0.65120       -1.57620
C         -1.15500        1.67920       -1.61480
C         -0.09270        2.45530       -2.09050
C         -0.14340        3.83530       -1.92050
C         -1.23850        4.45210       -1.28770
C         -2.29230        3.64500       -0.83460
C         -2.26220        2.25890       -0.99480
C         -1.27010        5.94740       -1.11480
H          1.76180       -0.72930       -1.39560
H          2.77160       -0.89630        1.12770
H          1.26160       -0.75270        3.80920
H         -2.73270       -0.32280        0.89130
H          0.73130       -1.17150        7.59790
H         -1.05880       -1.13670        7.51980
H          0.75700        1.35800        7.43820
H         -0.16110        0.80280        8.86550
H         -1.03320        1.35480        7.41120
H          0.74910        1.97850       -2.59440
H          0.68040        4.45120       -2.29020
H         -3.15480        4.10750       -0.34930
H         -3.08850        1.63480       -0.65430
H         -1.24410        6.45720       -2.09190
H         -0.39330        6.29680       -0.54570
H         -2.17430        6.27570       -0.58360
