
     RDKit          3D

 40 42  0  0  0  0  0  0  0  0999 V2000
    0.4265    0.4851   -0.4553 N   0  0  0  0  0  0  0  0  0  0  0  0
    1.8116    0.3051   -0.4243 C   0  0  0  0  0  0  0  0  0  0  0  0
    2.2392    0.2642    0.8739 C   0  0  0  0  0  0  0  0  0  0  0  0
    1.0734    0.4018    1.7126 C   0  0  0  0  0  0  0  0  0  0  0  0
    0.8420    0.4268    3.0933 C   0  0  0  0  0  0  0  0  0  0  0  0
   -0.4802    0.5696    3.5222 C   0  0  0  0  0  0  0  0  0  0  0  0
   -1.5340    0.6978    2.6927 N   0  0  0  0  0  0  0  0  0  0  0  0
   -1.3410    0.6893    1.3819 C   0  0  0  0  0  0  0  0  0  0  0  0
   -0.0509    0.5345    0.8533 C   0  0  0  0  0  0  0  0  0  0  0  0
   -0.7230    0.5828    5.0044 C   0  0  0  0  0  0  0  0  0  0  0  0
    0.1677    0.4689    5.8195 O   0  0  0  0  0  0  0  0  0  0  0  0
   -2.0123    0.7341    5.3218 O   0  0  0  0  0  0  0  0  0  0  0  0
   -2.3404    0.7503    6.7195 C   0  0  0  0  0  0  0  0  0  0  0  0
   -2.4699   -0.6560    7.2791 C   0  0  0  0  0  0  0  0  0  0  0  0
   -0.5252    0.2414   -1.8736 S   0  0  0  0  0  0  0  0  0  0  0  0
   -1.7105    1.0720   -1.7115 O   0  0  0  0  0  0  0  0  0  0  0  0
    0.4160    0.4010   -2.9756 O   0  0  0  0  0  0  0  0  0  0  0  0
   -0.9890   -1.4696   -1.7373 C   0  0  0  0  0  0  0  0  0  0  0  0
   -2.2212   -1.8048   -1.1753 C   0  0  0  0  0  0  0  0  0  0  0  0
   -2.5524   -3.1536   -1.0399 C   0  0  0  0  0  0  0  0  0  0  0  0
   -1.6740   -4.1636   -1.4595 C   0  0  0  0  0  0  0  0  0  0  0  0
   -0.4458   -3.7896   -2.0351 C   0  0  0  0  0  0  0  0  0  0  0  0
   -0.0955   -2.4509   -2.1799 C   0  0  0  0  0  0  0  0  0  0  0  0
   -2.0250   -5.6190   -1.3002 C   0  0  0  0  0  0  0  0  0  0  0  0
    2.3592    0.2448   -1.3613 H   0  0  0  0  0  0  0  0  0  0  0  0
    3.2708    0.1632    1.2033 H   0  0  0  0  0  0  0  0  0  0  0  0
    1.6400    0.3368    3.8306 H   0  0  0  0  0  0  0  0  0  0  0  0
   -2.2084    0.8261    0.7312 H   0  0  0  0  0  0  0  0  0  0  0  0
   -3.2955    1.2918    6.7739 H   0  0  0  0  0  0  0  0  0  0  0  0
   -1.5709    1.3184    7.2633 H   0  0  0  0  0  0  0  0  0  0  0  0
   -3.2064   -1.2382    6.7042 H   0  0  0  0  0  0  0  0  0  0  0  0
   -2.8034   -0.6143    8.3283 H   0  0  0  0  0  0  0  0  0  0  0  0
   -1.5013   -1.1755    7.2467 H   0  0  0  0  0  0  0  0  0  0  0  0
   -2.9109   -1.0211   -0.8618 H   0  0  0  0  0  0  0  0  0  0  0  0
   -3.5156   -3.4255   -0.6019 H   0  0  0  0  0  0  0  0  0  0  0  0
    0.2437   -4.5641   -2.3807 H   0  0  0  0  0  0  0  0  0  0  0  0
    0.8497   -2.1609   -2.6407 H   0  0  0  0  0  0  0  0  0  0  0  0
   -3.0538   -5.7512   -0.9371 H   0  0  0  0  0  0  0  0  0  0  0  0
   -1.3467   -6.1082   -0.5813 H   0  0  0  0  0  0  0  0  0  0  0  0
   -1.9251   -6.1581   -2.2558 H   0  0  0  0  0  0  0  0  0  0  0  0
  1  2  1  0
  1  9  1  0
  1 15  1  0
  2  3  2  0
  2 25  1  0
  3  4  1  0
  3 26  1  0
  4  5  1  0
  4  9  2  0
  5  6  2  0
  5 27  1  0
  6  7  1  0
  6 10  1  0
  7  8  2  0
  8  9  1  0
  8 28  1  0
 10 11  2  0
 10 12  1  0
 12 13  1  0
 13 14  1  0
 13 29  1  0
 13 30  1  0
 14 31  1  0
 14 32  1  0
 14 33  1  0
 15 16  2  0
 15 17  2  0
 15 18  1  0
 18 19  2  0
 18 23  1  0
 19 20  1  0
 19 34  1  0
 20 21  2  0
 20 35  1  0
 21 22  1  0
 21 24  1  0
 22 23  2  0
 22 36  1  0
 23 37  1  0
 24 38  1  0
 24 39  1  0
 24 40  1  0
M  END

