rmsd107.gzmat
 OpenBabel08211713393D

 40 42  0  0  0  0  0  0  0  0999 V2000
    0.0000    0.0000    0.0000 N   0  0  0  0  0  0  0  0  0  0  0  0
    1.4074    0.0000    0.0000 C   0  0  0  0  0  0  0  0  0  0  0  0
    1.8858    0.0000    1.2939 C   0  0  0  0  0  0  0  0  0  0  0  0
    0.7486    0.0232    2.1710 C   0  0  0  0  0  0  0  0  0  0  0  0
    0.5867    0.0343    3.5586 C   0  0  0  0  0  0  0  0  0  0  0  0
   -0.7191    0.0717    4.0313 C   0  0  0  0  0  0  0  0  0  0  0  0
   -1.8298    0.1138    3.2486 N   0  0  0  0  0  0  0  0  0  0  0  0
   -1.6982    0.1091    1.9232 C   0  0  0  0  0  0  0  0  0  0  0  0
   -0.4170    0.0446    1.3365 C   0  0  0  0  0  0  0  0  0  0  0  0
   -0.9910    0.0646    5.5000 C   0  0  0  0  0  0  0  0  0  0  0  0
   -1.0523   -0.8966    6.2187 O   0  0  0  0  0  0  0  0  0  0  0  0
   -1.1256    1.3407    5.9251 O   0  0  0  0  0  0  0  0  0  0  0  0
   -1.3847    1.5437    7.3168 C   0  0  0  0  0  0  0  0  0  0  0  0
   -0.0965    1.3951    8.1091 C   0  0  0  0  0  0  0  0  0  0  0  0
   -1.0393    0.0180   -1.4346 S   0  0  0  0  0  0  0  0  0  0  0  0
   -2.2567    0.6273   -0.9789 O   0  0  0  0  0  0  0  0  0  0  0  0
   -0.2085    0.5675   -2.4699 O   0  0  0  0  0  0  0  0  0  0  0  0
   -1.3042   -1.6768   -1.7315 C   0  0  0  0  0  0  0  0  0  0  0  0
   -2.1976   -2.3971   -0.9366 C   0  0  0  0  0  0  0  0  0  0  0  0
   -2.4146   -3.7493   -1.1816 C   0  0  0  0  0  0  0  0  0  0  0  0
   -1.7453   -4.3906   -2.2288 C   0  0  0  0  0  0  0  0  0  0  0  0
   -0.8535   -3.6643   -3.0261 C   0  0  0  0  0  0  0  0  0  0  0  0
   -0.6340   -2.3134   -2.7780 C   0  0  0  0  0  0  0  0  0  0  0  0
   -1.9892   -5.8311   -2.5088 C   0  0  0  0  0  0  0  0  0  0  0  0
    1.9545    0.0091   -0.9306 H   0  0  0  0  0  0  0  0  0  0  0  0
    2.9068   -0.0093    1.6096 H   0  0  0  0  0  0  0  0  0  0  0  0
    1.4428    0.0161    4.2270 H   0  0  0  0  0  0  0  0  0  0  0  0
   -2.6235    0.1855    1.3334 H   0  0  0  0  0  0  0  0  0  0  0  0
   -2.1721    0.8468    7.6554 H   0  0  0  0  0  0  0  0  0  0  0  0
   -1.7715    2.5807    7.3144 H   0  0  0  0  0  0  0  0  0  0  0  0
    0.2517    0.3519    8.1042 H   0  0  0  0  0  0  0  0  0  0  0  0
   -0.2327    1.6938    9.1540 H   0  0  0  0  0  0  0  0  0  0  0  0
    0.7070    2.0101    7.6848 H   0  0  0  0  0  0  0  0  0  0  0  0
   -2.7438   -1.9161   -0.1161 H   0  0  0  0  0  0  0  0  0  0  0  0
   -3.1095   -4.3084   -0.5569 H   0  0  0  0  0  0  0  0  0  0  0  0
   -0.3322   -4.1577   -3.8439 H   0  0  0  0  0  0  0  0  0  0  0  0
    0.0648   -1.7621   -3.4198 H   0  0  0  0  0  0  0  0  0  0  0  0
   -2.6329   -5.9561   -3.3949 H   0  0  0  0  0  0  0  0  0  0  0  0
   -2.4882   -6.3512   -1.6783 H   0  0  0  0  0  0  0  0  0  0  0  0
   -1.0563   -6.3784   -2.7122 H   0  0  0  0  0  0  0  0  0  0  0  0
  1  9  1  0  0  0  0
  2  1  1  0  0  0  0
  2  3  2  0  0  0  0
  3 26  1  0  0  0  0
  3  4  1  0  0  0  0
  4  5  1  0  0  0  0
  5  6  1  0  0  0  0
  5 27  1  0  0  0  0
  6 10  1  0  0  0  0
  7  6  2  0  0  0  0
  8  7  2  0  0  0  0
  9  8  1  0  0  0  0
  9  4  2  0  0  0  0
 10 12  1  0  0  0  0
 10 11  2  0  0  0  0
 12 13  1  0  0  0  0
 13 29  1  0  0  0  0
 13 14  1  0  0  0  0
 14 32  1  0  0  0  0
 15 16  2  0  0  0  0
 15  1  1  0  0  0  0
 17 15  2  0  0  0  0
 18 15  1  0  0  0  0
 18 19  2  0  0  0  0
 19 34  1  0  0  0  0
 20 19  1  0  0  0  0
 20 35  1  0  0  0  0
 21 20  2  0  0  0  0
 22 23  2  0  0  0  0
 22 21  1  0  0  0  0
 23 18  1  0  0  0  0
 24 21  1  0  0  0  0
 24 39  1  0  0  0  0
 25  2  1  0  0  0  0
 28  8  1  0  0  0  0
 30 13  1  0  0  0  0
 31 14  1  0  0  0  0
 33 14  1  0  0  0  0
 36 22  1  0  0  0  0
 37 23  1  0  0  0  0
 38 24  1  0  0  0  0
 40 24  1  0  0  0  0
M  RAD  1   5   2
M  END
$$$$
