
     RDKit          3D

 39 40  0  0  0  0  0  0  0  0999 V2000
    0.0953    0.0005    0.0747 C   0  0  0  0  0  0  0  0  0  0  0  0
    1.4614    0.3094    0.0997 C   0  0  0  0  0  0  0  0  0  0  0  0
    2.1654    0.3904    1.3048 C   0  0  0  0  0  0  0  0  0  0  0  0
    1.4825    0.1549    2.4935 C   0  0  0  0  0  0  0  0  0  0  0  0
    0.1229   -0.1536    2.5055 C   0  0  0  0  0  0  0  0  0  0  0  0
   -0.5646   -0.2286    1.2946 C   0  0  0  0  0  0  0  0  0  0  0  0
    2.1472    0.2291    3.6576 F   0  0  0  0  0  0  0  0  0  0  0  0
   -0.6514   -0.1230   -1.2397 C   0  0  0  0  0  0  0  0  0  0  0  0
   -0.9613   -1.4911   -1.6172 N   0  0  0  0  0  0  0  0  0  0  0  0
   -2.0993   -2.1467   -1.2063 C   0  0  0  0  0  0  0  0  0  0  0  0
   -3.0550   -1.4255   -0.6150 N   0  0  0  0  0  0  0  0  0  0  0  0
   -4.1954   -1.9975   -0.2040 C   0  0  0  0  0  0  0  0  0  0  0  0
   -4.4293   -3.3878   -0.3820 C   0  0  0  0  0  0  0  0  0  0  0  0
   -3.4314   -4.1273   -1.0231 C   0  0  0  0  0  0  0  0  0  0  0  0
   -2.2502   -3.5320   -1.4425 C   0  0  0  0  0  0  0  0  0  0  0  0
   -5.5620   -4.0671    0.1420 N   0  0  0  0  0  0  0  0  0  0  0  0
   -6.8684   -3.7114    0.0203 C   0  0  0  0  0  0  0  0  0  0  0  0
   -7.2875   -2.6795   -0.4772 O   0  0  0  0  0  0  0  0  0  0  0  0
   -7.6590   -4.6651    0.5613 O   0  0  0  0  0  0  0  0  0  0  0  0
   -9.0749   -4.4333    0.5079 C   0  0  0  0  0  0  0  0  0  0  0  0
   -9.6591   -4.8267   -0.8371 C   0  0  0  0  0  0  0  0  0  0  0  0
   -5.0981   -1.1884    0.4383 N   0  0  0  0  0  0  0  0  0  0  0  0
    1.9894    0.4960   -0.8398 H   0  0  0  0  0  0  0  0  0  0  0  0
    3.2291    0.6334    1.3354 H   0  0  0  0  0  0  0  0  0  0  0  0
   -0.3772   -0.3263    3.4603 H   0  0  0  0  0  0  0  0  0  0  0  0
   -1.6296   -0.4681    1.2824 H   0  0  0  0  0  0  0  0  0  0  0  0
   -0.0542    0.3327   -2.0455 H   0  0  0  0  0  0  0  0  0  0  0  0
   -1.6070    0.4143   -1.1841 H   0  0  0  0  0  0  0  0  0  0  0  0
   -0.1754   -2.0829   -1.8549 H   0  0  0  0  0  0  0  0  0  0  0  0
   -3.5892   -5.1977   -1.1820 H   0  0  0  0  0  0  0  0  0  0  0  0
   -1.4701   -4.1076   -1.9433 H   0  0  0  0  0  0  0  0  0  0  0  0
   -5.4019   -4.9703    0.5748 H   0  0  0  0  0  0  0  0  0  0  0  0
   -9.2716   -3.3730    0.7253 H   0  0  0  0  0  0  0  0  0  0  0  0
   -9.4870   -5.0482    1.3209 H   0  0  0  0  0  0  0  0  0  0  0  0
   -9.2558   -4.1846   -1.6335 H   0  0  0  0  0  0  0  0  0  0  0  0
  -10.7544   -4.7091   -0.8209 H   0  0  0  0  0  0  0  0  0  0  0  0
   -9.4279   -5.8771   -1.0731 H   0  0  0  0  0  0  0  0  0  0  0  0
   -4.8633   -0.2045    0.3581 H   0  0  0  0  0  0  0  0  0  0  0  0
   -6.0783   -1.4110    0.2561 H   0  0  0  0  0  0  0  0  0  0  0  0
  1  2  2  0
  1  6  1  0
  1  8  1  0
  2  3  1  0
  2 23  1  0
  3  4  2  0
  3 24  1  0
  4  5  1  0
  4  7  1  0
  5  6  2  0
  5 25  1  0
  6 26  1  0
  8  9  1  0
  8 27  1  0
  8 28  1  0
  9 10  1  0
  9 29  1  0
 10 11  2  0
 10 15  1  0
 11 12  1  0
 12 13  2  0
 12 22  1  0
 13 14  1  0
 13 16  1  0
 14 15  2  0
 14 30  1  0
 15 31  1  0
 16 17  1  0
 16 32  1  0
 17 18  2  0
 17 19  1  0
 19 20  1  0
 20 21  1  0
 20 33  1  0
 20 34  1  0
 21 35  1  0
 21 36  1  0
 21 37  1  0
 22 38  1  0
 22 39  1  0
M  END

