39

C          0.09530        0.00050        0.07470
C          1.46140        0.30940        0.09970
C          2.16540        0.39040        1.30480
C          1.48250        0.15490        2.49350
C          0.12290       -0.15360        2.50550
C         -0.56460       -0.22860        1.29460
F          2.14720        0.22910        3.65760
C         -0.65140       -0.12300       -1.23970
N         -0.96130       -1.49110       -1.61720
C         -2.09930       -2.14670       -1.20630
N         -3.05500       -1.42550       -0.61500
C         -4.19540       -1.99750       -0.20400
C         -4.42930       -3.38780       -0.38200
C         -3.43140       -4.12730       -1.02310
C         -2.25020       -3.53200       -1.44250
N         -5.56200       -4.06710        0.14200
C         -6.86840       -3.71140        0.02030
O         -7.28750       -2.67950       -0.47720
O         -7.65900       -4.66510        0.56130
C         -9.07490       -4.43330        0.50790
C         -9.65910       -4.82670       -0.83710
N         -5.09810       -1.18840        0.43830
H          1.98940        0.49600       -0.83980
H          3.22910        0.63340        1.33540
H         -0.37720       -0.32630        3.46030
H         -1.62960       -0.46810        1.28240
H         -0.05420        0.33270       -2.04550
H         -1.60700        0.41430       -1.18410
H         -0.17540       -2.08290       -1.85490
H         -3.58920       -5.19770       -1.18200
H         -1.47010       -4.10760       -1.94330
H         -5.40190       -4.97030        0.57480
H         -9.27160       -3.37300        0.72530
H         -9.48700       -5.04820        1.32090
H         -9.25580       -4.18460       -1.63350
H        -10.75440       -4.70910       -0.82090
H         -9.42790       -5.87710       -1.07310
H         -4.86330       -0.20450        0.35810
H         -6.07830       -1.41100        0.25610
