39

C         -0.00180        0.00430       -0.01960
C          1.39020        0.19950       -0.04230
C          2.13500        0.18330        1.13630
C          1.47920       -0.03210        2.34780
C          0.10390       -0.23160        2.40600
C         -0.62800       -0.20980        1.21480
F          2.19320       -0.04970        3.48440
C         -0.80660        0.06180       -1.30370
N         -0.90820        1.39300       -1.87630
C          0.01030        1.90410       -2.76470
N          0.91280        1.06600       -3.28120
C          1.78750        1.48200       -4.20790
C          1.80940        2.83280       -4.64830
C          0.89120        3.71060       -4.06560
C         -0.02820        3.27050       -3.12400
N          2.64610        3.30220       -5.69620
C          3.98500        3.11050       -5.83280
O          4.68570        2.40980       -5.12140
O          4.44360        3.80310       -6.89940
C          5.83240        3.64010       -7.22480
C          6.07210        2.38900       -8.05090
N          2.63950        0.54030       -4.72640
H          1.88520        0.36400       -1.00130
H          3.21650        0.33130        1.13320
H         -0.37410       -0.40010        3.37270
H         -1.70980       -0.36710        1.25070
H         -1.82410       -0.31750       -1.11680
H         -0.34600       -0.57630       -2.06890
H         -1.42210        2.07730       -1.33570
H          0.89630        4.75970       -4.37440
H         -0.75730        3.95050       -2.68040
H          2.23240        3.93540       -6.37190
H          6.41730        3.61430       -6.29360
H          6.09370        4.54820       -7.78690
H          5.83280        1.48900       -7.46600
H          7.13080        2.33200       -8.35030
H          5.45450        2.39590       -8.96240
H          2.59280       -0.34390       -4.23120
H          3.58330        0.87700       -4.92440
