39
rmsd221.gzmat
C          0.00000        0.00000        0.00000
C          1.39720        0.00000        0.00000
C          2.10010        0.00000        1.20090
C          1.36730       -0.00340        2.38740
C         -0.02590       -0.00850        2.41850
C         -0.70650       -0.00500        1.20330
F          2.02470       -0.00310        3.53750
C         -0.74210        0.02680       -1.31030
N         -0.81170        1.39140       -1.85570
C          0.17640        1.85380       -2.71270
N          1.03810        0.94670       -3.23600
C          1.90680        1.34480       -4.20860
C          1.96720        2.70310       -4.64890
C          1.11880        3.62940       -4.03150
C          0.21320        3.22880       -3.06570
N          2.78430        3.14920       -5.72220
C          4.14200        2.92440       -5.76180
O          4.76780        2.09670       -5.13000
O          4.69540        3.75530       -6.69410
C          6.10160        3.59640       -6.91550
C          6.88280        4.20210       -5.76400
N          2.66860        0.32790       -4.74250
H          1.93720        0.00630       -0.95170
H          3.18820        0.00360        1.21000
H         -0.56860       -0.01590        3.36120
H         -1.79570       -0.00740        1.19930
H         -1.79000       -0.33960       -1.19810
H         -0.25970       -0.65760       -2.05510
H         -1.22750        2.07290       -1.23150
H          1.16680        4.68150       -4.32210
H         -0.45690        3.93680       -2.59840
H          2.39230        3.88290       -6.30620
H          6.22200        4.15590       -7.86310
H          6.33380        2.52750       -7.06960
H          6.57200        5.23470       -5.56400
H          7.95920        4.20650       -5.96730
H          6.72510        3.62880       -4.83640
H          2.61570       -0.57390       -4.29930
H          3.56910        0.57360       -5.12700
