39
rmsd103.gzmat
C          0.00000        0.00000        0.00000
C          1.39730        0.00000        0.00000
C          2.10050        0.00000        1.20050
C          1.36680       -0.00300        2.38660
C         -0.02660       -0.00190        2.41800
C         -0.70720        0.00090        1.20270
F          2.02340       -0.00810        3.53730
C         -0.73880        0.01120       -1.31220
N         -0.84840        1.37190       -1.85900
C          0.12010        1.86850       -2.71840
N          1.04090        1.00430       -3.21350
C          1.88730        1.43210       -4.19360
C          1.85640        2.77610       -4.67900
C          0.95230        3.66410       -4.08470
C          0.07480        3.23400       -3.10600
N          2.62940        3.23640       -5.77900
C          3.99730        3.09980       -5.84080
O          4.69290        2.35240       -5.18220
O          4.47880        3.93160       -6.81300
C          5.84540        3.72340       -7.18820
C          5.94830        2.52450       -8.11430
N          2.72510        0.45690       -4.69090
H          1.93660        0.00580       -0.95250
H          3.18910        0.00180        1.20850
H         -0.56910       -0.00530        3.36090
H         -1.79660        0.00050        1.19850
H         -1.77650       -0.38460       -1.20280
H         -0.23560       -0.65840       -2.05630
H         -1.29460        2.03980       -1.24140
H          0.93230        4.70840       -4.40540
H         -0.63800        3.91140       -2.65690
H          2.17720        3.91250       -6.38870
H          6.46980        3.61550       -6.28190
H          6.06940        4.68150       -7.69540
H          5.69210        1.59410       -7.58760
H          6.96430        2.40900       -8.50790
H          5.26510        2.61550       -8.96800
H          2.73780       -0.43080       -4.21770
H          3.60720        0.75740       -5.07960
