rmsd119.gzmat
 OpenBabel08211713373D

 39 40  0  0  1  0  0  0  0  0999 V2000
    0.0000    0.0000    0.0000 C   0  0  0  0  0  0  0  0  0  0  0  0
    1.3972    0.0000    0.0000 C   0  0  0  0  0  0  0  0  0  0  0  0
    2.1004    0.0000    1.2004 C   0  0  0  0  0  0  0  0  0  0  0  0
    1.3678    0.0077    2.3871 C   0  0  0  0  0  0  0  0  0  0  0  0
   -0.0254    0.0142    2.4189 C   0  0  0  0  0  0  0  0  0  0  0  0
   -0.7061    0.0097    1.2035 C   0  0  0  0  0  0  0  0  0  0  0  0
    2.0261    0.0080    3.5367 F   0  0  0  0  0  0  0  0  0  0  0  0
   -0.7410   -0.0233   -1.3111 C   0  0  0  0  0  0  0  0  0  0  0  0
   -0.7639   -1.3747   -1.8915 N   0  0  0  0  0  0  0  0  0  0  0  0
    0.2573   -1.7909   -2.7335 C   0  0  0  0  0  0  0  0  0  0  0  0
    1.0911   -0.8434   -3.2306 N   0  0  0  0  0  0  0  0  0  0  0  0
    2.0375   -1.2077   -4.1404 C   0  0  0  0  0  0  0  0  0  0  0  0
    2.1793   -2.5614   -4.5743 C   0  0  2  0  0  0  0  0  0  0  0  0
    1.2965   -3.5130   -4.0510 C   0  0  0  0  0  0  0  0  0  0  0  0
    0.3372   -3.1540   -3.1215 C   0  0  0  0  0  0  0  0  0  0  0  0
    3.2074   -2.9963   -5.4541 N   0  0  0  0  0  0  0  0  0  0  0  0
    3.3846   -2.4330   -6.6993 C   0  0  0  0  0  0  0  0  0  0  0  0
    2.9800   -1.3516   -7.0761 O   0  0  0  0  0  0  0  0  0  0  0  0
    4.1421   -3.2759   -7.4618 O   0  0  0  0  0  0  0  0  0  0  0  0
    4.5714   -2.7529   -8.7243 C   0  0  0  0  0  0  0  0  0  0  0  0
    5.7084   -1.7677   -8.5230 C   0  0  0  0  0  0  0  0  0  0  0  0
    2.8727   -0.1821   -4.5388 N   0  0  0  0  0  0  0  0  0  0  0  0
    1.9381   -0.0066   -0.9524 H   0  0  0  0  0  0  0  0  0  0  0  0
    3.1886   -0.0044    1.2086 H   0  0  0  0  0  0  0  0  0  0  0  0
   -0.5684    0.0236    3.3614 H   0  0  0  0  0  0  0  0  0  0  0  0
   -1.7955    0.0161    1.1997 H   0  0  0  0  0  0  0  0  0  0  0  0
   -0.2808    0.6951   -2.0381 H   0  0  0  0  0  0  0  0  0  0  0  0
   -1.8010    0.3042   -1.1920 H   0  0  0  0  0  0  0  0  0  0  0  0
   -1.1804   -2.0817   -1.2976 H   0  0  0  0  0  0  0  0  0  0  0  0
    1.3698   -4.5533   -4.3764 H   0  0  0  0  0  0  0  0  0  0  0  0
   -0.3466   -3.8847   -2.7121 H   0  0  0  0  0  0  0  0  0  0  0  0
    3.5924   -3.9187   -5.2727 H   0  0  0  0  0  0  0  0  0  0  0  0
    3.7082   -2.3043   -9.2501 H   0  0  0  0  0  0  0  0  0  0  0  0
    4.8897   -3.6828   -9.2334 H   0  0  0  0  0  0  0  0  0  0  0  0
    5.3544   -0.8477   -8.0350 H   0  0  0  0  0  0  0  0  0  0  0  0
    6.1611   -1.4785   -9.4781 H   0  0  0  0  0  0  0  0  0  0  0  0
    6.4984   -2.1895   -7.8890 H   0  0  0  0  0  0  0  0  0  0  0  0
    2.6117    0.7531   -4.2707 H   0  0  0  0  0  0  0  0  0  0  0  0
    3.2875   -0.2644   -5.4550 H   0  0  0  0  0  0  0  0  0  0  0  0
  1  6  1  0  0  0  0
  2  1  2  0  0  0  0
  2  3  1  0  0  0  0
  3 24  1  0  0  0  0
  3  4  2  0  0  0  0
  4  5  1  0  0  0  0
  4  7  1  0  0  0  0
  5 25  1  0  0  0  0
  6  5  2  0  0  0  0
  8 28  1  0  0  0  0
  8  1  1  0  0  0  0
  9  8  1  0  0  0  0
  9 29  1  0  0  0  0
 10  9  1  0  0  0  0
 11 10  2  0  0  0  0
 12 11  2  0  0  0  0
 13 16  1  1  0  0  0
 13 12  1  0  0  0  0
 13 14  1  0  0  0  0
 14 15  2  0  0  0  0
 15 10  1  0  0  0  0
 15 31  1  0  0  0  0
 16 32  1  0  0  0  0
 17 16  1  0  0  0  0
 18 17  2  0  0  0  0
 19 17  1  0  0  0  0
 20 21  1  0  0  0  0
 20 19  1  0  0  0  0
 21 35  1  0  0  0  0
 21 37  1  0  0  0  0
 22 38  1  0  0  0  0
 22 12  1  0  0  0  0
 23  2  1  0  0  0  0
 26  6  1  0  0  0  0
 27  8  1  0  0  0  0
 30 14  1  0  0  0  0
 33 20  1  0  0  0  0
 34 20  1  0  0  0  0
 36 21  1  0  0  0  0
 39 22  1  0  0  0  0
M  RAD  1  13   2
M  END
$$$$
