rmsd185.gzmat
 OpenBabel08211713373D

 39 40  0  0  1  0  0  0  0  0999 V2000
    0.0000    0.0000    0.0000 C   0  0  0  0  0  0  0  0  0  0  0  0
    1.3952    0.0000    0.0000 C   0  0  0  0  0  0  0  0  0  0  0  0
    2.0984    0.0000    1.2024 C   0  0  0  0  0  0  0  0  0  0  0  0
    1.3658   -0.0019    2.3881 C   0  0  0  0  0  0  0  0  0  0  0  0
   -0.0283   -0.0010    2.4195 C   0  0  0  0  0  0  0  0  0  0  0  0
   -0.7071    0.0009    1.2049 C   0  0  0  0  0  0  0  0  0  0  0  0
    2.0248   -0.0050    3.5375 F   0  0  0  0  0  0  0  0  0  0  0  0
   -0.7553   -0.0369   -1.3030 C   0  0  0  0  0  0  0  0  0  0  0  0
   -1.0438   -1.4220   -1.7102 N   0  0  0  0  0  0  0  0  0  0  0  0
   -2.1386   -2.0824   -1.1652 C   0  0  0  0  0  0  0  0  0  0  0  0
   -3.0942   -1.3287   -0.5674 N   0  0  0  0  0  0  0  0  0  0  0  0
   -4.2129   -1.9389   -0.0853 C   0  0  0  0  0  0  0  0  0  0  0  0
   -4.3934   -3.3531   -0.1773 C   0  0  1  0  0  0  0  0  0  0  0  0
   -3.4062   -4.0978   -0.8326 C   0  0  0  0  0  0  0  0  0  0  0  0
   -2.2688   -3.4858   -1.3282 C   0  0  0  0  0  0  0  0  0  0  0  0
   -5.4809   -4.0453    0.4199 N   0  0  0  0  0  0  0  0  0  0  0  0
   -6.7914   -3.7176    0.1569 C   0  0  0  0  0  0  0  0  0  0  0  0
   -7.2018   -2.6837   -0.3321 O   0  0  0  0  0  0  0  0  0  0  0  0
   -7.5975   -4.7300    0.5951 O   0  0  0  0  0  0  0  0  0  0  0  0
   -9.0049   -4.5115    0.4368 C   0  0  0  0  0  0  0  0  0  0  0  0
   -9.4048   -4.7633   -1.0052 C   0  0  0  0  0  0  0  0  0  0  0  0
   -5.0958   -1.0875    0.5499 N   0  0  0  0  0  0  0  0  0  0  0  0
    1.9425    0.0013   -0.9416 H   0  0  0  0  0  0  0  0  0  0  0  0
    3.1860    0.0016    1.2115 H   0  0  0  0  0  0  0  0  0  0  0  0
   -0.5731   -0.0042    3.3617 H   0  0  0  0  0  0  0  0  0  0  0  0
   -1.8022   -0.0118    1.1898 H   0  0  0  0  0  0  0  0  0  0  0  0
   -0.1777    0.4425   -2.1274 H   0  0  0  0  0  0  0  0  0  0  0  0
   -1.7145    0.5367   -1.2275 H   0  0  0  0  0  0  0  0  0  0  0  0
   -0.2201   -1.9873   -1.8828 H   0  0  0  0  0  0  0  0  0  0  0  0
   -3.5308   -5.1773   -0.9462 H   0  0  0  0  0  0  0  0  0  0  0  0
   -1.5025   -4.0553   -1.8356 H   0  0  0  0  0  0  0  0  0  0  0  0
   -5.2689   -4.9516    0.8259 H   0  0  0  0  0  0  0  0  0  0  0  0
   -9.2659   -3.4935    0.7778 H   0  0  0  0  0  0  0  0  0  0  0  0
   -9.4122   -5.2654    1.1375 H   0  0  0  0  0  0  0  0  0  0  0  0
   -8.9092   -4.0499   -1.6825 H   0  0  0  0  0  0  0  0  0  0  0  0
  -10.4848   -4.6502   -1.1469 H   0  0  0  0  0  0  0  0  0  0  0  0
   -9.1231   -5.7707   -1.3336 H   0  0  0  0  0  0  0  0  0  0  0  0
   -4.9304   -0.0989    0.4507 H   0  0  0  0  0  0  0  0  0  0  0  0
   -6.0685   -1.3587    0.5568 H   0  0  0  0  0  0  0  0  0  0  0  0
  1  2  2  0  0  0  0
  1  6  1  0  0  0  0
  2  3  1  0  0  0  0
  3 24  1  0  0  0  0
  3  4  2  0  0  0  0
  4  5  1  0  0  0  0
  4  7  1  0  0  0  0
  5 25  1  0  0  0  0
  6  5  2  0  0  0  0
  8 28  1  0  0  0  0
  8  1  1  0  0  0  0
  9  8  1  0  0  0  0
  9 10  1  0  0  0  0
 10 11  2  0  0  0  0
 11 12  2  0  0  0  0
 12 22  1  0  0  0  0
 13 12  1  0  0  0  0
 13 16  1  1  0  0  0
 14 13  1  0  0  0  0
 15 10  1  0  0  0  0
 15 14  2  0  0  0  0
 16 32  1  0  0  0  0
 17 16  1  0  0  0  0
 17 19  1  0  0  0  0
 18 17  2  0  0  0  0
 20 19  1  0  0  0  0
 20 33  1  0  0  0  0
 20 34  1  0  0  0  0
 21 20  1  0  0  0  0
 22 39  1  0  0  0  0
 23  2  1  0  0  0  0
 26  6  1  0  0  0  0
 27  8  1  0  0  0  0
 29  9  1  0  0  0  0
 30 14  1  0  0  0  0
 31 15  1  0  0  0  0
 35 21  1  0  0  0  0
 36 21  1  0  0  0  0
 37 21  1  0  0  0  0
 38 22  1  0  0  0  0
M  RAD  1  13   2
M  END
$$$$
