
     RDKit          3D

 39 40  0  0  0  0  0  0  0  0999 V2000
   -0.0903    0.0466    0.0459 C   0  0  0  0  0  0  0  0  0  0  0  0
    1.3037   -0.1001    0.1534 C   0  0  0  0  0  0  0  0  0  0  0  0
    1.9393   -0.0148    1.3916 C   0  0  0  0  0  0  0  0  0  0  0  0
    1.1714    0.2212    2.5311 C   0  0  0  0  0  0  0  0  0  0  0  0
   -0.2093    0.3739    2.4602 C   0  0  0  0  0  0  0  0  0  0  0  0
   -0.8308    0.2831    1.2110 C   0  0  0  0  0  0  0  0  0  0  0  0
    1.7801    0.3052    3.7247 F   0  0  0  0  0  0  0  0  0  0  0  0
   -0.7752   -0.0862   -1.3007 C   0  0  0  0  0  0  0  0  0  0  0  0
   -0.7876   -1.4411   -1.8244 N   0  0  0  0  0  0  0  0  0  0  0  0
    0.2215   -1.9576   -2.6047 C   0  0  0  0  0  0  0  0  0  0  0  0
    1.1436   -1.1124   -3.0727 N   0  0  0  0  0  0  0  0  0  0  0  0
    2.1101   -1.5368   -3.8994 C   0  0  0  0  0  0  0  0  0  0  0  0
    2.2090   -2.9025   -4.2791 C   0  0  0  0  0  0  0  0  0  0  0  0
    1.2661   -3.7851   -3.7451 C   0  0  0  0  0  0  0  0  0  0  0  0
    0.2532   -3.3376   -2.9087 C   0  0  0  0  0  0  0  0  0  0  0  0
    3.1507   -3.3870   -5.2263 N   0  0  0  0  0  0  0  0  0  0  0  0
    4.4906   -3.1595   -5.2480 C   0  0  0  0  0  0  0  0  0  0  0  0
    5.1029   -2.4109   -4.5044 O   0  0  0  0  0  0  0  0  0  0  0  0
    5.0643   -3.8710   -6.2440 O   0  0  0  0  0  0  0  0  0  0  0  0
    6.4859   -3.7372   -6.3940 C   0  0  0  0  0  0  0  0  0  0  0  0
    7.2406   -4.6336   -5.4285 C   0  0  0  0  0  0  0  0  0  0  0  0
    2.9782   -0.5898   -4.3787 N   0  0  0  0  0  0  0  0  0  0  0  0
    1.8872   -0.2820   -0.7510 H   0  0  0  0  0  0  0  0  0  0  0  0
    3.0210   -0.1245    1.4896 H   0  0  0  0  0  0  0  0  0  0  0  0
   -0.7768    0.5605    3.3736 H   0  0  0  0  0  0  0  0  0  0  0  0
   -1.9159    0.4035    1.1452 H   0  0  0  0  0  0  0  0  0  0  0  0
   -0.2662    0.5362   -2.0480 H   0  0  0  0  0  0  0  0  0  0  0  0
   -1.8156    0.2674   -1.2201 H   0  0  0  0  0  0  0  0  0  0  0  0
   -1.3295   -2.1196   -1.3041 H   0  0  0  0  0  0  0  0  0  0  0  0
    1.3282   -4.8447   -4.0084 H   0  0  0  0  0  0  0  0  0  0  0  0
   -0.4943   -4.0220   -2.5044 H   0  0  0  0  0  0  0  0  0  0  0  0
    2.8166   -4.0521   -5.9153 H   0  0  0  0  0  0  0  0  0  0  0  0
    6.7627   -2.6827   -6.2472 H   0  0  0  0  0  0  0  0  0  0  0  0
    6.6815   -4.0168   -7.4391 H   0  0  0  0  0  0  0  0  0  0  0  0
    7.0541   -4.3228   -4.3904 H   0  0  0  0  0  0  0  0  0  0  0  0
    8.3234   -4.5656   -5.6195 H   0  0  0  0  0  0  0  0  0  0  0  0
    6.9341   -5.6844   -5.5478 H   0  0  0  0  0  0  0  0  0  0  0  0
    2.8632    0.3118   -3.9281 H   0  0  0  0  0  0  0  0  0  0  0  0
    3.9445   -0.9033   -4.4836 H   0  0  0  0  0  0  0  0  0  0  0  0
  1  2  2  0
  1  6  1  0
  1  8  1  0
  2  3  1  0
  2 23  1  0
  3  4  2  0
  3 24  1  0
  4  5  1  0
  4  7  1  0
  5  6  2  0
  5 25  1  0
  6 26  1  0
  8  9  1  0
  8 27  1  0
  8 28  1  0
  9 10  1  0
  9 29  1  0
 10 11  2  0
 10 15  1  0
 11 12  1  0
 12 13  2  0
 12 22  1  0
 13 14  1  0
 13 16  1  0
 14 15  2  0
 14 30  1  0
 15 31  1  0
 16 17  1  0
 16 32  1  0
 17 18  2  0
 17 19  1  0
 19 20  1  0
 20 21  1  0
 20 33  1  0
 20 34  1  0
 21 35  1  0
 21 36  1  0
 21 37  1  0
 22 38  1  0
 22 39  1  0
M  END

