39

C         -0.07010       -0.02240        0.00090
C          1.33020        0.10200        0.01540
C          2.04230        0.04060        1.21260
C          1.34510       -0.14870        2.40520
C         -0.03960       -0.27840        2.42660
C         -0.73820       -0.21210        1.21720
F          2.02750       -0.20970        3.55960
C         -0.83730        0.08390       -1.30290
N         -0.85960        1.42280       -1.86600
C          0.10590        1.89620       -2.72490
N          0.98070        1.01960       -3.22500
C          1.89910        1.40040       -4.12440
C          1.99780        2.75220       -4.55100
C          1.10700        3.66850       -3.98500
C          0.14240        3.26570       -3.07240
N          2.88540        3.19030       -5.57030
C          4.21700        2.93620       -5.66980
O          4.86190        2.19720       -4.94450
O          4.73860        3.60780       -6.72060
C          6.14530        3.44260       -6.95550
C          6.97490        4.35090       -6.06560
N          2.71750        0.42280       -4.62920
H          1.85760        0.24720       -0.92930
H          3.12960        0.13350        1.23840
H         -0.55040       -0.42850        3.37930
H         -1.82710       -0.31470        1.22410
H         -1.87640       -0.24710       -1.14570
H         -0.38800       -0.56990       -2.06160
H         -1.35470        2.12680       -1.33310
H          1.17090        4.71850       -4.28380
H         -0.56520        3.97630       -2.64220
H          2.51990        3.84200       -6.25620
H          6.27930        3.68930       -8.01850
H          6.41250        2.38750       -6.79590
H          6.68000        5.40370       -6.19600
H          8.04220        4.25660       -6.32180
H          6.84880        4.07280       -5.00920
H          2.61570       -0.46280       -4.14490
H          3.68050        0.71390       -4.80510
