rmsd123.gzmat
 OpenBabel08211713373D

 39 40  0  0  1  0  0  0  0  0999 V2000
    0.0000    0.0000    0.0000 C   0  0  0  0  0  0  0  0  0  0  0  0
    1.3974    0.0000    0.0000 C   0  0  0  0  0  0  0  0  0  0  0  0
    2.1018    0.0000    1.1997 C   0  0  0  0  0  0  0  0  0  0  0  0
    1.3691    0.0047    2.3865 C   0  0  0  0  0  0  0  0  0  0  0  0
   -0.0243    0.0121    2.4189 C   0  0  0  0  0  0  0  0  0  0  0  0
   -0.7061    0.0087    1.2040 C   0  0  0  0  0  0  0  0  0  0  0  0
    2.0273    0.0007    3.5362 F   0  0  0  0  0  0  0  0  0  0  0  0
   -0.7404   -0.0316   -1.3114 C   0  0  0  0  0  0  0  0  0  0  0  0
   -0.8155   -1.3976   -1.8530 N   0  0  0  0  0  0  0  0  0  0  0  0
    0.2211   -1.8940   -2.6319 C   0  0  0  0  0  0  0  0  0  0  0  0
    1.1181   -1.0063   -3.1285 N   0  0  0  0  0  0  0  0  0  0  0  0
    2.0990   -1.4526   -3.9620 C   0  0  0  0  0  0  0  0  0  0  0  0
    2.2123   -2.8323   -4.3153 C   0  0  2  0  0  0  0  0  0  0  0  0
    1.2543   -3.7182   -3.8088 C   0  0  0  0  0  0  0  0  0  0  0  0
    0.2572   -3.2744   -2.9588 C   0  0  0  0  0  0  0  0  0  0  0  0
    3.2839   -3.3587   -5.0848 N   0  0  0  0  0  0  0  0  0  0  0  0
    3.6214   -2.8584   -6.3219 C   0  0  0  0  0  0  0  0  0  0  0  0
    3.2937   -1.7885   -6.7951 O   0  0  0  0  0  0  0  0  0  0  0  0
    4.4413   -3.7535   -6.9494 O   0  0  0  0  0  0  0  0  0  0  0  0
    5.0904   -3.2738   -8.1327 C   0  0  0  0  0  0  0  0  0  0  0  0
    6.2151   -2.3237   -7.7614 C   0  0  0  0  0  0  0  0  0  0  0  0
    2.9946   -0.4784   -4.3594 N   0  0  0  0  0  0  0  0  0  0  0  0
    1.9376   -0.0086   -0.9529 H   0  0  0  0  0  0  0  0  0  0  0  0
    3.1904   -0.0046    1.2060 H   0  0  0  0  0  0  0  0  0  0  0  0
   -0.5671    0.0187    3.3617 H   0  0  0  0  0  0  0  0  0  0  0  0
   -1.7954    0.0139    1.1998 H   0  0  0  0  0  0  0  0  0  0  0  0
   -0.2514    0.6443   -2.0596 H   0  0  0  0  0  0  0  0  0  0  0  0
   -1.7862    0.3409   -1.2033 H   0  0  0  0  0  0  0  0  0  0  0  0
   -1.2872   -2.0631   -1.2517 H   0  0  0  0  0  0  0  0  0  0  0  0
    1.2989   -4.7754   -4.0808 H   0  0  0  0  0  0  0  0  0  0  0  0
   -0.4846   -3.9540   -2.5624 H   0  0  0  0  0  0  0  0  0  0  0  0
    3.6161   -4.2816   -4.8198 H   0  0  0  0  0  0  0  0  0  0  0  0
    4.3423   -2.8072   -8.8000 H   0  0  0  0  0  0  0  0  0  0  0  0
    5.4531   -4.2252   -8.5671 H   0  0  0  0  0  0  0  0  0  0  0  0
    5.8216   -1.3536   -7.4246 H   0  0  0  0  0  0  0  0  0  0  0  0
    6.8768   -2.1329   -8.6137 H   0  0  0  0  0  0  0  0  0  0  0  0
    6.8270   -2.7273   -6.9443 H   0  0  0  0  0  0  0  0  0  0  0  0
    2.7553    0.4771   -4.1476 H   0  0  0  0  0  0  0  0  0  0  0  0
    3.4528   -0.6152   -5.2487 H   0  0  0  0  0  0  0  0  0  0  0  0
  1  6  1  0  0  0  0
  2  1  2  0  0  0  0
  2  3  1  0  0  0  0
  3 24  1  0  0  0  0
  3  4  2  0  0  0  0
  4  5  1  0  0  0  0
  4  7  1  0  0  0  0
  5 25  1  0  0  0  0
  6  5  2  0  0  0  0
  8 28  1  0  0  0  0
  8  1  1  0  0  0  0
  9  8  1  0  0  0  0
  9 29  1  0  0  0  0
 10  9  1  0  0  0  0
 11 10  2  0  0  0  0
 12 11  2  0  0  0  0
 13 16  1  1  0  0  0
 13 12  1  0  0  0  0
 13 14  1  0  0  0  0
 14 15  2  0  0  0  0
 15 10  1  0  0  0  0
 15 31  1  0  0  0  0
 16 32  1  0  0  0  0
 17 16  1  0  0  0  0
 18 17  2  0  0  0  0
 19 17  1  0  0  0  0
 20 21  1  0  0  0  0
 20 19  1  0  0  0  0
 21 35  1  0  0  0  0
 21 37  1  0  0  0  0
 22 38  1  0  0  0  0
 22 12  1  0  0  0  0
 23  2  1  0  0  0  0
 26  6  1  0  0  0  0
 27  8  1  0  0  0  0
 30 14  1  0  0  0  0
 33 20  1  0  0  0  0
 34 20  1  0  0  0  0
 36 21  1  0  0  0  0
 39 22  1  0  0  0  0
M  RAD  1  13   2
M  END
$$$$
