rmsd207.gzmat
 OpenBabel08211713373D

 39 40  0  0  1  0  0  0  0  0999 V2000
    0.0000    0.0000    0.0000 C   0  0  0  0  0  0  0  0  0  0  0  0
    1.3974    0.0000    0.0000 C   0  0  0  0  0  0  0  0  0  0  0  0
    2.1018    0.0000    1.1997 C   0  0  0  0  0  0  0  0  0  0  0  0
    1.3701    0.0114    2.3868 C   0  0  0  0  0  0  0  0  0  0  0  0
   -0.0230    0.0241    2.4192 C   0  0  0  0  0  0  0  0  0  0  0  0
   -0.7048    0.0163    1.2044 C   0  0  0  0  0  0  0  0  0  0  0  0
    2.0276    0.0099    3.5368 F   0  0  0  0  0  0  0  0  0  0  0  0
   -0.7416   -0.0476   -1.3105 C   0  0  0  0  0  0  0  0  0  0  0  0
   -0.7711   -1.4144   -1.8564 N   0  0  0  0  0  0  0  0  0  0  0  0
    0.2717   -1.8649   -2.6547 C   0  0  0  0  0  0  0  0  0  0  0  0
    1.1281   -0.9400   -3.1554 N   0  0  0  0  0  0  0  0  0  0  0  0
    2.0776   -1.3326   -4.0507 C   0  0  0  0  0  0  0  0  0  0  0  0
    2.2322   -2.7030   -4.4256 C   0  0  1  0  0  0  0  0  0  0  0  0
    1.3681   -3.6402   -3.8483 C   0  0  0  0  0  0  0  0  0  0  0  0
    0.3755   -3.2443   -2.9696 C   0  0  0  0  0  0  0  0  0  0  0  0
    3.1691   -3.1504   -5.3961 N   0  0  0  0  0  0  0  0  0  0  0  0
    4.5122   -2.8591   -5.3082 C   0  0  0  0  0  0  0  0  0  0  0  0
    5.0293   -1.9724   -4.6585 O   0  0  0  0  0  0  0  0  0  0  0  0
    5.2042   -3.7162   -6.1160 O   0  0  0  0  0  0  0  0  0  0  0  0
    6.5817   -3.3864   -6.3316 C   0  0  0  0  0  0  0  0  0  0  0  0
    6.6878   -2.2661   -7.3508 C   0  0  0  0  0  0  0  0  0  0  0  0
    2.8236   -0.2994   -4.5779 N   0  0  0  0  0  0  0  0  0  0  0  0
    1.9376   -0.0076   -0.9524 H   0  0  0  0  0  0  0  0  0  0  0  0
    3.1903   -0.0127    1.2060 H   0  0  0  0  0  0  0  0  0  0  0  0
   -0.5647    0.0359    3.3624 H   0  0  0  0  0  0  0  0  0  0  0  0
   -1.7937    0.0239    1.2016 H   0  0  0  0  0  0  0  0  0  0  0  0
   -0.2768    0.6480   -2.0559 H   0  0  0  0  0  0  0  0  0  0  0  0
   -1.7994    0.2882   -1.1996 H   0  0  0  0  0  0  0  0  0  0  0  0
   -1.2006   -2.0997   -1.2450 H   0  0  0  0  0  0  0  0  0  0  0  0
    1.4754   -4.6985   -4.0973 H   0  0  0  0  0  0  0  0  0  0  0  0
   -0.3060   -3.9625   -2.5355 H   0  0  0  0  0  0  0  0  0  0  0  0
    2.8746   -3.9314   -5.9758 H   0  0  0  0  0  0  0  0  0  0  0  0
    6.9695   -4.3521   -6.7082 H   0  0  0  0  0  0  0  0  0  0  0  0
    7.0596   -3.1316   -5.3673 H   0  0  0  0  0  0  0  0  0  0  0  0
    6.1237   -2.4984   -8.2630 H   0  0  0  0  0  0  0  0  0  0  0  0
    7.7296   -2.0828   -7.6376 H   0  0  0  0  0  0  0  0  0  0  0  0
    6.2860   -1.3252   -6.9480 H   0  0  0  0  0  0  0  0  0  0  0  0
    2.6970    0.6147   -4.1752 H   0  0  0  0  0  0  0  0  0  0  0  0
    3.7621   -0.5139   -4.8802 H   0  0  0  0  0  0  0  0  0  0  0  0
  1  6  1  0  0  0  0
  2  1  2  0  0  0  0
  2  3  1  0  0  0  0
  3 24  1  0  0  0  0
  3  4  2  0  0  0  0
  4  5  1  0  0  0  0
  4  7  1  0  0  0  0
  5 25  1  0  0  0  0
  6  5  2  0  0  0  0
  8 28  1  0  0  0  0
  8  1  1  0  0  0  0
  9  8  1  0  0  0  0
  9 29  1  0  0  0  0
 10  9  1  0  0  0  0
 11 10  2  0  0  0  0
 12 11  2  0  0  0  0
 13 16  1  6  0  0  0
 13 12  1  0  0  0  0
 13 14  1  0  0  0  0
 14 15  2  0  0  0  0
 15 10  1  0  0  0  0
 15 31  1  0  0  0  0
 16 17  1  0  0  0  0
 17 18  2  0  0  0  0
 19 17  1  0  0  0  0
 20 19  1  0  0  0  0
 20 34  1  0  0  0  0
 21 37  1  0  0  0  0
 21 20  1  0  0  0  0
 22 38  1  0  0  0  0
 22 12  1  0  0  0  0
 23  2  1  0  0  0  0
 26  6  1  0  0  0  0
 27  8  1  0  0  0  0
 30 14  1  0  0  0  0
 32 16  1  0  0  0  0
 33 20  1  0  0  0  0
 35 21  1  0  0  0  0
 36 21  1  0  0  0  0
 39 22  1  0  0  0  0
M  RAD  1  13   2
M  END
$$$$
