rmsd103.gzmat
 OpenBabel08211713373D

 39 40  0  0  1  0  0  0  0  0999 V2000
    0.0000    0.0000    0.0000 C   0  0  0  0  0  0  0  0  0  0  0  0
    1.3973    0.0000    0.0000 C   0  0  0  0  0  0  0  0  0  0  0  0
    2.1005    0.0000    1.2005 C   0  0  0  0  0  0  0  0  0  0  0  0
    1.3668   -0.0030    2.3866 C   0  0  0  0  0  0  0  0  0  0  0  0
   -0.0266   -0.0019    2.4180 C   0  0  0  0  0  0  0  0  0  0  0  0
   -0.7072    0.0009    1.2027 C   0  0  0  0  0  0  0  0  0  0  0  0
    2.0234   -0.0081    3.5373 F   0  0  0  0  0  0  0  0  0  0  0  0
   -0.7388    0.0112   -1.3122 C   0  0  0  0  0  0  0  0  0  0  0  0
   -0.8484    1.3719   -1.8590 N   0  0  0  0  0  0  0  0  0  0  0  0
    0.1201    1.8685   -2.7184 C   0  0  0  0  0  0  0  0  0  0  0  0
    1.0409    1.0043   -3.2135 N   0  0  0  0  0  0  0  0  0  0  0  0
    1.8873    1.4321   -4.1936 C   0  0  0  0  0  0  0  0  0  0  0  0
    1.8564    2.7761   -4.6790 C   0  0  2  0  0  0  0  0  0  0  0  0
    0.9523    3.6641   -4.0847 C   0  0  0  0  0  0  0  0  0  0  0  0
    0.0748    3.2340   -3.1060 C   0  0  0  0  0  0  0  0  0  0  0  0
    2.6294    3.2364   -5.7790 N   0  0  0  0  0  0  0  0  0  0  0  0
    3.9973    3.0998   -5.8408 C   0  0  0  0  0  0  0  0  0  0  0  0
    4.6929    2.3524   -5.1822 O   0  0  0  0  0  0  0  0  0  0  0  0
    4.4788    3.9316   -6.8130 O   0  0  0  0  0  0  0  0  0  0  0  0
    5.8454    3.7234   -7.1882 C   0  0  0  0  0  0  0  0  0  0  0  0
    5.9483    2.5245   -8.1143 C   0  0  0  0  0  0  0  0  0  0  0  0
    2.7251    0.4569   -4.6909 N   0  0  0  0  0  0  0  0  0  0  0  0
    1.9366    0.0058   -0.9525 H   0  0  0  0  0  0  0  0  0  0  0  0
    3.1891    0.0018    1.2085 H   0  0  0  0  0  0  0  0  0  0  0  0
   -0.5691   -0.0053    3.3609 H   0  0  0  0  0  0  0  0  0  0  0  0
   -1.7966    0.0005    1.1985 H   0  0  0  0  0  0  0  0  0  0  0  0
   -1.7765   -0.3846   -1.2028 H   0  0  0  0  0  0  0  0  0  0  0  0
   -0.2356   -0.6584   -2.0563 H   0  0  0  0  0  0  0  0  0  0  0  0
   -1.2946    2.0398   -1.2414 H   0  0  0  0  0  0  0  0  0  0  0  0
    0.9323    4.7084   -4.4054 H   0  0  0  0  0  0  0  0  0  0  0  0
   -0.6380    3.9114   -2.6569 H   0  0  0  0  0  0  0  0  0  0  0  0
    2.1772    3.9125   -6.3887 H   0  0  0  0  0  0  0  0  0  0  0  0
    6.4698    3.6155   -6.2819 H   0  0  0  0  0  0  0  0  0  0  0  0
    6.0694    4.6815   -7.6954 H   0  0  0  0  0  0  0  0  0  0  0  0
    5.6921    1.5941   -7.5876 H   0  0  0  0  0  0  0  0  0  0  0  0
    6.9643    2.4090   -8.5079 H   0  0  0  0  0  0  0  0  0  0  0  0
    5.2651    2.6155   -8.9680 H   0  0  0  0  0  0  0  0  0  0  0  0
    2.7378   -0.4308   -4.2177 H   0  0  0  0  0  0  0  0  0  0  0  0
    3.6072    0.7574   -5.0796 H   0  0  0  0  0  0  0  0  0  0  0  0
  1  6  1  0  0  0  0
  2  1  2  0  0  0  0
  2  3  1  0  0  0  0
  3 24  1  0  0  0  0
  3  4  2  0  0  0  0
  4  5  1  0  0  0  0
  4  7  1  0  0  0  0
  5 25  1  0  0  0  0
  6  5  2  0  0  0  0
  8 27  1  0  0  0  0
  8  1  1  0  0  0  0
  9  8  1  0  0  0  0
  9 29  1  0  0  0  0
 10  9  1  0  0  0  0
 11 10  2  0  0  0  0
 12 11  2  0  0  0  0
 13 16  1  6  0  0  0
 13 12  1  0  0  0  0
 13 14  1  0  0  0  0
 14 15  2  0  0  0  0
 15 10  1  0  0  0  0
 15 31  1  0  0  0  0
 17 16  1  0  0  0  0
 17 18  2  0  0  0  0
 19 17  1  0  0  0  0
 20 19  1  0  0  0  0
 20 33  1  0  0  0  0
 21 35  1  0  0  0  0
 21 20  1  0  0  0  0
 22 38  1  0  0  0  0
 22 12  1  0  0  0  0
 23  2  1  0  0  0  0
 26  6  1  0  0  0  0
 28  8  1  0  0  0  0
 30 14  1  0  0  0  0
 32 16  1  0  0  0  0
 34 20  1  0  0  0  0
 36 21  1  0  0  0  0
 37 21  1  0  0  0  0
 39 22  1  0  0  0  0
M  RAD  1  13   2
M  END
$$$$
