39
rmsd170.gzmat
C          0.00000        0.00000        0.00000
C          1.39730        0.00000        0.00000
C          2.10210        0.00000        1.19930
C          1.37010        0.00650        2.38630
C         -0.02310        0.01160        2.41860
C         -0.70500        0.00700        1.20390
F          2.02840        0.00920        3.53610
C         -0.74090       -0.03000       -1.31130
N         -0.82690       -1.39870       -1.84590
C          0.20390       -1.90350       -2.62770
N          1.11820       -1.02610       -3.11170
C          2.05700       -1.46810       -3.99530
C          2.13300       -2.84160       -4.38300
C          1.21310       -3.73250       -3.81870
C          0.23670       -3.28640       -2.94570
N          3.04410       -3.33360       -5.35590
C          4.40170       -3.12690       -5.26330
O          4.97180       -2.29830       -4.58170
O          5.03630       -3.97620       -6.12490
C          6.45890       -3.82690       -6.20690
C          7.11710       -4.46890       -4.99970
N          2.87630       -0.47920       -4.49820
H          1.93710       -0.00580       -0.95250
H          3.19040       -0.00520        1.20640
H         -0.56490        0.02070        3.36170
H         -1.79420        0.00980        1.20090
H         -0.24740        0.63870       -2.06270
H         -1.78350        0.35180       -1.20510
H         -1.29200       -2.05820       -1.23210
H          1.26210       -4.79350       -4.07480
H         -0.48730       -3.96820       -2.52170
H          2.69800       -4.06970       -5.96440
H          6.71540       -2.75710       -6.31090
H          6.66770       -4.36500       -7.15140
H          6.85870       -3.92800       -4.07570
H          8.20900       -4.46330       -5.08830
H          6.79390       -5.50850       -4.86750
H          2.79690        0.43850       -4.09230
H          3.80620       -0.74860       -4.78340
