39
rmsd191.gzmat
C          0.00000        0.00000        0.00000
C          1.39520        0.00000        0.00000
C          2.09880        0.00000        1.20260
C          1.36650       -0.00430        2.38820
C         -0.02790       -0.00160        2.41960
C         -0.70660        0.00720        1.20530
F          2.02590       -0.00960        3.53720
C         -0.75720       -0.01180       -1.30210
N         -1.40410       -1.31060       -1.54120
C         -2.70610       -1.53630       -1.12030
N         -3.45180       -0.45940       -0.76680
C         -4.76250       -0.64150       -0.44180
C         -5.36450       -1.93740       -0.44840
C         -4.57300       -3.02500       -0.83470
C         -3.24090       -2.85080       -1.16380
N         -6.69590       -2.18360       -0.01610
C         -7.77740       -1.53520       -0.57130
O         -7.76410       -0.49600       -1.19950
O         -8.91170       -2.23290       -0.26590
C        -10.14650       -1.58960       -0.60110
C        -10.44140       -0.47360        0.38470
N         -5.41830        0.50730       -0.04610
H          1.94390        0.00360       -0.94120
H          3.18670        0.00360        1.21130
H         -0.57230       -0.00360        3.36220
H         -1.80130        0.01980        1.18970
H         -0.08690        0.18660       -2.17190
H         -1.52340        0.80650       -1.31520
H         -0.77520       -2.10460       -1.52510
H         -5.01110       -4.02550       -0.86940
H         -2.62360       -3.68670       -1.46220
H         -6.85020       -3.05680        0.48020
H        -10.85020       -2.44010       -0.51580
H        -10.10340       -1.23250       -1.64650
H        -10.39370       -0.82740        1.42180
H        -11.43740       -0.04770        0.21960
H         -9.71400        0.34550        0.28430
H         -4.94180        1.38290       -0.19100
H         -6.41730        0.53150       -0.18580
