
     RDKit          3D

 39 40  0  0  0  0  0  0  0  0999 V2000
    0.0442   -0.0085    0.0412 C   0  0  0  0  0  0  0  0  0  0  0  0
    1.4339   -0.2203    0.0283 C   0  0  0  0  0  0  0  0  0  0  0  0
    2.1629   -0.2608    1.2164 C   0  0  0  0  0  0  0  0  0  0  0  0
    1.4939   -0.0862    2.4270 C   0  0  0  0  0  0  0  0  0  0  0  0
    0.1204    0.1287    2.4756 C   0  0  0  0  0  0  0  0  0  0  0  0
   -0.5955    0.1646    1.2753 C   0  0  0  0  0  0  0  0  0  0  0  0
    2.1929   -0.1235    3.5726 F   0  0  0  0  0  0  0  0  0  0  0  0
   -0.7464   -0.0071   -1.2531 C   0  0  0  0  0  0  0  0  0  0  0  0
   -0.9098   -1.3227   -1.8471 N   0  0  0  0  0  0  0  0  0  0  0  0
    0.0075   -1.8790   -2.7090 C   0  0  0  0  0  0  0  0  0  0  0  0
    0.9754   -1.0906   -3.1831 N   0  0  0  0  0  0  0  0  0  0  0  0
    1.8929   -1.5637   -4.0378 C   0  0  0  0  0  0  0  0  0  0  0  0
    1.8704   -2.9171   -4.4701 C   0  0  0  0  0  0  0  0  0  0  0  0
    0.8385   -3.7259   -3.9855 C   0  0  0  0  0  0  0  0  0  0  0  0
   -0.1067   -3.2332   -3.0971 C   0  0  0  0  0  0  0  0  0  0  0  0
    2.8863   -3.5019   -5.2729 N   0  0  0  0  0  0  0  0  0  0  0  0
    3.4077   -3.0170   -6.4312 C   0  0  0  0  0  0  0  0  0  0  0  0
    3.1620   -1.9315   -6.9300 O   0  0  0  0  0  0  0  0  0  0  0  0
    4.2704   -3.9142   -6.9589 O   0  0  0  0  0  0  0  0  0  0  0  0
    4.9682   -3.5143   -8.1484 C   0  0  0  0  0  0  0  0  0  0  0  0
    6.1876   -2.6692   -7.8263 C   0  0  0  0  0  0  0  0  0  0  0  0
    2.8787   -0.6946   -4.4331 N   0  0  0  0  0  0  0  0  0  0  0  0
    1.9391   -0.3542   -0.9300 H   0  0  0  0  0  0  0  0  0  0  0  0
    3.2426   -0.4217    1.2212 H   0  0  0  0  0  0  0  0  0  0  0  0
   -0.3681    0.2655    3.4421 H   0  0  0  0  0  0  0  0  0  0  0  0
   -1.6754    0.3359    1.3036 H   0  0  0  0  0  0  0  0  0  0  0  0
   -0.2448    0.6187   -2.0026 H   0  0  0  0  0  0  0  0  0  0  0  0
   -1.7463    0.4189   -1.0721 H   0  0  0  0  0  0  0  0  0  0  0  0
   -1.4873   -1.9793   -1.3375 H   0  0  0  0  0  0  0  0  0  0  0  0
    0.7907   -4.7693   -4.3096 H   0  0  0  0  0  0  0  0  0  0  0  0
   -0.9130   -3.8631   -2.7179 H   0  0  0  0  0  0  0  0  0  0  0  0
    3.1944   -4.4352   -5.0226 H   0  0  0  0  0  0  0  0  0  0  0  0
    4.2738   -2.9687   -8.8040 H   0  0  0  0  0  0  0  0  0  0  0  0
    5.2517   -4.4591   -8.6339 H   0  0  0  0  0  0  0  0  0  0  0  0
    5.8861   -1.7165   -7.3670 H   0  0  0  0  0  0  0  0  0  0  0  0
    6.7446   -2.4437   -8.7496 H   0  0  0  0  0  0  0  0  0  0  0  0
    6.8619   -3.1995   -7.1360 H   0  0  0  0  0  0  0  0  0  0  0  0
    2.6798    0.2638   -4.1652 H   0  0  0  0  0  0  0  0  0  0  0  0
    3.1891   -0.8125   -5.3992 H   0  0  0  0  0  0  0  0  0  0  0  0
  1  2  2  0
  1  6  1  0
  1  8  1  0
  2  3  1  0
  2 23  1  0
  3  4  2  0
  3 24  1  0
  4  5  1  0
  4  7  1  0
  5  6  2  0
  5 25  1  0
  6 26  1  0
  8  9  1  0
  8 27  1  0
  8 28  1  0
  9 10  1  0
  9 29  1  0
 10 11  2  0
 10 15  1  0
 11 12  1  0
 12 13  2  0
 12 22  1  0
 13 14  1  0
 13 16  1  0
 14 15  2  0
 14 30  1  0
 15 31  1  0
 16 17  1  0
 16 32  1  0
 17 18  2  0
 17 19  1  0
 19 20  1  0
 20 21  1  0
 20 33  1  0
 20 34  1  0
 21 35  1  0
 21 36  1  0
 21 37  1  0
 22 38  1  0
 22 39  1  0
M  END

