39
rmsd185.gzmat
C          0.00000        0.00000        0.00000
C          1.39520        0.00000        0.00000
C          2.09840        0.00000        1.20240
C          1.36580       -0.00190        2.38810
C         -0.02830       -0.00100        2.41950
C         -0.70710        0.00090        1.20490
F          2.02480       -0.00500        3.53750
C         -0.75530       -0.03690       -1.30300
N         -1.04380       -1.42200       -1.71020
C         -2.13860       -2.08240       -1.16520
N         -3.09420       -1.32870       -0.56740
C         -4.21290       -1.93890       -0.08530
C         -4.39340       -3.35310       -0.17730
C         -3.40620       -4.09780       -0.83260
C         -2.26880       -3.48580       -1.32820
N         -5.48090       -4.04530        0.41990
C         -6.79140       -3.71760        0.15690
O         -7.20180       -2.68370       -0.33210
O         -7.59750       -4.73000        0.59510
C         -9.00490       -4.51150        0.43680
C         -9.40480       -4.76330       -1.00520
N         -5.09580       -1.08750        0.54990
H          1.94250        0.00130       -0.94160
H          3.18600        0.00160        1.21150
H         -0.57310       -0.00420        3.36170
H         -1.80220       -0.01180        1.18980
H         -0.17770        0.44250       -2.12740
H         -1.71450        0.53670       -1.22750
H         -0.22010       -1.98730       -1.88280
H         -3.53080       -5.17730       -0.94620
H         -1.50250       -4.05530       -1.83560
H         -5.26890       -4.95160        0.82590
H         -9.26590       -3.49350        0.77780
H         -9.41220       -5.26540        1.13750
H         -8.90920       -4.04990       -1.68250
H        -10.48480       -4.65020       -1.14690
H         -9.12310       -5.77070       -1.33360
H         -4.93040       -0.09890        0.45070
H         -6.06850       -1.35870        0.55680
