42
rmsd165.gzmat
O          0.00000        0.00000        0.00000
C          1.44770        0.00000        0.00000
O          1.92850        0.00000        1.36070
C          0.79290       -0.01840        2.14030
C          0.72320       -0.03110        3.51320
C         -0.55920       -0.04320        4.08520
C         -1.69450       -0.05340        3.25490
O         -2.87760       -0.17430        3.92010
C         -3.98670        0.56730        3.41600
C         -3.73010        2.06080        3.51840
C         -1.62700       -0.03330        1.84860
C         -0.35740       -0.01730        1.32370
C         -0.76660       -0.01030        5.57610
H         -1.60330       -0.72480        5.81920
C          0.46330       -0.45490        6.37900
C         -1.16030        1.38270        6.00280
C         -0.45480        2.49770        5.53170
C         -0.81960        3.77760        5.91760
C         -1.90410        3.93500        6.79590
O         -2.15560        5.24010        7.09290
C         -3.22590        5.50480        7.98750
C         -2.61590        2.84070        7.28060
C         -2.23270        1.56220        6.87380
H          1.78120        0.93230       -0.47480
H          1.77920       -0.93280       -0.47550
H          1.62160       -0.02650        4.12470
H         -4.78350        0.22650        4.10630
H         -4.22870        0.24270        2.39050
H         -3.38950        2.33360        4.53000
H         -4.62940        2.64440        3.30150
H         -2.94120        2.38570        2.82780
H         -2.51280       -0.04290        1.22640
H          1.29580        0.25040        6.27600
H          0.80920       -1.44350        6.05790
H          0.22410       -0.51400        7.44740
H          0.38480        2.35460        4.84960
H         -0.28600        4.65270        5.55620
H         -3.20100        6.60050        8.06350
H         -3.04130        5.05110        8.96610
H         -4.17870        5.17230        7.56490
H         -3.44980        2.96110        7.96210
H         -2.78560        0.69900        7.24300
