rmsd153.gzmat
 OpenBabel08211713393D

 42 44  0  0  1  0  0  0  0  0999 V2000
    0.0000    0.0000    0.0000 O   0  0  0  0  0  0  0  0  0  0  0  0
    1.4480    0.0000    0.0000 C   0  0  0  0  0  0  0  0  0  0  0  0
    1.9290    0.0000    1.3605 O   0  0  0  0  0  0  0  0  0  0  0  0
    0.7923   -0.0202    2.1397 C   0  0  0  0  0  0  0  0  0  0  0  0
    0.7226   -0.0354    3.5136 C   0  0  0  0  0  0  0  0  0  0  0  0
   -0.5584   -0.0506    4.0847 C   0  0  0  0  0  0  0  0  0  0  0  0
   -1.6955   -0.0568    3.2528 C   0  0  0  0  0  0  0  0  0  0  0  0
   -2.8700   -0.1660    3.9304 O   0  0  0  0  0  0  0  0  0  0  0  0
   -4.0166    0.4766    3.3779 C   0  0  0  0  0  0  0  0  0  0  0  0
   -3.8263    1.9828    3.3259 C   0  0  0  0  0  0  0  0  0  0  0  0
   -1.6281   -0.0327    1.8475 C   0  0  0  0  0  0  0  0  0  0  0  0
   -0.3569   -0.0178    1.3237 C   0  0  0  0  0  0  0  0  0  0  0  0
   -0.7788   -0.0377    5.5745 C   0  0  1  0  0  0  0  0  0  0  0  0
   -1.5183   -0.8548    5.8101 H   0  0  0  0  0  0  0  0  0  0  0  0
    0.4886   -0.3113    6.3948 C   0  0  0  0  0  0  0  0  0  0  0  0
   -1.3558    1.2934    5.9912 C   0  0  0  0  0  0  0  0  0  0  0  0
   -0.7991    2.4848    5.5281 C   0  0  0  0  0  0  0  0  0  0  0  0
   -1.3342    3.7157    5.9043 C   0  0  0  0  0  0  0  0  0  0  0  0
   -2.4335    3.7308    6.7604 C   0  0  0  0  0  0  0  0  0  0  0  0
   -3.0699    4.8457    7.2162 O   0  0  0  0  0  0  0  0  0  0  0  0
   -2.5427    6.1003    6.8104 C   0  0  0  0  0  0  0  0  0  0  0  0
   -3.0075    2.5441    7.2416 C   0  0  0  0  0  0  0  0  0  0  0  0
   -2.4606    1.3311    6.8492 C   0  0  0  0  0  0  0  0  0  0  0  0
    1.7802    0.9326   -0.4752 H   0  0  0  0  0  0  0  0  0  0  0  0
    1.7805   -0.9326   -0.4758 H   0  0  0  0  0  0  0  0  0  0  0  0
    1.6229   -0.0302    4.1224 H   0  0  0  0  0  0  0  0  0  0  0  0
   -4.7849    0.1750    4.1183 H   0  0  0  0  0  0  0  0  0  0  0  0
   -4.2616    0.0379    2.3968 H   0  0  0  0  0  0  0  0  0  0  0  0
   -3.3498    2.3472    4.2514 H   0  0  0  0  0  0  0  0  0  0  0  0
   -4.7799    2.5094    3.2208 H   0  0  0  0  0  0  0  0  0  0  0  0
   -3.1770    2.2869    2.4966 H   0  0  0  0  0  0  0  0  0  0  0  0
   -2.5128   -0.0365    1.2239 H   0  0  0  0  0  0  0  0  0  0  0  0
    1.2303    0.4868    6.2761 H   0  0  0  0  0  0  0  0  0  0  0  0
    0.9531   -1.2601    6.1053 H   0  0  0  0  0  0  0  0  0  0  0  0
    0.2497   -0.3700    7.4637 H   0  0  0  0  0  0  0  0  0  0  0  0
    0.0609    2.4544    4.8575 H   0  0  0  0  0  0  0  0  0  0  0  0
   -0.8921    4.6319    5.5307 H   0  0  0  0  0  0  0  0  0  0  0  0
   -3.2031    6.8082    7.3291 H   0  0  0  0  0  0  0  0  0  0  0  0
   -2.6233    6.2252    5.7263 H   0  0  0  0  0  0  0  0  0  0  0  0
   -1.5097    6.2216    7.1520 H   0  0  0  0  0  0  0  0  0  0  0  0
   -3.8637    2.5913    7.9089 H   0  0  0  0  0  0  0  0  0  0  0  0
   -2.9003    0.4011    7.2082 H   0  0  0  0  0  0  0  0  0  0  0  0
  1 12  1  0  0  0  0
  2  1  1  0  0  0  0
  2  3  1  0  0  0  0
  3  4  1  0  0  0  0
  4  5  2  0  0  0  0
  5  6  1  0  0  0  0
  5 26  1  0  0  0  0
  6 13  1  0  0  0  0
  7  8  1  0  0  0  0
  7  6  2  0  0  0  0
  9  8  1  0  0  0  0
  9 27  1  0  0  0  0
 10  9  1  0  0  0  0
 10 29  1  0  0  0  0
 11  7  1  0  0  0  0
 12 11  2  0  0  0  0
 12  4  1  0  0  0  0
 13 14  1  1  0  0  0
 13 16  1  0  0  0  0
 13 15  1  0  0  0  0
 15 35  1  0  0  0  0
 16 23  2  0  0  0  0
 17 18  2  0  0  0  0
 17 16  1  0  0  0  0
 18 19  1  0  0  0  0
 19 20  1  0  0  0  0
 19 22  2  0  0  0  0
 21 40  1  0  0  0  0
 21 20  1  0  0  0  0
 21 38  1  0  0  0  0
 22 41  1  0  0  0  0
 23 42  1  0  0  0  0
 23 22  1  0  0  0  0
 24  2  1  0  0  0  0
 25  2  1  0  0  0  0
 28  9  1  0  0  0  0
 30 10  1  0  0  0  0
 31 10  1  0  0  0  0
 32 11  1  0  0  0  0
 33 15  1  0  0  0  0
 34 15  1  0  0  0  0
 36 17  1  0  0  0  0
 37 18  1  0  0  0  0
 39 21  1  0  0  0  0
M  END
$$$$
