42
rmsd153.gzmat
O          0.00000        0.00000        0.00000
C          1.44800        0.00000        0.00000
O          1.92900        0.00000        1.36050
C          0.79230       -0.02020        2.13970
C          0.72260       -0.03540        3.51360
C         -0.55840       -0.05060        4.08470
C         -1.69550       -0.05680        3.25280
O         -2.87000       -0.16600        3.93040
C         -4.01660        0.47660        3.37790
C         -3.82630        1.98280        3.32590
C         -1.62810       -0.03270        1.84750
C         -0.35690       -0.01780        1.32370
C         -0.77880       -0.03770        5.57450
H         -1.51830       -0.85480        5.81010
C          0.48860       -0.31130        6.39480
C         -1.35580        1.29340        5.99120
C         -0.79910        2.48480        5.52810
C         -1.33420        3.71570        5.90430
C         -2.43350        3.73080        6.76040
O         -3.06990        4.84570        7.21620
C         -2.54270        6.10030        6.81040
C         -3.00750        2.54410        7.24160
C         -2.46060        1.33110        6.84920
H          1.78020        0.93260       -0.47520
H          1.78050       -0.93260       -0.47580
H          1.62290       -0.03020        4.12240
H         -4.78490        0.17500        4.11830
H         -4.26160        0.03790        2.39680
H         -3.34980        2.34720        4.25140
H         -4.77990        2.50940        3.22080
H         -3.17700        2.28690        2.49660
H         -2.51280       -0.03650        1.22390
H          1.23030        0.48680        6.27610
H          0.95310       -1.26010        6.10530
H          0.24970       -0.37000        7.46370
H          0.06090        2.45440        4.85750
H         -0.89210        4.63190        5.53070
H         -3.20310        6.80820        7.32910
H         -2.62330        6.22520        5.72630
H         -1.50970        6.22160        7.15200
H         -3.86370        2.59130        7.90890
H         -2.90030        0.40110        7.20820
