42
rmsd22.gzmat
O          0.00000        0.00000        0.00000
C          1.44780        0.00000        0.00000
O          1.92900        0.00000        1.36040
C          0.79310       -0.01000        2.13990
C          0.72400       -0.01200        3.51320
C         -0.55780       -0.00150        4.08500
C         -1.69390       -0.00780        3.25450
O         -2.87520       -0.09180        3.92710
C         -3.98310        0.63210        3.39600
C         -3.70780        2.12570        3.38970
C         -1.62700       -0.00730        1.84840
C         -0.35690       -0.00670        1.32380
C         -0.76790        0.07140        5.57470
H         -1.61080       -0.62870        5.83790
C          0.45610       -0.35950        6.39280
C         -1.15510        1.48140        5.95020
C         -0.44680        2.57130        5.44630
C         -0.82170        3.87570        5.76240
C         -1.91640        4.06820        6.60230
O         -2.41020        5.27300        7.00110
C         -1.80050        6.43490        6.45820
C         -2.63410        2.98600        7.13440
C         -2.24510        1.69690        6.80110
H          1.77930        0.93300       -0.47480
H          1.77990       -0.93300       -0.47460
H          1.62340       -0.01250        4.12330
H         -4.76950        0.35170        4.12530
H         -4.24860        0.23940        2.40090
H         -3.29700        2.45320        4.35880
H         -4.61660        2.70550        3.20330
H         -2.96910        2.40200        2.62770
H         -2.51160       -0.01640        1.22470
H          1.30080        0.32530        6.25880
H          0.78380       -1.36660        6.11250
H          0.21850       -0.37020        7.46330
H          0.40530        2.40360        4.78590
H         -0.26260        4.70970        5.35440
H         -2.38980        7.24030        6.91710
H         -1.90300        6.45880        5.36890
H         -0.75270        6.50690        6.76450
H         -3.47760        3.17110        7.79330
H         -2.79910        0.84670        7.19870
