42

O         -0.02490       -0.00380       -0.02790
C          1.35890       -0.34620       -0.09210
O          1.90160       -0.20070        1.21330
C          0.81670       -0.15630        2.05760
C          0.78370       -0.17410        3.44020
C         -0.46580       -0.05910        4.08250
C         -1.63700        0.05050        3.30190
O         -2.81150        0.09330        3.99420
C         -3.90610        0.84770        3.48990
C         -3.62210        2.34150        3.44870
C         -1.59320        0.07440        1.89210
C         -0.34580       -0.03140        1.30300
C         -0.60940       -0.00090        5.59690
H         -1.39570       -0.72110        5.87290
C          0.66490       -0.38450        6.35970
C         -1.10780        1.37150        6.03580
C         -0.48310        2.54580        5.58430
C         -0.92930        3.80100        5.98190
C         -2.02640        3.91940        6.85180
O         -2.39790        5.18440        7.18290
C         -3.49440        5.36540        8.04550
C         -2.66160        2.75820        7.31330
C         -2.19440        1.50410        6.90140
H          1.87570        0.33150       -0.78930
H          1.46140       -1.39890       -0.42720
H          1.70840       -0.25970        4.00880
H         -4.73140        0.63030        4.18410
H         -4.21470        0.47080        2.49750
H         -3.35130        2.70990        4.44850
H         -4.51400        2.88540        3.09890
H         -2.79170        2.57200        2.76470
H         -2.49210        0.16250        1.28450
H          1.47730        0.33720        6.18120
H          1.02270       -1.38520        6.07050
H          0.46590       -0.38820        7.44160
H          0.35830        2.47310        4.89080
H         -0.44900        4.71510        5.62780
H         -3.61670        6.44890        8.17740
H         -3.32230        4.90180        9.03410
H         -4.42630        4.94940        7.62040
H         -3.51840        2.81420        7.98430
H         -2.70860        0.60580        7.25350
