
     RDKit          3D

 42 44  0  0  0  0  0  0  0  0999 V2000
    0.0189   -0.0517   -0.0484 O   0  0  0  0  0  0  0  0  0  0  0  0
    1.4027   -0.3976   -0.0884 C   0  0  0  0  0  0  0  0  0  0  0  0
    1.9315   -0.2173    1.2183 O   0  0  0  0  0  0  0  0  0  0  0  0
    0.8372   -0.1538    2.0495 C   0  0  0  0  0  0  0  0  0  0  0  0
    0.7890   -0.1381    3.4318 C   0  0  0  0  0  0  0  0  0  0  0  0
   -0.4676   -0.0083    4.0569 C   0  0  0  0  0  0  0  0  0  0  0  0
   -1.6303    0.0814    3.2610 C   0  0  0  0  0  0  0  0  0  0  0  0
   -2.8114    0.1405    3.9403 O   0  0  0  0  0  0  0  0  0  0  0  0
   -3.9047    0.8744    3.4044 C   0  0  0  0  0  0  0  0  0  0  0  0
   -3.6284    2.3682    3.3268 C   0  0  0  0  0  0  0  0  0  0  0  0
   -1.5710    0.0714    1.8517 C   0  0  0  0  0  0  0  0  0  0  0  0
   -0.3169   -0.0479    1.2793 C   0  0  0  0  0  0  0  0  0  0  0  0
   -0.6297    0.0873    5.5672 C   0  0  1  0  0  0  0  0  0  0  0  0
   -1.4158   -0.6299    5.8514 H   0  0  0  0  0  0  0  0  0  0  0  0
    0.6365   -0.2707    6.3554 C   0  0  0  0  0  0  0  0  0  0  0  0
   -1.1412    1.4675    5.9658 C   0  0  0  0  0  0  0  0  0  0  0  0
   -0.5328    2.6301    5.4853 C   0  0  0  0  0  0  0  0  0  0  0  0
   -0.9896    3.9028    5.8446 C   0  0  0  0  0  0  0  0  0  0  0  0
   -2.0875    4.0280    6.7078 C   0  0  0  0  0  0  0  0  0  0  0  0
   -2.6169    5.2124    7.1140 O   0  0  0  0  0  0  0  0  0  0  0  0
   -2.0430    6.4083    6.6447 C   0  0  0  0  0  0  0  0  0  0  0  0
   -2.7079    2.8680    7.1998 C   0  0  0  0  0  0  0  0  0  0  0  0
   -2.2355    1.6122    6.8315 C   0  0  0  0  0  0  0  0  0  0  0  0
    1.9281    0.2600   -0.7983 H   0  0  0  0  0  0  0  0  0  0  0  0
    1.5071   -1.4594   -0.3936 H   0  0  0  0  0  0  0  0  0  0  0  0
    1.7072   -0.2092    4.0127 H   0  0  0  0  0  0  0  0  0  0  0  0
   -4.7362    0.6713    4.0954 H   0  0  0  0  0  0  0  0  0  0  0  0
   -4.2002    0.4693    2.4192 H   0  0  0  0  0  0  0  0  0  0  0  0
   -3.3725    2.7639    4.3200 H   0  0  0  0  0  0  0  0  0  0  0  0
   -4.5195    2.8972    2.9526 H   0  0  0  0  0  0  0  0  0  0  0  0
   -2.7912    2.5849    2.6464 H   0  0  0  0  0  0  0  0  0  0  0  0
   -2.4631    0.1442    1.2322 H   0  0  0  0  0  0  0  0  0  0  0  0
    1.4483    0.4488    6.1661 H   0  0  0  0  0  0  0  0  0  0  0  0
    1.0006   -1.2781    6.0989 H   0  0  0  0  0  0  0  0  0  0  0  0
    0.4249   -0.2449    7.4347 H   0  0  0  0  0  0  0  0  0  0  0  0
    0.3096    2.5477    4.7939 H   0  0  0  0  0  0  0  0  0  0  0  0
   -0.4885    4.7824    5.4412 H   0  0  0  0  0  0  0  0  0  0  0  0
   -2.6189    7.2306    7.0900 H   0  0  0  0  0  0  0  0  0  0  0  0
   -2.0987    6.4876    5.5434 H   0  0  0  0  0  0  0  0  0  0  0  0
   -0.9853    6.5059    6.9504 H   0  0  0  0  0  0  0  0  0  0  0  0
   -3.5648    2.9820    7.8665 H   0  0  0  0  0  0  0  0  0  0  0  0
   -2.7391    0.7183    7.2089 H   0  0  0  0  0  0  0  0  0  0  0  0
  1  2  1  0
  1 12  1  0
  2  3  1  0
  2 24  1  0
  2 25  1  0
  3  4  1  0
  4  5  2  0
  4 12  1  0
  5  6  1  0
  5 26  1  0
  6  7  2  0
  6 13  1  0
  7  8  1  0
  7 11  1  0
  8  9  1  0
  9 10  1  0
  9 27  1  0
  9 28  1  0
 10 29  1  0
 10 30  1  0
 10 31  1  0
 11 12  2  0
 11 32  1  0
 13 14  1  1
 13 15  1  0
 13 16  1  0
 15 33  1  0
 15 34  1  0
 15 35  1  0
 16 17  2  0
 16 23  1  0
 17 18  1  0
 17 36  1  0
 18 19  2  0
 18 37  1  0
 19 20  1  0
 19 22  1  0
 20 21  1  0
 21 38  1  0
 21 39  1  0
 21 40  1  0
 22 23  2  0
 22 41  1  0
 23 42  1  0
M  END

