rmsd197.gzmat
 OpenBabel08211713393D

 42 44  0  0  1  0  0  0  0  0999 V2000
    0.0000    0.0000    0.0000 O   0  0  0  0  0  0  0  0  0  0  0  0
    1.4479    0.0000    0.0000 C   0  0  0  0  0  0  0  0  0  0  0  0
    1.9291    0.0000    1.3604 O   0  0  0  0  0  0  0  0  0  0  0  0
    0.7928   -0.0130    2.1402 C   0  0  0  0  0  0  0  0  0  0  0  0
    0.7223   -0.0158    3.5139 C   0  0  0  0  0  0  0  0  0  0  0  0
   -0.5597   -0.0163    4.0844 C   0  0  0  0  0  0  0  0  0  0  0  0
   -1.6962   -0.0301    3.2530 C   0  0  0  0  0  0  0  0  0  0  0  0
   -2.8739   -0.1301    3.9282 O   0  0  0  0  0  0  0  0  0  0  0  0
   -4.0144    0.5144    3.3651 C   0  0  0  0  0  0  0  0  0  0  0  0
   -3.8324    2.0223    3.3582 C   0  0  0  0  0  0  0  0  0  0  0  0
   -1.6274   -0.0192    1.8473 C   0  0  0  0  0  0  0  0  0  0  0  0
   -0.3567   -0.0115    1.3237 C   0  0  0  0  0  0  0  0  0  0  0  0
   -0.7740    0.0503    5.5739 C   0  0  1  0  0  0  0  0  0  0  0  0
   -1.6024   -0.6673    5.8345 H   0  0  0  0  0  0  0  0  0  0  0  0
    0.4563   -0.3533    6.3964 C   0  0  0  0  0  0  0  0  0  0  0  0
   -1.1905    1.4538    5.9427 C   0  0  0  0  0  0  0  0  0  0  0  0
   -2.3425    1.6600    6.7090 C   0  0  0  0  0  0  0  0  0  0  0  0
   -2.7520    2.9454    7.0349 C   0  0  0  0  0  0  0  0  0  0  0  0
   -1.9881    4.0322    6.5841 C   0  0  0  0  0  0  0  0  0  0  0  0
   -2.5055    5.2346    6.9611 O   0  0  0  0  0  0  0  0  0  0  0  0
   -1.7887    6.3959    6.5669 C   0  0  0  0  0  0  0  0  0  0  0  0
   -0.8334    3.8486    5.8256 C   0  0  0  0  0  0  0  0  0  0  0  0
   -0.4429    2.5490    5.5104 C   0  0  0  0  0  0  0  0  0  0  0  0
    1.7796    0.9327   -0.4757 H   0  0  0  0  0  0  0  0  0  0  0  0
    1.7798   -0.9331   -0.4750 H   0  0  0  0  0  0  0  0  0  0  0  0
    1.6206   -0.0099    4.1256 H   0  0  0  0  0  0  0  0  0  0  0  0
   -4.7998    0.1870    4.0755 H   0  0  0  0  0  0  0  0  0  0  0  0
   -4.2329    0.1025    2.3664 H   0  0  0  0  0  0  0  0  0  0  0  0
   -3.5777    2.3936    4.3636 H   0  0  0  0  0  0  0  0  0  0  0  0
   -4.7386    2.5406    3.0314 H   0  0  0  0  0  0  0  0  0  0  0  0
   -3.0119    2.3285    2.6968 H   0  0  0  0  0  0  0  0  0  0  0  0
   -2.5114   -0.0244    1.2227 H   0  0  0  0  0  0  0  0  0  0  0  0
    1.2662    0.3790    6.3071 H   0  0  0  0  0  0  0  0  0  0  0  0
    0.8401   -1.3307    6.0839 H   0  0  0  0  0  0  0  0  0  0  0  0
    0.2022   -0.4197    7.4610 H   0  0  0  0  0  0  0  0  0  0  0  0
   -2.9284    0.8067    7.0489 H   0  0  0  0  0  0  0  0  0  0  0  0
   -3.6437    3.1225    7.6289 H   0  0  0  0  0  0  0  0  0  0  0  0
   -2.4084    7.2035    6.9794 H   0  0  0  0  0  0  0  0  0  0  0  0
   -1.7356    6.4734    5.4764 H   0  0  0  0  0  0  0  0  0  0  0  0
   -0.7914    6.4103    7.0178 H   0  0  0  0  0  0  0  0  0  0  0  0
   -0.2427    4.6882    5.4789 H   0  0  0  0  0  0  0  0  0  0  0  0
    0.4529    2.3877    4.9086 H   0  0  0  0  0  0  0  0  0  0  0  0
  1 12  1  0  0  0  0
  2  1  1  0  0  0  0
  2  3  1  0  0  0  0
  3  4  1  0  0  0  0
  4  5  2  0  0  0  0
  5  6  1  0  0  0  0
  5 26  1  0  0  0  0
  6 13  1  0  0  0  0
  7  8  1  0  0  0  0
  7  6  2  0  0  0  0
  9  8  1  0  0  0  0
  9 27  1  0  0  0  0
 10  9  1  0  0  0  0
 10 29  1  0  0  0  0
 11  7  1  0  0  0  0
 12 11  2  0  0  0  0
 12  4  1  0  0  0  0
 13 14  1  1  0  0  0
 13 16  1  0  0  0  0
 13 15  1  0  0  0  0
 15 35  1  0  0  0  0
 16 17  2  0  0  0  0
 17 18  1  0  0  0  0
 17 36  1  0  0  0  0
 18 37  1  0  0  0  0
 19 20  1  0  0  0  0
 19 18  2  0  0  0  0
 21 20  1  0  0  0  0
 21 38  1  0  0  0  0
 21 40  1  0  0  0  0
 22 19  1  0  0  0  0
 23 22  2  0  0  0  0
 23 16  1  0  0  0  0
 24  2  1  0  0  0  0
 25  2  1  0  0  0  0
 28  9  1  0  0  0  0
 30 10  1  0  0  0  0
 31 10  1  0  0  0  0
 32 11  1  0  0  0  0
 33 15  1  0  0  0  0
 34 15  1  0  0  0  0
 39 21  1  0  0  0  0
 41 22  1  0  0  0  0
 42 23  1  0  0  0  0
M  END
$$$$
