42
rmsd52.gzmat
O          0.00000        0.00000        0.00000
C          1.44780        0.00000        0.00000
O          1.92860        0.00000        1.36070
C          0.79210        0.01560        2.14000
C          0.72080        0.03690        3.51300
C         -0.56150        0.06680        4.08320
C         -1.69800        0.05420        3.25260
O         -2.87780       -0.01390        3.92800
C         -4.01140        0.62790        3.34930
C         -3.81320        2.13290        3.29860
C         -1.62830        0.03480        1.84680
C         -0.35720        0.01690        1.32370
C         -0.76530        0.17320        5.57220
H         -1.65140       -0.46500        5.84840
C          0.42890       -0.32970        6.39310
C         -1.05870        1.61540        5.90830
C         -2.24580        1.94820        6.56940
C         -2.55170        3.27340        6.84630
C         -1.64630        4.27110        6.45560
O         -2.07280        5.52560        6.77160
C         -1.20630        6.60250        6.44470
C         -0.45230        3.96020        5.80750
C         -0.16900        2.62330        5.53750
H          1.78030        0.93340       -0.47430
H          1.78020       -0.93140       -0.47750
H          1.61830        0.03840        4.12540
H         -4.79720        0.32990        4.07210
H         -4.23930        0.18780        2.36450
H         -3.45550        2.51450        4.26850
H         -4.74310        2.65820        3.05930
H         -3.06070        2.42090        2.55400
H         -2.51150        0.02680        1.22110
H          1.31080        0.30890        6.27260
H          0.70470       -1.34990        6.10280
H          0.18620       -0.33890        7.46240
H         -2.94240        1.16290        6.86360
H         -3.47080        3.54820        7.35550
H         -1.77200        7.47470        6.79940
H         -1.04860        6.66380        5.36320
H         -0.25820        6.51850        6.98480
H          0.24920        4.73050        5.50990
H          0.75510        2.36550        5.01840
