rmsd52.gzmat
 OpenBabel08211713393D

 42 44  0  0  1  0  0  0  0  0999 V2000
    0.0000    0.0000    0.0000 O   0  0  0  0  0  0  0  0  0  0  0  0
    1.4478    0.0000    0.0000 C   0  0  0  0  0  0  0  0  0  0  0  0
    1.9286    0.0000    1.3607 O   0  0  0  0  0  0  0  0  0  0  0  0
    0.7921    0.0156    2.1400 C   0  0  0  0  0  0  0  0  0  0  0  0
    0.7208    0.0369    3.5130 C   0  0  0  0  0  0  0  0  0  0  0  0
   -0.5615    0.0668    4.0832 C   0  0  0  0  0  0  0  0  0  0  0  0
   -1.6980    0.0542    3.2526 C   0  0  0  0  0  0  0  0  0  0  0  0
   -2.8778   -0.0139    3.9280 O   0  0  0  0  0  0  0  0  0  0  0  0
   -4.0114    0.6279    3.3493 C   0  0  0  0  0  0  0  0  0  0  0  0
   -3.8132    2.1329    3.2986 C   0  0  0  0  0  0  0  0  0  0  0  0
   -1.6283    0.0348    1.8468 C   0  0  0  0  0  0  0  0  0  0  0  0
   -0.3572    0.0169    1.3237 C   0  0  0  0  0  0  0  0  0  0  0  0
   -0.7653    0.1732    5.5722 C   0  0  1  0  0  0  0  0  0  0  0  0
   -1.6514   -0.4650    5.8484 H   0  0  0  0  0  0  0  0  0  0  0  0
    0.4289   -0.3297    6.3931 C   0  0  0  0  0  0  0  0  0  0  0  0
   -1.0587    1.6154    5.9083 C   0  0  0  0  0  0  0  0  0  0  0  0
   -2.2458    1.9482    6.5694 C   0  0  0  0  0  0  0  0  0  0  0  0
   -2.5517    3.2734    6.8463 C   0  0  0  0  0  0  0  0  0  0  0  0
   -1.6463    4.2711    6.4556 C   0  0  0  0  0  0  0  0  0  0  0  0
   -2.0728    5.5256    6.7716 O   0  0  0  0  0  0  0  0  0  0  0  0
   -1.2063    6.6025    6.4447 C   0  0  0  0  0  0  0  0  0  0  0  0
   -0.4523    3.9602    5.8075 C   0  0  0  0  0  0  0  0  0  0  0  0
   -0.1690    2.6233    5.5375 C   0  0  0  0  0  0  0  0  0  0  0  0
    1.7803    0.9334   -0.4743 H   0  0  0  0  0  0  0  0  0  0  0  0
    1.7802   -0.9314   -0.4775 H   0  0  0  0  0  0  0  0  0  0  0  0
    1.6183    0.0384    4.1254 H   0  0  0  0  0  0  0  0  0  0  0  0
   -4.7972    0.3299    4.0721 H   0  0  0  0  0  0  0  0  0  0  0  0
   -4.2393    0.1878    2.3645 H   0  0  0  0  0  0  0  0  0  0  0  0
   -3.4555    2.5145    4.2685 H   0  0  0  0  0  0  0  0  0  0  0  0
   -4.7431    2.6582    3.0593 H   0  0  0  0  0  0  0  0  0  0  0  0
   -3.0607    2.4209    2.5540 H   0  0  0  0  0  0  0  0  0  0  0  0
   -2.5115    0.0268    1.2211 H   0  0  0  0  0  0  0  0  0  0  0  0
    1.3108    0.3089    6.2726 H   0  0  0  0  0  0  0  0  0  0  0  0
    0.7047   -1.3499    6.1028 H   0  0  0  0  0  0  0  0  0  0  0  0
    0.1862   -0.3389    7.4624 H   0  0  0  0  0  0  0  0  0  0  0  0
   -2.9424    1.1629    6.8636 H   0  0  0  0  0  0  0  0  0  0  0  0
   -3.4708    3.5482    7.3555 H   0  0  0  0  0  0  0  0  0  0  0  0
   -1.7720    7.4747    6.7994 H   0  0  0  0  0  0  0  0  0  0  0  0
   -1.0486    6.6638    5.3632 H   0  0  0  0  0  0  0  0  0  0  0  0
   -0.2582    6.5185    6.9848 H   0  0  0  0  0  0  0  0  0  0  0  0
    0.2492    4.7305    5.5099 H   0  0  0  0  0  0  0  0  0  0  0  0
    0.7551    2.3655    5.0184 H   0  0  0  0  0  0  0  0  0  0  0  0
  1 12  1  0  0  0  0
  2  1  1  0  0  0  0
  2  3  1  0  0  0  0
  3  4  1  0  0  0  0
  4  5  2  0  0  0  0
  5  6  1  0  0  0  0
  5 26  1  0  0  0  0
  6 13  1  0  0  0  0
  7  8  1  0  0  0  0
  7  6  2  0  0  0  0
  9  8  1  0  0  0  0
  9 27  1  0  0  0  0
 10  9  1  0  0  0  0
 10 29  1  0  0  0  0
 11  7  1  0  0  0  0
 12 11  2  0  0  0  0
 12  4  1  0  0  0  0
 13 14  1  1  0  0  0
 13 16  1  0  0  0  0
 13 15  1  0  0  0  0
 15 35  1  0  0  0  0
 16 17  2  0  0  0  0
 17 18  1  0  0  0  0
 17 36  1  0  0  0  0
 18 37  1  0  0  0  0
 19 20  1  0  0  0  0
 19 18  2  0  0  0  0
 21 20  1  0  0  0  0
 21 38  1  0  0  0  0
 21 40  1  0  0  0  0
 22 19  1  0  0  0  0
 23 22  2  0  0  0  0
 23 16  1  0  0  0  0
 24  2  1  0  0  0  0
 25  2  1  0  0  0  0
 28  9  1  0  0  0  0
 30 10  1  0  0  0  0
 31 10  1  0  0  0  0
 32 11  1  0  0  0  0
 33 15  1  0  0  0  0
 34 15  1  0  0  0  0
 39 21  1  0  0  0  0
 41 22  1  0  0  0  0
 42 23  1  0  0  0  0
M  END
$$$$
