42
rmsd214.gzmat
O          0.00000        0.00000        0.00000
C          1.44760        0.00000        0.00000
O          1.92810        0.00000        1.36060
C          0.79180       -0.00020        2.14040
C          0.72100        0.00440        3.51390
C         -0.56130        0.01380        4.08430
C         -1.69690        0.00680        3.25290
O         -2.87760       -0.07850        3.92590
C         -3.99310        0.62920        3.38960
C         -3.72330        2.12290        3.33750
C         -1.62840        0.00440        1.84700
C         -0.35770        0.00090        1.32380
C         -0.77590        0.06620        5.57390
H         -1.61140       -0.64870        5.82230
C          0.44880       -0.36580        6.39030
C         -1.18090        1.46460        5.97220
C         -2.32090        1.65450        6.76140
C         -2.72130        2.93150        7.12620
C         -1.95730        4.02770        6.69790
O         -2.46100        5.21670        7.13090
C         -1.74550        6.39200        6.78070
C         -0.81760        3.86100        5.91380
C         -0.43790        2.56830        5.55620
H          1.77990        0.93280       -0.47510
H          1.78090       -0.93160       -0.47650
H          1.61820        0.00740        4.12680
H         -4.76900        0.36850        4.13720
H         -4.27100        0.20640        2.41030
H         -3.32290        2.48300        4.29920
H         -4.63360        2.69250        3.12520
H         -2.97950        2.37650        2.57220
H         -2.51400       -0.00450        1.22440
H          1.26850        0.35650        6.31100
H          0.81890       -1.34350        6.06210
H          0.19300       -0.44510        7.45370
H         -2.90340        0.79410        7.09030
H         -3.60650        3.09600        7.73380
H         -2.32190        7.17470        7.29340
H         -1.76350        6.54820        5.69770
H         -0.72140        6.36090        7.16510
H         -0.22890        4.70780        5.58100
H          0.44740        2.42060        4.93620
