rmsd11.gzmat
 OpenBabel08211713393D

 42 44  0  0  1  0  0  0  0  0999 V2000
    0.0000    0.0000    0.0000 O   0  0  0  0  0  0  0  0  0  0  0  0
    1.4477    0.0000    0.0000 C   0  0  0  0  0  0  0  0  0  0  0  0
    1.9284    0.0000    1.3606 O   0  0  0  0  0  0  0  0  0  0  0  0
    0.7922   -0.0260    2.1401 C   0  0  0  0  0  0  0  0  0  0  0  0
    0.7214   -0.0450    3.5139 C   0  0  0  0  0  0  0  0  0  0  0  0
   -0.5604   -0.0642    4.0841 C   0  0  0  0  0  0  0  0  0  0  0  0
   -1.6962   -0.0708    3.2516 C   0  0  0  0  0  0  0  0  0  0  0  0
   -2.8749   -0.1856    3.9230 O   0  0  0  0  0  0  0  0  0  0  0  0
   -4.0066    0.4964    3.3874 C   0  0  0  0  0  0  0  0  0  0  0  0
   -3.7960    2.0005    3.4094 C   0  0  0  0  0  0  0  0  0  0  0  0
   -1.6278   -0.0435    1.8464 C   0  0  0  0  0  0  0  0  0  0  0  0
   -0.3569   -0.0245    1.3236 C   0  0  0  0  0  0  0  0  0  0  0  0
   -0.7807   -0.0458    5.5738 C   0  0  1  0  0  0  0  0  0  0  0  0
   -1.5669   -0.8188    5.8082 H   0  0  0  0  0  0  0  0  0  0  0  0
    0.4676   -0.3975    6.3934 C   0  0  0  0  0  0  0  0  0  0  0  0
   -1.2798    1.3157    5.9929 C   0  0  0  0  0  0  0  0  0  0  0  0
   -0.6334    2.4741    5.5640 C   0  0  0  0  0  0  0  0  0  0  0  0
   -1.0961    3.7322    5.9460 C   0  0  0  0  0  0  0  0  0  0  0  0
   -2.2180    3.8085    6.7690 C   0  0  0  0  0  0  0  0  0  0  0  0
   -2.7954    4.9566    7.2207 O   0  0  0  0  0  0  0  0  0  0  0  0
   -2.1588    6.1782    6.8766 C   0  0  0  0  0  0  0  0  0  0  0  0
   -2.8837    2.6559    7.2132 C   0  0  0  0  0  0  0  0  0  0  0  0
   -2.4049    1.4148    6.8198 C   0  0  0  0  0  0  0  0  0  0  0  0
    1.7805    0.9323   -0.4754 H   0  0  0  0  0  0  0  0  0  0  0  0
    1.7797   -0.9328   -0.4759 H   0  0  0  0  0  0  0  0  0  0  0  0
    1.6198   -0.0390    4.1251 H   0  0  0  0  0  0  0  0  0  0  0  0
   -4.7895    0.1700    4.1007 H   0  0  0  0  0  0  0  0  0  0  0  0
   -4.2450    0.1106    2.3829 H   0  0  0  0  0  0  0  0  0  0  0  0
   -3.4014    2.3266    4.3856 H   0  0  0  0  0  0  0  0  0  0  0  0
   -4.7298    2.5438    3.2337 H   0  0  0  0  0  0  0  0  0  0  0  0
   -3.0692    2.3225    2.6539 H   0  0  0  0  0  0  0  0  0  0  0  0
   -2.5120   -0.0479    1.2218 H   0  0  0  0  0  0  0  0  0  0  0  0
    1.2621    0.3462    6.2658 H   0  0  0  0  0  0  0  0  0  0  0  0
    0.8655   -1.3779    6.1104 H   0  0  0  0  0  0  0  0  0  0  0  0
    0.2276   -0.4298    7.4634 H   0  0  0  0  0  0  0  0  0  0  0  0
    0.2402    2.3959    4.9153 H   0  0  0  0  0  0  0  0  0  0  0  0
   -0.5837    4.6223    5.6001 H   0  0  0  0  0  0  0  0  0  0  0  0
   -2.8063    6.9224    7.3597 H   0  0  0  0  0  0  0  0  0  0  0  0
   -2.1506    6.3254    5.7926 H   0  0  0  0  0  0  0  0  0  0  0  0
   -1.1483    6.2221    7.2943 H   0  0  0  0  0  0  0  0  0  0  0  0
   -3.7561    2.7496    7.8534 H   0  0  0  0  0  0  0  0  0  0  0  0
   -2.9138    0.5107    7.1537 H   0  0  0  0  0  0  0  0  0  0  0  0
  1 12  1  0  0  0  0
  2  1  1  0  0  0  0
  2  3  1  0  0  0  0
  3  4  1  0  0  0  0
  4  5  2  0  0  0  0
  5  6  1  0  0  0  0
  5 26  1  0  0  0  0
  6 13  1  0  0  0  0
  7  8  1  0  0  0  0
  7  6  2  0  0  0  0
  9 10  1  0  0  0  0
  9  8  1  0  0  0  0
  9 27  1  0  0  0  0
 10 29  1  0  0  0  0
 11  7  1  0  0  0  0
 12 11  2  0  0  0  0
 12  4  1  0  0  0  0
 13 14  1  1  0  0  0
 13 16  1  0  0  0  0
 13 15  1  0  0  0  0
 15 35  1  0  0  0  0
 16 23  2  0  0  0  0
 17 18  2  0  0  0  0
 17 16  1  0  0  0  0
 18 19  1  0  0  0  0
 19 22  2  0  0  0  0
 19 20  1  0  0  0  0
 21 20  1  0  0  0  0
 21 40  1  0  0  0  0
 21 38  1  0  0  0  0
 22 41  1  0  0  0  0
 23 42  1  0  0  0  0
 23 22  1  0  0  0  0
 24  2  1  0  0  0  0
 25  2  1  0  0  0  0
 28  9  1  0  0  0  0
 30 10  1  0  0  0  0
 31 10  1  0  0  0  0
 32 11  1  0  0  0  0
 33 15  1  0  0  0  0
 34 15  1  0  0  0  0
 36 17  1  0  0  0  0
 37 18  1  0  0  0  0
 39 21  1  0  0  0  0
M  END
$$$$
