42
rmsd5.gzmat
O          0.00000        0.00000        0.00000
C          1.44800        0.00000        0.00000
O          1.92890        0.00000        1.36030
C          0.79210        0.01070        2.14010
C          0.72070        0.02840        3.51410
C         -0.56090        0.05350        4.08270
C         -1.69850        0.04130        3.25050
O         -2.87230       -0.02040        3.93470
C         -4.03620        0.52890        3.32180
C         -3.91080        2.03580        3.17880
C         -1.62850        0.02590        1.84560
C         -0.35670        0.01230        1.32370
C         -0.77970        0.15070        5.57010
H         -1.62210       -0.54760        5.84000
C          0.43330       -0.26280        6.41130
C         -1.18040        1.57050        5.89060
C         -2.42970        1.82350        6.46740
C         -2.83960        3.12480        6.71890
C         -1.97530        4.17980        6.38960
O         -2.50500        5.40130        6.67710
C         -1.74320        6.53980        6.30320
C         -0.72030        3.94950        5.82920
C         -0.33390        2.63410        5.58000
H          1.77980        0.93320       -0.47510
H          1.78100       -0.93190       -0.47620
H          1.61870        0.03000        4.12600
H         -4.80490        0.23940        4.06650
H         -4.24530        0.01830        2.36760
H         -3.54920        2.48930        4.11630
H         -4.86990        2.50290        2.93430
H         -3.18950        2.31520        2.40100
H         -2.50960        0.01960        1.21730
H          1.27690        0.42400        6.28580
H          0.77000       -1.27160        6.14840
H          0.17810       -0.26320        7.47810
H         -3.09330        0.99270        6.70770
H         -3.80920        3.33880        7.15870
H         -2.41170        7.36660        6.57840
H         -1.54860        6.54860        5.22630
H         -0.81360        6.59000        6.87820
H         -0.04840        4.76360        5.58380
H          0.63650        2.43710        5.12310
