29
rmsd76.gzmat
Cl         0.00000        0.00000        0.00000
C          1.70810        0.00000        0.00000
C          2.41930        0.00000        1.20680
C          3.82270       -0.04070        1.14760
C          4.47220       -0.06860       -0.08140
C          3.74200       -0.05670       -1.27010
C          2.35040       -0.02150       -1.23100
N          1.73800       -0.02460        2.44890
S          1.12100        1.47680        3.14880
O          0.97460        1.10890        4.53920
O          2.01630        2.53400        2.74430
C         -0.41500        1.71240        2.39240
C         -1.47980        0.84880        2.67050
C         -2.68600        0.97830        2.00210
C         -2.83560        1.99480        1.03210
C         -1.77100        2.88710        0.77060
C         -0.57560        2.73730        1.45220
N         -4.02640        2.12910        0.35430
H          4.40290       -0.03100        2.06930
H          5.56160       -0.09320       -0.11780
H          4.25920       -0.07550       -2.22720
H          1.77620       -0.01950       -2.15770
H          2.16320       -0.65660        3.13240
H         -1.37040        0.05120        3.41590
H         -3.50640        0.30280        2.21480
H         -1.89040        3.67600        0.03700
H          0.25010        3.43090        1.23790
H         -4.13630        2.80740       -0.36540
H         -4.77290        1.48580        0.49100
