29
rmsd61.gzmat
Cl         0.00000        0.00000        0.00000
C          1.70770        0.00000        0.00000
C          2.42200        0.00000        1.20500
C          3.82500       -0.05370        1.13910
C          4.47070       -0.09220       -0.09130
C          3.73740       -0.07530       -1.27790
C          2.34680       -0.02730       -1.23270
N          1.75170       -0.02030        2.45210
S          1.10930        1.47230        3.15070
O          0.99630        1.11200        4.54640
O          1.96830        2.55050        2.72420
C         -0.44320        1.65460        2.41430
C         -1.46480        0.73850        2.68780
C         -2.66860        0.80190        2.00640
C         -2.86340        1.80800        1.03360
C         -1.85290        2.76660        0.79440
C         -0.65560        2.67820        1.48360
N         -4.04880        1.86910        0.33510
H          4.40680       -0.04960        2.05950
H          5.55900       -0.13040       -0.13010
H          4.25020       -0.10310       -2.23740
H          1.77070       -0.02170       -2.15830
H          2.19280       -0.63970        3.13750
H         -1.32170       -0.04900        3.43810
H         -3.45220        0.08160        2.21000
H         -2.01240        3.55710        0.07020
H          0.13110        3.41830        1.28000
H         -4.17790        2.52630       -0.40130
H         -4.73840        1.15830        0.43190
