rmsd12.gzmat
 OpenBabel08211713383D

 29 30  0  0  0  0  0  0  0  0999 V2000
    0.0000    0.0000    0.0000 Cl  0  0  0  0  0  0  0  0  0  0  0  0
    1.7079    0.0000    0.0000 C   0  0  0  0  0  0  0  0  0  0  0  0
    2.4215    0.0000    1.2057 C   0  0  0  0  0  0  0  0  0  0  0  0
    3.8241   -0.0656    1.1419 C   0  0  0  0  0  0  0  0  0  0  0  0
    4.4707   -0.1033   -0.0881 C   0  0  0  0  0  0  0  0  0  0  0  0
    3.7391   -0.0770   -1.2756 C   0  0  0  0  0  0  0  0  0  0  0  0
    2.3476   -0.0267   -1.2323 C   0  0  0  0  0  0  0  0  0  0  0  0
    1.7497   -0.0008    2.4520 N   0  0  0  0  0  0  0  0  0  0  0  0
    1.1004    1.5072    3.1106 S   0  0  0  0  0  0  0  0  0  0  0  0
    1.0447    1.2032    4.5229 O   0  0  0  0  0  0  0  0  0  0  0  0
    1.9196    2.5830    2.6074 O   0  0  0  0  0  0  0  0  0  0  0  0
   -0.4814    1.6261    2.4247 C   0  0  0  0  0  0  0  0  0  0  0  0
   -0.7602    2.6307    1.4904 C   0  0  0  0  0  0  0  0  0  0  0  0
   -1.9860    2.6761    0.8484 C   0  0  0  0  0  0  0  0  0  0  0  0
   -2.9591    1.6938    1.1407 C   0  0  0  0  0  0  0  0  0  0  0  0
   -2.6927    0.7003    2.1096 C   0  0  0  0  0  0  0  0  0  0  0  0
   -1.4610    0.6791    2.7418 C   0  0  0  0  0  0  0  0  0  0  0  0
   -4.1745    1.7161    0.4942 N   0  0  0  0  0  0  0  0  0  0  0  0
    4.4065   -0.0682    2.0617 H   0  0  0  0  0  0  0  0  0  0  0  0
    5.5591   -0.1459   -0.1248 H   0  0  0  0  0  0  0  0  0  0  0  0
    4.2536   -0.0983   -2.2342 H   0  0  0  0  0  0  0  0  0  0  0  0
    1.7718   -0.0143   -2.1580 H   0  0  0  0  0  0  0  0  0  0  0  0
    2.1950   -0.5991    3.1532 H   0  0  0  0  0  0  0  0  0  0  0  0
   -0.0027    3.3888    1.2442 H   0  0  0  0  0  0  0  0  0  0  0  0
   -2.1957    3.4504    0.1197 H   0  0  0  0  0  0  0  0  0  0  0  0
   -3.4450   -0.0426    2.3481 H   0  0  0  0  0  0  0  0  0  0  0  0
   -1.2628   -0.1005    3.4877 H   0  0  0  0  0  0  0  0  0  0  0  0
   -4.8488    0.9992    0.6398 H   0  0  0  0  0  0  0  0  0  0  0  0
   -4.3629    2.3749   -0.2271 H   0  0  0  0  0  0  0  0  0  0  0  0
  1  2  1  0  0  0  0
  2  3  2  0  0  0  0
  3  8  1  0  0  0  0
  4  3  1  0  0  0  0
  4 19  1  0  0  0  0
  5  4  2  0  0  0  0
  6  7  2  0  0  0  0
  6  5  1  0  0  0  0
  7  2  1  0  0  0  0
  8  9  1  0  0  0  0
  8 23  1  0  0  0  0
  9 10  2  0  0  0  0
 11  9  2  0  0  0  0
 12 17  1  0  0  0  0
 12  9  1  0  0  0  0
 13 12  2  0  0  0  0
 14 15  2  0  0  0  0
 14 13  1  0  0  0  0
 15 16  1  0  0  0  0
 16 26  1  0  0  0  0
 16 17  2  0  0  0  0
 17 27  1  0  0  0  0
 18 28  1  0  0  0  0
 18 15  1  0  0  0  0
 20  5  1  0  0  0  0
 21  6  1  0  0  0  0
 22  7  1  0  0  0  0
 24 13  1  0  0  0  0
 25 14  1  0  0  0  0
 29 18  1  0  0  0  0
M  END
$$$$
