rmsd59.gzmat
 OpenBabel08211713383D

 29 30  0  0  0  0  0  0  0  0999 V2000
    0.0000    0.0000    0.0000 Cl  0  0  0  0  0  0  0  0  0  0  0  0
    1.7076    0.0000    0.0000 C   0  0  0  0  0  0  0  0  0  0  0  0
    2.4186    0.0000    1.2071 C   0  0  0  0  0  0  0  0  0  0  0  0
    3.8214   -0.0528    1.1485 C   0  0  0  0  0  0  0  0  0  0  0  0
    4.4713   -0.0852   -0.0801 C   0  0  0  0  0  0  0  0  0  0  0  0
    3.7420   -0.0635   -1.2693 C   0  0  0  0  0  0  0  0  0  0  0  0
    2.3508   -0.0208   -1.2306 C   0  0  0  0  0  0  0  0  0  0  0  0
    1.7368   -0.0076    2.4489 N   0  0  0  0  0  0  0  0  0  0  0  0
    1.1433    1.5118    3.1312 S   0  0  0  0  0  0  0  0  0  0  0  0
    0.9920    1.1663    4.5269 O   0  0  0  0  0  0  0  0  0  0  0  0
    2.0534    2.5499    2.7108 O   0  0  0  0  0  0  0  0  0  0  0  0
   -0.3886    1.7554    2.3699 C   0  0  0  0  0  0  0  0  0  0  0  0
   -1.4617    0.9062    2.6611 C   0  0  0  0  0  0  0  0  0  0  0  0
   -2.6615    1.0282    1.9804 C   0  0  0  0  0  0  0  0  0  0  0  0
   -2.7966    2.0214    0.9842 C   0  0  0  0  0  0  0  0  0  0  0  0
   -1.7271    2.9059    0.7160 C   0  0  0  0  0  0  0  0  0  0  0  0
   -0.5378    2.7630    1.4096 C   0  0  0  0  0  0  0  0  0  0  0  0
   -3.9756    2.1368    0.2839 N   0  0  0  0  0  0  0  0  0  0  0  0
    4.4000   -0.0498    2.0713 H   0  0  0  0  0  0  0  0  0  0  0  0
    5.5600   -0.1203   -0.1139 H   0  0  0  0  0  0  0  0  0  0  0  0
    4.2591   -0.0818   -2.2266 H   0  0  0  0  0  0  0  0  0  0  0  0
    1.7767   -0.0113   -2.1575 H   0  0  0  0  0  0  0  0  0  0  0  0
    2.1528   -0.6399    3.1373 H   0  0  0  0  0  0  0  0  0  0  0  0
   -1.3635    0.1263    3.4266 H   0  0  0  0  0  0  0  0  0  0  0  0
   -3.4884    0.3640    2.2035 H   0  0  0  0  0  0  0  0  0  0  0  0
   -1.8364    3.6811   -0.0336 H   0  0  0  0  0  0  0  0  0  0  0  0
    0.2923    3.4482    1.1868 H   0  0  0  0  0  0  0  0  0  0  0  0
   -4.0860    2.8147   -0.4352 H   0  0  0  0  0  0  0  0  0  0  0  0
   -4.7321    1.5093    0.4386 H   0  0  0  0  0  0  0  0  0  0  0  0
  2  1  1  0  0  0  0
  2  3  2  0  0  0  0
  3  8  1  0  0  0  0
  4  3  1  0  0  0  0
  4 19  1  0  0  0  0
  5  4  2  0  0  0  0
  6  7  2  0  0  0  0
  6  5  1  0  0  0  0
  7  2  1  0  0  0  0
  8  9  1  0  0  0  0
  8 23  1  0  0  0  0
  9 10  2  0  0  0  0
 11  9  2  0  0  0  0
 12 13  1  0  0  0  0
 12  9  1  0  0  0  0
 13 24  1  0  0  0  0
 14 25  1  0  0  0  0
 14 13  2  0  0  0  0
 15 14  1  0  0  0  0
 16 15  2  0  0  0  0
 16 17  1  0  0  0  0
 17 12  2  0  0  0  0
 18 29  1  0  0  0  0
 18 15  1  0  0  0  0
 20  5  1  0  0  0  0
 21  6  1  0  0  0  0
 22  7  1  0  0  0  0
 26 16  1  0  0  0  0
 27 17  1  0  0  0  0
 28 18  1  0  0  0  0
M  END
$$$$
