29
rmsd12.gzmat
Cl         0.00000        0.00000        0.00000
C          1.70790        0.00000        0.00000
C          2.42150        0.00000        1.20570
C          3.82410       -0.06560        1.14190
C          4.47070       -0.10330       -0.08810
C          3.73910       -0.07700       -1.27560
C          2.34760       -0.02670       -1.23230
N          1.74970       -0.00080        2.45200
S          1.10040        1.50720        3.11060
O          1.04470        1.20320        4.52290
O          1.91960        2.58300        2.60740
C         -0.48140        1.62610        2.42470
C         -0.76020        2.63070        1.49040
C         -1.98600        2.67610        0.84840
C         -2.95910        1.69380        1.14070
C         -2.69270        0.70030        2.10960
C         -1.46100        0.67910        2.74180
N         -4.17450        1.71610        0.49420
H          4.40650       -0.06820        2.06170
H          5.55910       -0.14590       -0.12480
H          4.25360       -0.09830       -2.23420
H          1.77180       -0.01430       -2.15800
H          2.19500       -0.59910        3.15320
H         -0.00270        3.38880        1.24420
H         -2.19570        3.45040        0.11970
H         -3.44500       -0.04260        2.34810
H         -1.26280       -0.10050        3.48770
H         -4.84880        0.99920        0.63980
H         -4.36290        2.37490       -0.22710
