rmsd58.gzmat
 OpenBabel08211713383D

 29 30  0  0  0  0  0  0  0  0999 V2000
    0.0000    0.0000    0.0000 Cl  0  0  0  0  0  0  0  0  0  0  0  0
    1.7078    0.0000    0.0000 C   0  0  0  0  0  0  0  0  0  0  0  0
    2.4186    0.0000    1.2071 C   0  0  0  0  0  0  0  0  0  0  0  0
    3.8207   -0.0634    1.1486 C   0  0  0  0  0  0  0  0  0  0  0  0
    4.4709   -0.0948   -0.0802 C   0  0  0  0  0  0  0  0  0  0  0  0
    3.7421   -0.0646   -1.2693 C   0  0  0  0  0  0  0  0  0  0  0  0
    2.3504   -0.0204   -1.2307 C   0  0  0  0  0  0  0  0  0  0  0  0
    1.7347    0.0094    2.4480 N   0  0  0  0  0  0  0  0  0  0  0  0
    1.1622    1.5443    3.1132 S   0  0  0  0  0  0  0  0  0  0  0  0
    0.9903    1.2130    4.5098 O   0  0  0  0  0  0  0  0  0  0  0  0
    2.0953    2.5625    2.6939 O   0  0  0  0  0  0  0  0  0  0  0  0
   -0.3572    1.8105    2.3339 C   0  0  0  0  0  0  0  0  0  0  0  0
   -1.4527    0.9912    2.6277 C   0  0  0  0  0  0  0  0  0  0  0  0
   -2.6447    1.1343    1.9370 C   0  0  0  0  0  0  0  0  0  0  0  0
   -2.7494    2.1223    0.9323 C   0  0  0  0  0  0  0  0  0  0  0  0
   -1.6549    2.9732    0.6577 C   0  0  0  0  0  0  0  0  0  0  0  0
   -0.4734    2.8084    1.3597 C   0  0  0  0  0  0  0  0  0  0  0  0
   -3.9297    2.2777    0.2388 N   0  0  0  0  0  0  0  0  0  0  0  0
    4.3988   -0.0669    2.0716 H   0  0  0  0  0  0  0  0  0  0  0  0
    5.5594   -0.1337   -0.1148 H   0  0  0  0  0  0  0  0  0  0  0  0
    4.2579   -0.0743   -2.2271 H   0  0  0  0  0  0  0  0  0  0  0  0
    1.7775   -0.0067   -2.1577 H   0  0  0  0  0  0  0  0  0  0  0  0
    2.1405   -0.6218    3.1430 H   0  0  0  0  0  0  0  0  0  0  0  0
   -1.3759    0.2178    3.4023 H   0  0  0  0  0  0  0  0  0  0  0  0
   -3.4883    0.4912    2.1592 H   0  0  0  0  0  0  0  0  0  0  0  0
   -1.7411    3.7442   -0.0994 H   0  0  0  0  0  0  0  0  0  0  0  0
    0.3767    3.4680    1.1341 H   0  0  0  0  0  0  0  0  0  0  0  0
   -3.9924    2.9097   -0.5279 H   0  0  0  0  0  0  0  0  0  0  0  0
   -4.6837    1.6395    0.3600 H   0  0  0  0  0  0  0  0  0  0  0  0
  2  1  1  0  0  0  0
  2  3  2  0  0  0  0
  3  8  1  0  0  0  0
  4  3  1  0  0  0  0
  4 19  1  0  0  0  0
  5  4  2  0  0  0  0
  6  7  2  0  0  0  0
  6  5  1  0  0  0  0
  7  2  1  0  0  0  0
  8  9  1  0  0  0  0
  8 23  1  0  0  0  0
  9 10  2  0  0  0  0
 11  9  2  0  0  0  0
 12 13  1  0  0  0  0
 12  9  1  0  0  0  0
 13 24  1  0  0  0  0
 14 25  1  0  0  0  0
 14 13  2  0  0  0  0
 15 14  1  0  0  0  0
 16 15  2  0  0  0  0
 16 17  1  0  0  0  0
 17 12  2  0  0  0  0
 18 29  1  0  0  0  0
 18 15  1  0  0  0  0
 20  5  1  0  0  0  0
 21  6  1  0  0  0  0
 22  7  1  0  0  0  0
 26 16  1  0  0  0  0
 27 17  1  0  0  0  0
 28 18  1  0  0  0  0
M  END
$$$$
