rmsd3.gzmat
 OpenBabel08211713383D

 29 30  0  0  0  0  0  0  0  0999 V2000
    0.0000    0.0000    0.0000 Cl  0  0  0  0  0  0  0  0  0  0  0  0
    1.7084    0.0000    0.0000 C   0  0  0  0  0  0  0  0  0  0  0  0
    2.4169    0.0000    1.2090 C   0  0  0  0  0  0  0  0  0  0  0  0
    3.8207   -0.0716    1.1489 C   0  0  0  0  0  0  0  0  0  0  0  0
    4.4711   -0.1138   -0.0788 C   0  0  0  0  0  0  0  0  0  0  0  0
    3.7438   -0.0858   -1.2689 C   0  0  0  0  0  0  0  0  0  0  0  0
    2.3525   -0.0281   -1.2296 C   0  0  0  0  0  0  0  0  0  0  0  0
    1.7513   -0.0069    2.4554 N   0  0  0  0  0  0  0  0  0  0  0  0
    0.9092    1.4370    3.0399 S   0  0  0  0  0  0  0  0  0  0  0  0
    1.1171    1.3155    4.4658 O   0  0  0  0  0  0  0  0  0  0  0  0
    1.4150    2.5636    2.2956 O   0  0  0  0  0  0  0  0  0  0  0  0
   -0.7551    1.1851    2.6402 C   0  0  0  0  0  0  0  0  0  0  0  0
   -1.4523    0.0928    3.1655 C   0  0  0  0  0  0  0  0  0  0  0  0
   -2.7770   -0.1287    2.8269 C   0  0  0  0  0  0  0  0  0  0  0  0
   -3.4237    0.7570    1.9359 C   0  0  0  0  0  0  0  0  0  0  0  0
   -2.7216    1.8625    1.4044 C   0  0  0  0  0  0  0  0  0  0  0  0
   -1.4000    2.0660    1.7630 C   0  0  0  0  0  0  0  0  0  0  0  0
   -4.7411    0.5487    1.5948 N   0  0  0  0  0  0  0  0  0  0  0  0
    4.3997   -0.0803    2.0703 H   0  0  0  0  0  0  0  0  0  0  0  0
    5.5598   -0.1612   -0.1127 H   0  0  0  0  0  0  0  0  0  0  0  0
    4.2621   -0.1099   -2.2251 H   0  0  0  0  0  0  0  0  0  0  0  0
    1.7798   -0.0112   -2.1572 H   0  0  0  0  0  0  0  0  0  0  0  0
    2.2774   -0.4882    3.1923 H   0  0  0  0  0  0  0  0  0  0  0  0
   -0.9584   -0.6060    3.8513 H   0  0  0  0  0  0  0  0  0  0  0  0
   -3.3129   -0.9774    3.2357 H   0  0  0  0  0  0  0  0  0  0  0  0
   -3.2146    2.5394    0.7165 H   0  0  0  0  0  0  0  0  0  0  0  0
   -0.8597    2.9265    1.3413 H   0  0  0  0  0  0  0  0  0  0  0  0
   -5.2062    1.1372    0.9417 H   0  0  0  0  0  0  0  0  0  0  0  0
   -5.2439   -0.2394    1.9347 H   0  0  0  0  0  0  0  0  0  0  0  0
  2  1  1  0  0  0  0
  2  3  2  0  0  0  0
  3  8  1  0  0  0  0
  4  3  1  0  0  0  0
  4 19  1  0  0  0  0
  5  4  2  0  0  0  0
  6  7  2  0  0  0  0
  6  5  1  0  0  0  0
  7  2  1  0  0  0  0
  8  9  1  0  0  0  0
  8 23  1  0  0  0  0
  9 10  2  0  0  0  0
 11  9  2  0  0  0  0
 12  9  1  0  0  0  0
 12 13  2  0  0  0  0
 13 24  1  0  0  0  0
 14 13  1  0  0  0  0
 14 25  1  0  0  0  0
 15 14  2  0  0  0  0
 16 17  2  0  0  0  0
 16 15  1  0  0  0  0
 17 12  1  0  0  0  0
 18 29  1  0  0  0  0
 18 15  1  0  0  0  0
 20  5  1  0  0  0  0
 21  6  1  0  0  0  0
 22  7  1  0  0  0  0
 26 16  1  0  0  0  0
 27 17  1  0  0  0  0
 28 18  1  0  0  0  0
M  END
$$$$
