rmsd76.gzmat
 OpenBabel08211713383D

 29 30  0  0  0  0  0  0  0  0999 V2000
    0.0000    0.0000    0.0000 Cl  0  0  0  0  0  0  0  0  0  0  0  0
    1.7081    0.0000    0.0000 C   0  0  0  0  0  0  0  0  0  0  0  0
    2.4193    0.0000    1.2068 C   0  0  0  0  0  0  0  0  0  0  0  0
    3.8227   -0.0407    1.1476 C   0  0  0  0  0  0  0  0  0  0  0  0
    4.4722   -0.0686   -0.0814 C   0  0  0  0  0  0  0  0  0  0  0  0
    3.7420   -0.0567   -1.2701 C   0  0  0  0  0  0  0  0  0  0  0  0
    2.3504   -0.0215   -1.2310 C   0  0  0  0  0  0  0  0  0  0  0  0
    1.7380   -0.0246    2.4489 N   0  0  0  0  0  0  0  0  0  0  0  0
    1.1210    1.4768    3.1488 S   0  0  0  0  0  0  0  0  0  0  0  0
    0.9746    1.1089    4.5392 O   0  0  0  0  0  0  0  0  0  0  0  0
    2.0163    2.5340    2.7443 O   0  0  0  0  0  0  0  0  0  0  0  0
   -0.4150    1.7124    2.3924 C   0  0  0  0  0  0  0  0  0  0  0  0
   -1.4798    0.8488    2.6705 C   0  0  0  0  0  0  0  0  0  0  0  0
   -2.6860    0.9783    2.0021 C   0  0  0  0  0  0  0  0  0  0  0  0
   -2.8356    1.9948    1.0321 C   0  0  0  0  0  0  0  0  0  0  0  0
   -1.7710    2.8871    0.7706 C   0  0  0  0  0  0  0  0  0  0  0  0
   -0.5756    2.7373    1.4522 C   0  0  0  0  0  0  0  0  0  0  0  0
   -4.0264    2.1291    0.3543 N   0  0  0  0  0  0  0  0  0  0  0  0
    4.4029   -0.0310    2.0693 H   0  0  0  0  0  0  0  0  0  0  0  0
    5.5616   -0.0932   -0.1178 H   0  0  0  0  0  0  0  0  0  0  0  0
    4.2592   -0.0755   -2.2272 H   0  0  0  0  0  0  0  0  0  0  0  0
    1.7762   -0.0195   -2.1577 H   0  0  0  0  0  0  0  0  0  0  0  0
    2.1632   -0.6566    3.1324 H   0  0  0  0  0  0  0  0  0  0  0  0
   -1.3704    0.0512    3.4159 H   0  0  0  0  0  0  0  0  0  0  0  0
   -3.5064    0.3028    2.2148 H   0  0  0  0  0  0  0  0  0  0  0  0
   -1.8904    3.6760    0.0370 H   0  0  0  0  0  0  0  0  0  0  0  0
    0.2501    3.4309    1.2379 H   0  0  0  0  0  0  0  0  0  0  0  0
   -4.1363    2.8074   -0.3654 H   0  0  0  0  0  0  0  0  0  0  0  0
   -4.7729    1.4858    0.4910 H   0  0  0  0  0  0  0  0  0  0  0  0
  2  1  1  0  0  0  0
  2  3  2  0  0  0  0
  3  8  1  0  0  0  0
  4  3  1  0  0  0  0
  4 19  1  0  0  0  0
  5  4  2  0  0  0  0
  6  7  2  0  0  0  0
  6  5  1  0  0  0  0
  7  2  1  0  0  0  0
  8 23  1  0  0  0  0
  8  9  1  0  0  0  0
  9 10  2  0  0  0  0
 11  9  2  0  0  0  0
 12 13  1  0  0  0  0
 12  9  1  0  0  0  0
 13 24  1  0  0  0  0
 14 25  1  0  0  0  0
 14 13  2  0  0  0  0
 15 14  1  0  0  0  0
 16 15  2  0  0  0  0
 16 17  1  0  0  0  0
 17 12  2  0  0  0  0
 18 29  1  0  0  0  0
 18 15  1  0  0  0  0
 20  5  1  0  0  0  0
 21  6  1  0  0  0  0
 22  7  1  0  0  0  0
 26 16  1  0  0  0  0
 27 17  1  0  0  0  0
 28 18  1  0  0  0  0
M  END
$$$$
