18
rmsd12.gzmat
C          0.00000        0.00000        0.00000
N          1.29470        0.00000        0.00000
N          1.83950        0.00000        1.24120
C          0.92300        0.01060        2.22370
N          1.23810        0.01310        3.57020
C          2.51690       -0.00560        4.14030
O          2.56750       -0.00340        5.35870
C          3.72940       -0.02110        3.27540
S         -0.81490       -0.00340        1.64310
S         -1.42660       -0.00610       -1.02250
O         -1.65200        1.26580       -1.69010
O         -1.53270       -1.19880       -1.83860
N         -2.29240       -0.08410        0.46830
H         -3.04600        0.54890        0.64090
H          0.45610        0.02290        4.22760
H          3.75270        0.84950        2.59420
H          3.73810       -0.89550        2.59960
H          4.64630       -0.02700        3.87510
