rmsd18.gzmat
 OpenBabel08211713363D

 18 19  0  0  0  0  0  0  0  0999 V2000
    0.0000    0.0000    0.0000 C   0  0  0  0  0  0  0  0  0  0  0  0
    1.2946    0.0000    0.0000 N   0  0  0  0  0  0  0  0  0  0  0  0
    1.8397    0.0000    1.2411 N   0  0  0  0  0  0  0  0  0  0  0  0
    0.9233   -0.0099    2.2238 C   0  0  0  0  0  0  0  0  0  0  0  0
    1.2379   -0.0085    3.5703 N   0  0  0  0  0  0  0  0  0  0  0  0
    2.5155    0.0004    4.1419 C   0  0  0  0  0  0  0  0  0  0  0  0
    2.5633    0.0089    5.3603 O   0  0  0  0  0  0  0  0  0  0  0  0
    3.7287   -0.0045    3.2776 C   0  0  0  0  0  0  0  0  0  0  0  0
   -0.8144   -0.0002    1.6439 S   0  0  1  0  0  0  0  0  0  0  0  0
   -1.4273   -0.0005   -1.0215 S   0  0  0  0  0  0  0  0  0  0  0  0
   -1.5408    1.1919   -1.8369 O   0  0  0  0  0  0  0  0  0  0  0  0
   -1.6473   -1.2731   -1.6896 O   0  0  0  0  0  0  0  0  0  0  0  0
   -2.2929    0.0710    0.4702 N   0  0  0  0  0  0  0  0  0  0  0  0
   -3.0398   -0.5696    0.6423 H   0  0  0  0  0  0  0  0  0  0  0  0
    0.4550   -0.0064    4.2267 H   0  0  0  0  0  0  0  0  0  0  0  0
    3.7439    0.8635    2.5927 H   0  0  0  0  0  0  0  0  0  0  0  0
    3.7453   -0.8817    2.6051 H   0  0  0  0  0  0  0  0  0  0  0  0
    4.6457    0.0000    3.8766 H   0  0  0  0  0  0  0  0  0  0  0  0
  1  2  2  0  0  0  0
  2  3  1  0  0  0  0
  3  4  2  0  0  0  0
  4  5  1  0  0  0  0
  5  6  1  0  0  0  0
  5 15  1  0  0  0  0
  6  7  2  0  0  0  0
  8 18  1  0  0  0  0
  8  6  1  0  0  0  0
  9  1  1  6  0  0  0
  9  4  1  0  0  0  0
 10  1  1  0  0  0  0
 10 13  1  0  0  0  0
 11 10  2  0  0  0  0
 12 10  2  0  0  0  0
 13 14  1  0  0  0  0
 13  9  1  0  0  0  0
 16  8  1  0  0  0  0
 17  8  1  0  0  0  0
M  END
$$$$
