rmsd19.gzmat
 OpenBabel08211713363D

 18 19  0  0  0  0  0  0  0  0999 V2000
    0.0000    0.0000    0.0000 C   0  0  0  0  0  0  0  0  0  0  0  0
    1.2947    0.0000    0.0000 N   0  0  0  0  0  0  0  0  0  0  0  0
    1.8395    0.0000    1.2410 N   0  0  0  0  0  0  0  0  0  0  0  0
    0.9229   -0.0114    2.2235 C   0  0  0  0  0  0  0  0  0  0  0  0
    1.2382   -0.0164    3.5698 N   0  0  0  0  0  0  0  0  0  0  0  0
    2.5167    0.0028    4.1397 C   0  0  0  0  0  0  0  0  0  0  0  0
    2.5672   -0.0059    5.3583 O   0  0  0  0  0  0  0  0  0  0  0  0
    3.7288    0.0306    3.2745 C   0  0  0  0  0  0  0  0  0  0  0  0
   -0.8150    0.0019    1.6433 S   0  0  1  0  0  0  0  0  0  0  0  0
   -1.4263    0.0009   -1.0223 S   0  0  0  0  0  0  0  0  0  0  0  0
   -1.5349    1.1887   -1.8452 O   0  0  0  0  0  0  0  0  0  0  0  0
   -1.6518   -1.2747   -1.6827 O   0  0  0  0  0  0  0  0  0  0  0  0
   -2.2922    0.0838    0.4684 N   0  0  0  0  0  0  0  0  0  0  0  0
   -3.0491   -0.5460    0.6405 H   0  0  0  0  0  0  0  0  0  0  0  0
    0.4561   -0.0309    4.2270 H   0  0  0  0  0  0  0  0  0  0  0  0
    3.7262    0.9039    2.5968 H   0  0  0  0  0  0  0  0  0  0  0  0
    3.7625   -0.8402    2.5944 H   0  0  0  0  0  0  0  0  0  0  0  0
    4.6456    0.0493    3.8739 H   0  0  0  0  0  0  0  0  0  0  0  0
  1  2  2  0  0  0  0
  2  3  1  0  0  0  0
  3  4  2  0  0  0  0
  4  5  1  0  0  0  0
  5  6  1  0  0  0  0
  5 15  1  0  0  0  0
  6  7  2  0  0  0  0
  8 18  1  0  0  0  0
  8  6  1  0  0  0  0
  9  1  1  6  0  0  0
  9  4  1  0  0  0  0
 10  1  1  0  0  0  0
 10 13  1  0  0  0  0
 11 10  2  0  0  0  0
 12 10  2  0  0  0  0
 13 14  1  0  0  0  0
 13  9  1  0  0  0  0
 16  8  1  0  0  0  0
 17  8  1  0  0  0  0
M  END
$$$$
