rmsd3.gzmat
 OpenBabel08211713363D

 18 19  0  0  0  0  0  0  0  0999 V2000
    0.0000    0.0000    0.0000 C   0  0  0  0  0  0  0  0  0  0  0  0
    1.2948    0.0000    0.0000 N   0  0  0  0  0  0  0  0  0  0  0  0
    1.8396    0.0000    1.2411 N   0  0  0  0  0  0  0  0  0  0  0  0
    0.9234   -0.0121    2.2236 C   0  0  0  0  0  0  0  0  0  0  0  0
    1.2392   -0.0135    3.5700 N   0  0  0  0  0  0  0  0  0  0  0  0
    2.5175    0.0179    4.1400 C   0  0  0  0  0  0  0  0  0  0  0  0
    2.5674    0.0178    5.3584 O   0  0  0  0  0  0  0  0  0  0  0  0
    3.7295    0.0471    3.2742 C   0  0  0  0  0  0  0  0  0  0  0  0
   -0.8145   -0.0000    1.6437 S   0  0  1  0  0  0  0  0  0  0  0  0
   -1.4270    0.0011   -1.0216 S   0  0  0  0  0  0  0  0  0  0  0  0
   -1.5369    1.1916   -1.8403 O   0  0  0  0  0  0  0  0  0  0  0  0
   -1.6501   -1.2729   -1.6860 O   0  0  0  0  0  0  0  0  0  0  0  0
   -2.2926    0.0795    0.4697 N   0  0  0  0  0  0  0  0  0  0  0  0
   -3.0443   -0.5557    0.6430 H   0  0  0  0  0  0  0  0  0  0  0  0
    0.4572   -0.0296    4.2274 H   0  0  0  0  0  0  0  0  0  0  0  0
    3.7197    0.9142    2.5878 H   0  0  0  0  0  0  0  0  0  0  0  0
    3.7692   -0.8312    2.6032 H   0  0  0  0  0  0  0  0  0  0  0  0
    4.6464    0.0788    3.8725 H   0  0  0  0  0  0  0  0  0  0  0  0
  1  2  2  0  0  0  0
  2  3  1  0  0  0  0
  3  4  2  0  0  0  0
  4  5  1  0  0  0  0
  5  6  1  0  0  0  0
  5 15  1  0  0  0  0
  6  7  2  0  0  0  0
  8 18  1  0  0  0  0
  8  6  1  0  0  0  0
  9  1  1  6  0  0  0
  9  4  1  0  0  0  0
 10  1  1  0  0  0  0
 10 13  1  0  0  0  0
 11 10  2  0  0  0  0
 12 10  2  0  0  0  0
 13 14  1  0  0  0  0
 13  9  1  0  0  0  0
 16  8  1  0  0  0  0
 17  8  1  0  0  0  0
M  END
$$$$
