rmsd44.gzmat
 OpenBabel08211713363D

 18 19  0  0  0  0  0  0  0  0999 V2000
    0.0000    0.0000    0.0000 C   0  0  0  0  0  0  0  0  0  0  0  0
    1.2947    0.0000    0.0000 N   0  0  0  0  0  0  0  0  0  0  0  0
    1.8397    0.0000    1.2410 N   0  0  0  0  0  0  0  0  0  0  0  0
    0.9237   -0.0112    2.2237 C   0  0  0  0  0  0  0  0  0  0  0  0
    1.2402   -0.0197    3.5700 N   0  0  0  0  0  0  0  0  0  0  0  0
    2.5191   -0.0278    4.1393 C   0  0  0  0  0  0  0  0  0  0  0  0
    2.5702   -0.0346    5.3576 O   0  0  0  0  0  0  0  0  0  0  0  0
    3.7308   -0.0302    3.2733 C   0  0  0  0  0  0  0  0  0  0  0  0
   -0.8146    0.0032    1.6437 S   0  0  1  0  0  0  0  0  0  0  0  0
   -1.4271   -0.0043   -1.0217 S   0  0  0  0  0  0  0  0  0  0  0  0
   -1.5413    1.1840   -1.8430 O   0  0  0  0  0  0  0  0  0  0  0  0
   -1.6456   -1.2805   -1.6838 O   0  0  0  0  0  0  0  0  0  0  0  0
   -2.2930    0.0751    0.4695 N   0  0  0  0  0  0  0  0  0  0  0  0
   -3.0419   -0.5629    0.6442 H   0  0  0  0  0  0  0  0  0  0  0  0
    0.4586   -0.0166    4.2278 H   0  0  0  0  0  0  0  0  0  0  0  0
    3.7519    0.8491    2.6037 H   0  0  0  0  0  0  0  0  0  0  0  0
    3.7391   -0.8970    2.5870 H   0  0  0  0  0  0  0  0  0  0  0  0
    4.6483   -0.0418    3.8716 H   0  0  0  0  0  0  0  0  0  0  0  0
  1  2  2  0  0  0  0
  2  3  1  0  0  0  0
  3  4  2  0  0  0  0
  4  5  1  0  0  0  0
  5  6  1  0  0  0  0
  5 15  1  0  0  0  0
  6  7  2  0  0  0  0
  8 18  1  0  0  0  0
  8  6  1  0  0  0  0
  9  1  1  6  0  0  0
  9  4  1  0  0  0  0
 10  1  1  0  0  0  0
 10 13  1  0  0  0  0
 11 10  2  0  0  0  0
 12 10  2  0  0  0  0
 13 14  1  0  0  0  0
 13  9  1  0  0  0  0
 16  8  1  0  0  0  0
 17  8  1  0  0  0  0
M  END
$$$$
