rmsd56.gzmat
 OpenBabel08211713363D

 18 19  0  0  0  0  0  0  0  0999 V2000
    0.0000    0.0000    0.0000 C   0  0  0  0  0  0  0  0  0  0  0  0
    1.2947    0.0000    0.0000 N   0  0  0  0  0  0  0  0  0  0  0  0
    1.8395    0.0000    1.2412 N   0  0  0  0  0  0  0  0  0  0  0  0
    0.9234   -0.0114    2.2237 C   0  0  0  0  0  0  0  0  0  0  0  0
    1.2392   -0.0192    3.5699 N   0  0  0  0  0  0  0  0  0  0  0  0
    2.5176   -0.0128    4.1402 C   0  0  0  0  0  0  0  0  0  0  0  0
    2.5672   -0.0182    5.3589 O   0  0  0  0  0  0  0  0  0  0  0  0
    3.7305   -0.0022    3.2753 C   0  0  0  0  0  0  0  0  0  0  0  0
   -0.8144    0.0054    1.6438 S   0  0  1  0  0  0  0  0  0  0  0  0
   -1.4272   -0.0039   -1.0214 S   0  0  0  0  0  0  0  0  0  0  0  0
   -1.5381    1.1821   -1.8469 O   0  0  0  0  0  0  0  0  0  0  0  0
   -1.6500   -1.2820   -1.6784 O   0  0  0  0  0  0  0  0  0  0  0  0
   -2.2924    0.0830    0.4698 N   0  0  0  0  0  0  0  0  0  0  0  0
   -3.0452   -0.5500    0.6465 H   0  0  0  0  0  0  0  0  0  0  0  0
    0.4572   -0.0232    4.2275 H   0  0  0  0  0  0  0  0  0  0  0  0
    3.7465    0.8790    2.6074 H   0  0  0  0  0  0  0  0  0  0  0  0
    3.7456   -0.8667    2.5855 H   0  0  0  0  0  0  0  0  0  0  0  0
    4.6474   -0.0098    3.8750 H   0  0  0  0  0  0  0  0  0  0  0  0
  1  2  2  0  0  0  0
  2  3  1  0  0  0  0
  3  4  2  0  0  0  0
  4  5  1  0  0  0  0
  5  6  1  0  0  0  0
  5 15  1  0  0  0  0
  6  7  2  0  0  0  0
  8 18  1  0  0  0  0
  8  6  1  0  0  0  0
  9  1  1  6  0  0  0
  9  4  1  0  0  0  0
 10  1  1  0  0  0  0
 10 13  1  0  0  0  0
 11 10  2  0  0  0  0
 12 10  2  0  0  0  0
 13 14  1  0  0  0  0
 13  9  1  0  0  0  0
 16  8  1  0  0  0  0
 17  8  1  0  0  0  0
M  END
$$$$
