18
rmsd3.gzmat
C          0.00000        0.00000        0.00000
N          1.29480        0.00000        0.00000
N          1.83960        0.00000        1.24110
C          0.92340       -0.01210        2.22360
N          1.23920       -0.01350        3.57000
C          2.51750        0.01790        4.14000
O          2.56740        0.01780        5.35840
C          3.72950        0.04710        3.27420
S         -0.81450       -0.00000        1.64370
S         -1.42700        0.00110       -1.02160
O         -1.53690        1.19160       -1.84030
O         -1.65010       -1.27290       -1.68600
N         -2.29260        0.07950        0.46970
H         -3.04430       -0.55570        0.64300
H          0.45720       -0.02960        4.22740
H          3.71970        0.91420        2.58780
H          3.76920       -0.83120        2.60320
H          4.64640        0.07880        3.87250
