18
rmsd18.gzmat
C          0.00000        0.00000        0.00000
N          1.29460        0.00000        0.00000
N          1.83970        0.00000        1.24110
C          0.92330       -0.00990        2.22380
N          1.23790       -0.00850        3.57030
C          2.51550        0.00040        4.14190
O          2.56330        0.00890        5.36030
C          3.72870       -0.00450        3.27760
S         -0.81440       -0.00020        1.64390
S         -1.42730       -0.00050       -1.02150
O         -1.54080        1.19190       -1.83690
O         -1.64730       -1.27310       -1.68960
N         -2.29290        0.07100        0.47020
H         -3.03980       -0.56960        0.64230
H          0.45500       -0.00640        4.22670
H          3.74390        0.86350        2.59270
H          3.74530       -0.88170        2.60510
H          4.64570        0.00000        3.87660
