rmsd22.gzmat
 OpenBabel08211713363D

 18 19  0  0  0  0  0  0  0  0999 V2000
    0.0000    0.0000    0.0000 C   0  0  0  0  0  0  0  0  0  0  0  0
    1.2946    0.0000    0.0000 N   0  0  0  0  0  0  0  0  0  0  0  0
    1.8392    0.0000    1.2413 N   0  0  0  0  0  0  0  0  0  0  0  0
    0.9228    0.0060    2.2237 C   0  0  0  0  0  0  0  0  0  0  0  0
    1.2384    0.0061    3.5701 N   0  0  0  0  0  0  0  0  0  0  0  0
    2.5169    0.0326    4.1396 C   0  0  0  0  0  0  0  0  0  0  0  0
    2.5689    0.0180    5.3581 O   0  0  0  0  0  0  0  0  0  0  0  0
    3.7278    0.0816    3.2733 C   0  0  0  0  0  0  0  0  0  0  0  0
   -0.8152   -0.0039    1.6426 S   0  0  2  0  0  0  0  0  0  0  0  0
   -1.4261    0.0039   -1.0232 S   0  0  0  0  0  0  0  0  0  0  0  0
   -1.6420    1.2774   -1.6912 O   0  0  0  0  0  0  0  0  0  0  0  0
   -1.5399   -1.1880   -1.8396 O   0  0  0  0  0  0  0  0  0  0  0  0
   -2.2940   -0.0675    0.4674 N   0  0  0  0  0  0  0  0  0  0  0  0
   -3.0386    0.5760    0.6407 H   0  0  0  0  0  0  0  0  0  0  0  0
    0.4569   -0.0235    4.2270 H   0  0  0  0  0  0  0  0  0  0  0  0
    3.7107    0.9565    2.5977 H   0  0  0  0  0  0  0  0  0  0  0  0
    3.7751   -0.7880    2.5922 H   0  0  0  0  0  0  0  0  0  0  0  0
    4.6450    0.1110    3.8721 H   0  0  0  0  0  0  0  0  0  0  0  0
  1  2  2  0  0  0  0
  2  3  1  0  0  0  0
  3  4  2  0  0  0  0
  4  5  1  0  0  0  0
  5  6  1  0  0  0  0
  5 15  1  0  0  0  0
  6  7  2  0  0  0  0
  8 18  1  0  0  0  0
  8  6  1  0  0  0  0
  9  1  1  6  0  0  0
  9  4  1  0  0  0  0
 10  1  1  0  0  0  0
 10 13  1  0  0  0  0
 11 10  2  0  0  0  0
 12 10  2  0  0  0  0
 13 14  1  0  0  0  0
 13  9  1  0  0  0  0
 16  8  1  0  0  0  0
 17  8  1  0  0  0  0
M  END
$$$$
