18
rmsd44.gzmat
C          0.00000        0.00000        0.00000
N          1.29470        0.00000        0.00000
N          1.83970        0.00000        1.24100
C          0.92370       -0.01120        2.22370
N          1.24020       -0.01970        3.57000
C          2.51910       -0.02780        4.13930
O          2.57020       -0.03460        5.35760
C          3.73080       -0.03020        3.27330
S         -0.81460        0.00320        1.64370
S         -1.42710       -0.00430       -1.02170
O         -1.54130        1.18400       -1.84300
O         -1.64560       -1.28050       -1.68380
N         -2.29300        0.07510        0.46950
H         -3.04190       -0.56290        0.64420
H          0.45860       -0.01660        4.22780
H          3.75190        0.84910        2.60370
H          3.73910       -0.89700        2.58700
H          4.64830       -0.04180        3.87160
