18
rmsd54.gzmat
C          0.00000        0.00000        0.00000
N          1.29480        0.00000        0.00000
N          1.83920        0.00000        1.24080
C          0.92290        0.01490        2.22350
N          1.24100        0.01440        3.56930
C          2.51660       -0.08680        4.13650
O          2.57180       -0.06330        5.35470
C          3.72090       -0.22270        3.26970
S         -0.81510        0.00150        1.64260
S         -1.42540       -0.01910       -1.02300
O         -1.66110        1.24720       -1.69740
O         -1.52230       -1.21720       -1.83240
N         -2.29170       -0.09410        0.46830
H         -3.04870        0.53680        0.63620
H          0.46290        0.08700        4.22720
H          3.82090        0.63330        2.57630
H          3.64950       -1.10330        2.60560
H          4.63510       -0.30210        3.86820
