35
rmsd143.gzmat
O          0.00000        0.00000        0.00000
C          1.19890        0.00000        0.00000
O          1.91660        0.00000        1.17530
C          3.33000        0.06740        0.92970
H          3.75730       -0.81080        1.46410
C          3.48600       -0.03180       -0.60730
N          2.08940       -0.00080       -1.07690
C          1.75450        0.00720       -2.44270
C          2.76630       -0.13110       -3.40780
C          2.43230       -0.11150       -4.75920
C          1.10840        0.04120       -5.16180
C          0.10690        0.17390       -4.20020
C          0.41750        0.15900       -2.84590
C          3.82640        1.38520        1.53130
O          4.82510        1.12900        2.50060
C          4.43890        0.71950        3.74550
C          3.13460        0.43450        4.13940
C          2.91540        0.01630        5.45180
C          3.97780       -0.11100        6.34270
C          5.27930        0.18050        5.92680
C          5.52460        0.59760        4.62530
H          4.06900        0.80890       -1.03750
H          3.98480       -0.97830       -0.90820
H          3.80470       -0.25830       -3.12150
H          3.21790       -0.21770       -5.50700
H          0.85650        0.05560       -6.21870
H         -0.93250        0.29050       -4.51020
H         -0.38330        0.26300       -2.11060
H          2.99430        1.98520        1.94930
H          4.38500        2.01370        0.80910
H          2.29450        0.52400        3.45420
H          1.90030       -0.21320        5.77780
H          3.79640       -0.43730        7.36370
H          6.10730        0.08130        6.62800
H          6.52840        0.83030        4.28250
