35
rmsd142.gzmat
O          0.00000        0.00000        0.00000
C          1.19900        0.00000        0.00000
O          1.91540        0.00000        1.17540
C          3.33020        0.03010        0.93320
H          3.72490       -0.89160        1.41780
C          3.48680        0.00970       -0.60670
N          2.08990        0.00770       -1.07650
C          1.75800       -0.02700       -2.44260
C          2.77970       -0.00260       -3.40690
C          2.44840       -0.02690       -4.75880
C          1.11760       -0.07640       -5.16330
C          0.10710       -0.10320       -4.20270
C          0.41460       -0.07890       -2.84780
C          3.87420        1.29110        1.60850
O          4.81140        0.93640        2.60830
C          4.34530        0.48150        3.80960
C          5.38370        0.20130        4.71030
C          5.05520       -0.27060        5.97400
C          3.71860       -0.46200        6.33300
C          2.70490       -0.17960        5.42150
C          3.00740        0.29740        4.14660
H          4.03250        0.89540       -0.99570
H          4.02540       -0.89860       -0.95270
H          3.82510        0.03650       -3.12100
H          3.24220       -0.00660       -5.50510
H          0.86660       -0.09370       -6.22060
H         -0.93740       -0.14250       -4.51420
H         -0.39420       -0.10020       -2.11440
H          3.06150        1.92420        2.01530
H          4.50140        1.91150        0.93760
H          6.41630        0.35710        4.41180
H          5.84560       -0.49290        6.69020
H          3.47200       -0.83190        7.32470
H          1.66240       -0.33340        5.70150
H          2.20320        0.50730        3.44490
