
     RDKit          3D

 35 37  0  0  0  0  0  0  0  0999 V2000
   -0.3604    1.4678   -0.8395 O   0  0  0  0  0  0  0  0  0  0  0  0
    0.5483    0.8867   -0.3138 C   0  0  0  0  0  0  0  0  0  0  0  0
    0.7107    0.8504    1.0434 O   0  0  0  0  0  0  0  0  0  0  0  0
    1.9608    0.2509    1.3816 C   0  0  1  0  0  0  0  0  0  0  0  0
    1.8000   -0.4311    2.2273 H   0  0  0  0  0  0  0  0  0  0  0  0
    2.3875   -0.4988    0.1137 C   0  0  0  0  0  0  0  0  0  0  0  0
    1.5800    0.1641   -0.8969 N   0  0  0  0  0  0  0  0  0  0  0  0
    1.7446   -0.0806   -2.2772 C   0  0  0  0  0  0  0  0  0  0  0  0
    0.9876    0.6015   -3.2491 C   0  0  0  0  0  0  0  0  0  0  0  0
    1.1964    0.3346   -4.6015 C   0  0  0  0  0  0  0  0  0  0  0  0
    2.1481   -0.6008   -5.0178 C   0  0  0  0  0  0  0  0  0  0  0  0
    2.8973   -1.2761   -4.0541 C   0  0  0  0  0  0  0  0  0  0  0  0
    2.7012   -1.0237   -2.6949 C   0  0  0  0  0  0  0  0  0  0  0  0
    2.9425    1.3611    1.7673 C   0  0  0  0  0  0  0  0  0  0  0  0
    4.2121    0.8381    2.0917 O   0  0  0  0  0  0  0  0  0  0  0  0
    4.4355    0.2761    3.3169 C   0  0  0  0  0  0  0  0  0  0  0  0
    5.7028   -0.2995    3.4975 C   0  0  0  0  0  0  0  0  0  0  0  0
    6.0348   -0.8887    4.7146 C   0  0  0  0  0  0  0  0  0  0  0  0
    5.1122   -0.9141    5.7678 C   0  0  0  0  0  0  0  0  0  0  0  0
    3.8547   -0.3400    5.5838 C   0  0  0  0  0  0  0  0  0  0  0  0
    3.5058    0.2558    4.3659 C   0  0  0  0  0  0  0  0  0  0  0  0
    3.4650   -0.3816   -0.0723 H   0  0  0  0  0  0  0  0  0  0  0  0
    2.1610   -1.5781    0.1644 H   0  0  0  0  0  0  0  0  0  0  0  0
    0.2395    1.3243   -2.9348 H   0  0  0  0  0  0  0  0  0  0  0  0
    0.5997    0.8728   -5.3422 H   0  0  0  0  0  0  0  0  0  0  0  0
    2.3028   -0.8003   -6.0802 H   0  0  0  0  0  0  0  0  0  0  0  0
    3.6461   -2.0127   -4.3554 H   0  0  0  0  0  0  0  0  0  0  0  0
    3.2994   -1.5693   -1.9658 H   0  0  0  0  0  0  0  0  0  0  0  0
    2.5201    1.9726    2.5807 H   0  0  0  0  0  0  0  0  0  0  0  0
    3.0981    2.0176    0.8980 H   0  0  0  0  0  0  0  0  0  0  0  0
    6.4093   -0.2668    2.6662 H   0  0  0  0  0  0  0  0  0  0  0  0
    7.0250   -1.3324    4.8430 H   0  0  0  0  0  0  0  0  0  0  0  0
    5.3738   -1.3777    6.7210 H   0  0  0  0  0  0  0  0  0  0  0  0
    3.1235   -0.3509    6.3958 H   0  0  0  0  0  0  0  0  0  0  0  0
    2.5160    0.6980    4.2543 H   0  0  0  0  0  0  0  0  0  0  0  0
  1  2  2  0
  2  3  1  0
  2  7  1  0
  3  4  1  0
  4  5  1  1
  4  6  1  0
  4 14  1  0
  6  7  1  0
  6 22  1  0
  6 23  1  0
  7  8  1  0
  8  9  2  0
  8 13  1  0
  9 10  1  0
  9 24  1  0
 10 11  2  0
 10 25  1  0
 11 12  1  0
 11 26  1  0
 12 13  2  0
 12 27  1  0
 13 28  1  0
 14 15  1  0
 14 29  1  0
 14 30  1  0
 15 16  1  0
 16 17  2  0
 16 21  1  0
 17 18  1  0
 17 31  1  0
 18 19  2  0
 18 32  1  0
 19 20  1  0
 19 33  1  0
 20 21  2  0
 20 34  1  0
 21 35  1  0
M  END

