35
rmsd122.gzmat
O          0.00000        0.00000        0.00000
C          1.19900        0.00000        0.00000
O          1.91490        0.00000        1.17600
C          3.33020        0.01730        0.93290
H          3.71460       -0.92090        1.39490
C          3.48660        0.02750       -0.60680
N          2.08960        0.02110       -1.07710
C          1.76000       -0.09870       -2.43940
C          0.42170       -0.24520       -2.83940
C          0.11790       -0.35550       -4.19090
C          1.12660       -0.31930       -5.15310
C          2.45200       -0.17040       -4.75410
C          2.77960       -0.06000       -3.40590
C          3.88740        1.25430        1.64080
O          4.88510        0.87250        2.56970
C          4.49610        0.29080        3.74330
C          5.58820       -0.06840        4.54660
C          5.33840       -0.67260        5.77170
C          4.02670       -0.91370        6.18770
C          2.95790       -0.54680        5.37440
C          3.18110        0.06090        4.13930
H          4.01930        0.92850       -0.97920
H          4.03800       -0.86660       -0.96920
H         -0.38580       -0.27310       -2.10490
H         -0.92210       -0.47310       -4.49800
H          0.87940       -0.40580       -6.20780
H          3.24400       -0.13860       -5.50220
H          3.82000        0.05910       -3.12360
H          3.08610        1.84680        2.12470
H          4.46420        1.92290        0.97110
H          6.60040        0.12840        4.20550
H          6.17120       -0.96160        6.41220
H          3.84260       -1.38970        7.14710
H          1.93510       -0.73660        5.70080
H          2.33570        0.33560        3.51220
