rmsd157.gzmat
 OpenBabel08211713393D

 35 37  0  0  1  0  0  0  0  0999 V2000
    0.0000    0.0000    0.0000 O   0  0  0  0  0  0  0  0  0  0  0  0
    1.1990    0.0000    0.0000 C   0  0  0  0  0  0  0  0  0  0  0  0
    1.9100    0.0000    1.1832 O   0  0  0  0  0  0  0  0  0  0  0  0
    3.3201    0.0608    0.9392 C   0  0  1  0  0  0  0  0  0  0  0  0
    3.7500   -0.8232    1.4551 H   0  0  0  0  0  0  0  0  0  0  0  0
    3.4891    0.0002   -0.5971 C   0  0  0  0  0  0  0  0  0  0  0  0
    2.0930    0.0120   -1.0729 N   0  0  0  0  0  0  0  0  0  0  0  0
    1.7654   -0.0797   -2.4379 C   0  0  0  0  0  0  0  0  0  0  0  0
    2.7907   -0.0847   -3.3987 C   0  0  0  0  0  0  0  0  0  0  0  0
    2.4652   -0.1659   -4.7495 C   0  0  0  0  0  0  0  0  0  0  0  0
    1.1361   -0.2426   -5.1570 C   0  0  0  0  0  0  0  0  0  0  0  0
    0.1217   -0.2378   -4.2004 C   0  0  0  0  0  0  0  0  0  0  0  0
    0.4235   -0.1569   -2.8461 C   0  0  0  0  0  0  0  0  0  0  0  0
    3.8069    1.3822    1.5461 C   0  0  0  0  0  0  0  0  0  0  0  0
    5.2089    1.4802    1.3799 O   0  0  0  0  0  0  0  0  0  0  0  0
    6.0161    0.7744    2.2244 C   0  0  0  0  0  0  0  0  0  0  0  0
    5.5941    0.0413    3.3309 C   0  0  0  0  0  0  0  0  0  0  0  0
    6.5581   -0.6121    4.0996 C   0  0  0  0  0  0  0  0  0  0  0  0
    7.9067   -0.5312    3.7653 C   0  0  0  0  0  0  0  0  0  0  0  0
    8.3090    0.2110    2.6512 C   0  0  0  0  0  0  0  0  0  0  0  0
    7.3703    0.8694    1.8692 C   0  0  0  0  0  0  0  0  0  0  0  0
    4.0533    0.8736   -0.9913 H   0  0  0  0  0  0  0  0  0  0  0  0
    4.0167   -0.9208   -0.9229 H   0  0  0  0  0  0  0  0  0  0  0  0
    3.8348   -0.0223   -3.1102 H   0  0  0  0  0  0  0  0  0  0  0  0
    3.2613   -0.1698   -5.4931 H   0  0  0  0  0  0  0  0  0  0  0  0
    0.8908   -0.3047   -6.2137 H   0  0  0  0  0  0  0  0  0  0  0  0
   -0.9214   -0.2992   -4.5136 H   0  0  0  0  0  0  0  0  0  0  0  0
   -0.3883   -0.1547   -2.1161 H   0  0  0  0  0  0  0  0  0  0  0  0
    3.4970    1.4944    2.5998 H   0  0  0  0  0  0  0  0  0  0  0  0
    3.4453    2.2662    0.9812 H   0  0  0  0  0  0  0  0  0  0  0  0
    4.5476   -0.0234    3.6103 H   0  0  0  0  0  0  0  0  0  0  0  0
    6.2474   -1.1901    4.9705 H   0  0  0  0  0  0  0  0  0  0  0  0
    8.6500   -1.0431    4.3709 H   0  0  0  0  0  0  0  0  0  0  0  0
    9.3666    0.2731    2.3958 H   0  0  0  0  0  0  0  0  0  0  0  0
    7.6628    1.4534    1.0009 H   0  0  0  0  0  0  0  0  0  0  0  0
  1  2  2  0  0  0  0
  2  3  1  0  0  0  0
  4  3  1  0  0  0  0
  4  5  1  1  0  0  0
  4 14  1  0  0  0  0
  6  4  1  0  0  0  0
  7  6  1  0  0  0  0
  7  2  1  0  0  0  0
  8  7  1  0  0  0  0
  9 24  1  0  0  0  0
  9  8  2  0  0  0  0
 10  9  1  0  0  0  0
 11 10  2  0  0  0  0
 11 12  1  0  0  0  0
 12 13  2  0  0  0  0
 13  8  1  0  0  0  0
 13 28  1  0  0  0  0
 14 29  1  0  0  0  0
 15 14  1  0  0  0  0
 15 16  1  0  0  0  0
 16 17  1  0  0  0  0
 17 31  1  0  0  0  0
 17 18  2  0  0  0  0
 18 32  1  0  0  0  0
 19 18  1  0  0  0  0
 19 33  1  0  0  0  0
 20 19  2  0  0  0  0
 21 16  2  0  0  0  0
 21 20  1  0  0  0  0
 22  6  1  0  0  0  0
 23  6  1  0  0  0  0
 25 10  1  0  0  0  0
 26 11  1  0  0  0  0
 27 12  1  0  0  0  0
 30 14  1  0  0  0  0
 34 20  1  0  0  0  0
 35 21  1  0  0  0  0
M  END
$$$$
