35

O          0.48810       -0.97950        0.13210
C          1.63860       -0.66430        0.00660
O          2.51590       -0.64650        1.05150
C          3.84690       -0.37750        0.60290
H          4.40000       -1.33170        0.59530
C          3.66120        0.17110       -0.81990
N          2.31440       -0.26190       -1.13800
C          1.74460       -0.08190       -2.41710
C          2.48600        0.58390       -3.41000
C          1.95370        0.76210       -4.68870
C          0.68050        0.28550       -5.00080
C         -0.05600       -0.37480       -4.01280
C          0.45950       -0.56400       -2.73150
C          4.57230        0.59350        1.52060
O          5.06140        0.00060        2.69840
C          4.38880        0.11930        3.88580
C          5.16380       -0.05350        5.04180
C          4.56910        0.03900        6.29860
C          3.20170        0.31310        6.41700
C          2.43690        0.48010        5.26160
C          3.01710        0.37980        3.99230
H          3.74490        1.27440       -0.85190
H          4.40120       -0.24520       -1.51910
H          3.48160        0.97160       -3.19610
H          2.54730        1.28240       -5.44420
H          0.26590        0.42630       -6.00110
H         -1.05520       -0.75480       -4.23920
H         -0.12380       -1.07120       -1.96760
H          3.92230        1.46020        1.73350
H          5.45720        0.96070        0.97210
H          6.23020       -0.25600        4.92690
H          5.18100       -0.09710        7.19380
H          2.73710        0.38860        7.40240
H          1.36490        0.67760        5.33830
H          2.39590        0.45880        3.10200
