35
rmsd87.gzmat
O          0.00000        0.00000        0.00000
C          1.19910        0.00000        0.00000
O          1.91050        0.00000        1.18300
C          3.32030        0.06250        0.93750
H          3.75240       -0.81180        1.46710
C          3.48880       -0.02090       -0.59800
N          2.09290       -0.00080       -1.07280
C          1.76160       -0.02100       -2.43940
C          0.41740       -0.03010       -2.84740
C          0.11170       -0.04570       -4.20300
C          1.12430       -0.05520       -5.16160
C          2.45570       -0.04660       -4.75450
C          2.78500       -0.02900       -3.40220
C          3.80070        1.39700        1.52110
O          5.19720        1.51520        1.32480
C          6.03410        0.84700        2.17100
C          7.38340        1.00340        1.81850
C          8.34920        0.38320        2.59870
C          7.97890       -0.38170        3.70830
C          6.63490       -0.52280        4.04050
C          5.64410        0.09170        3.27400
H          4.06730        0.83770       -1.00350
H          4.00200       -0.95460       -0.91120
H         -0.39350       -0.02550       -2.11610
H         -0.93300       -0.05060       -4.51660
H          0.87400       -0.06840       -6.21880
H          3.25100       -0.05300       -5.49940
H          3.83030       -0.02050       -3.11270
H          3.51100        1.51670        2.57950
H          3.41280        2.26860        0.95390
H          7.65130        1.60400        0.95360
H          9.40350        0.49340        2.34510
H          8.74360       -0.86380        4.31170
H          6.34900       -1.11800        4.90790
H          4.60140       -0.01970        3.55300
