rmsd122.gzmat
 OpenBabel08211713393D

 35 37  0  0  1  0  0  0  0  0999 V2000
    0.0000    0.0000    0.0000 O   0  0  0  0  0  0  0  0  0  0  0  0
    1.1990    0.0000    0.0000 C   0  0  0  0  0  0  0  0  0  0  0  0
    1.9149    0.0000    1.1760 O   0  0  0  0  0  0  0  0  0  0  0  0
    3.3302    0.0173    0.9329 C   0  0  1  0  0  0  0  0  0  0  0  0
    3.7146   -0.9209    1.3949 H   0  0  0  0  0  0  0  0  0  0  0  0
    3.4866    0.0275   -0.6068 C   0  0  0  0  0  0  0  0  0  0  0  0
    2.0896    0.0211   -1.0771 N   0  0  0  0  0  0  0  0  0  0  0  0
    1.7600   -0.0987   -2.4394 C   0  0  0  0  0  0  0  0  0  0  0  0
    0.4217   -0.2452   -2.8394 C   0  0  0  0  0  0  0  0  0  0  0  0
    0.1179   -0.3555   -4.1909 C   0  0  0  0  0  0  0  0  0  0  0  0
    1.1266   -0.3193   -5.1531 C   0  0  0  0  0  0  0  0  0  0  0  0
    2.4520   -0.1704   -4.7541 C   0  0  0  0  0  0  0  0  0  0  0  0
    2.7796   -0.0600   -3.4059 C   0  0  0  0  0  0  0  0  0  0  0  0
    3.8874    1.2543    1.6408 C   0  0  0  0  0  0  0  0  0  0  0  0
    4.8851    0.8725    2.5697 O   0  0  0  0  0  0  0  0  0  0  0  0
    4.4961    0.2908    3.7433 C   0  0  0  0  0  0  0  0  0  0  0  0
    5.5882   -0.0684    4.5466 C   0  0  0  0  0  0  0  0  0  0  0  0
    5.3384   -0.6726    5.7717 C   0  0  0  0  0  0  0  0  0  0  0  0
    4.0267   -0.9137    6.1877 C   0  0  0  0  0  0  0  0  0  0  0  0
    2.9579   -0.5468    5.3744 C   0  0  0  0  0  0  0  0  0  0  0  0
    3.1811    0.0609    4.1393 C   0  0  0  0  0  0  0  0  0  0  0  0
    4.0193    0.9285   -0.9792 H   0  0  0  0  0  0  0  0  0  0  0  0
    4.0380   -0.8666   -0.9692 H   0  0  0  0  0  0  0  0  0  0  0  0
   -0.3858   -0.2731   -2.1049 H   0  0  0  0  0  0  0  0  0  0  0  0
   -0.9221   -0.4731   -4.4980 H   0  0  0  0  0  0  0  0  0  0  0  0
    0.8794   -0.4058   -6.2078 H   0  0  0  0  0  0  0  0  0  0  0  0
    3.2440   -0.1386   -5.5022 H   0  0  0  0  0  0  0  0  0  0  0  0
    3.8200    0.0591   -3.1236 H   0  0  0  0  0  0  0  0  0  0  0  0
    3.0861    1.8468    2.1247 H   0  0  0  0  0  0  0  0  0  0  0  0
    4.4642    1.9229    0.9711 H   0  0  0  0  0  0  0  0  0  0  0  0
    6.6004    0.1284    4.2055 H   0  0  0  0  0  0  0  0  0  0  0  0
    6.1712   -0.9616    6.4122 H   0  0  0  0  0  0  0  0  0  0  0  0
    3.8426   -1.3897    7.1471 H   0  0  0  0  0  0  0  0  0  0  0  0
    1.9351   -0.7366    5.7008 H   0  0  0  0  0  0  0  0  0  0  0  0
    2.3357    0.3356    3.5122 H   0  0  0  0  0  0  0  0  0  0  0  0
  2  1  2  0  0  0  0
  2  3  1  0  0  0  0
  4  3  1  0  0  0  0
  4  5  1  1  0  0  0
  4 14  1  0  0  0  0
  6  4  1  0  0  0  0
  7  6  1  0  0  0  0
  7  2  1  0  0  0  0
  8  7  1  0  0  0  0
  9  8  1  0  0  0  0
  9 24  1  0  0  0  0
 10  9  2  0  0  0  0
 11 12  2  0  0  0  0
 11 10  1  0  0  0  0
 12 13  1  0  0  0  0
 13 28  1  0  0  0  0
 13  8  2  0  0  0  0
 14 29  1  0  0  0  0
 14 15  1  0  0  0  0
 15 16  1  0  0  0  0
 16 21  2  0  0  0  0
 16 17  1  0  0  0  0
 17 18  2  0  0  0  0
 18 19  1  0  0  0  0
 18 32  1  0  0  0  0
 19 33  1  0  0  0  0
 20 34  1  0  0  0  0
 20 19  2  0  0  0  0
 21 20  1  0  0  0  0
 22  6  1  0  0  0  0
 23  6  1  0  0  0  0
 25 10  1  0  0  0  0
 26 11  1  0  0  0  0
 27 12  1  0  0  0  0
 30 14  1  0  0  0  0
 31 17  1  0  0  0  0
 35 21  1  0  0  0  0
M  END
$$$$
