35
rmsd144.gzmat
O          0.00000        0.00000        0.00000
C          1.19910        0.00000        0.00000
O          1.91520        0.00000        1.17690
C          3.32900        0.05730        0.93270
H          3.74780       -0.83840        1.44460
C          3.48690       -0.00760       -0.60500
N          2.09050        0.01500       -1.07660
C          1.76100       -0.06180       -2.44170
C          2.78630       -0.08550       -3.40250
C          2.45920       -0.14720       -4.75400
C          1.12880       -0.18860       -5.16200
C          0.11480       -0.16430       -4.20530
C          0.41810       -0.09990       -2.85070
C          3.83600        1.35390        1.57020
O          4.94750        1.08030        2.40250
C          4.72100        0.54040        3.63650
C          3.47960        0.16700        4.14460
C          3.42630       -0.37930        5.42680
C          4.58800       -0.54600        6.17590
C          5.82360       -0.16460        5.64690
C          5.90420        0.38170        4.37310
H          4.05630        0.85300       -1.01520
H          4.00280       -0.93830       -0.92660
H          3.83140       -0.05450       -3.11390
H          3.25580       -0.16250       -5.49760
H          0.88170       -0.23890       -6.21890
H         -0.92900       -0.19500       -4.52010
H         -0.39310       -0.07750       -2.12030
H          3.03180        1.88000        2.12150
H          4.27950        2.06080        0.84100
H          2.56430        0.28740        3.56960
H          2.46340       -0.67840        5.84170
H          4.53600       -0.97260        7.17410
H          6.72960       -0.29550        6.23780
H          6.85440        0.68610        3.94390
