35
rmsd157.gzmat
O          0.00000        0.00000        0.00000
C          1.19900        0.00000        0.00000
O          1.91000        0.00000        1.18320
C          3.32010        0.06080        0.93920
H          3.75000       -0.82320        1.45510
C          3.48910        0.00020       -0.59710
N          2.09300        0.01200       -1.07290
C          1.76540       -0.07970       -2.43790
C          2.79070       -0.08470       -3.39870
C          2.46520       -0.16590       -4.74950
C          1.13610       -0.24260       -5.15700
C          0.12170       -0.23780       -4.20040
C          0.42350       -0.15690       -2.84610
C          3.80690        1.38220        1.54610
O          5.20890        1.48020        1.37990
C          6.01610        0.77440        2.22440
C          5.59410        0.04130        3.33090
C          6.55810       -0.61210        4.09960
C          7.90670       -0.53120        3.76530
C          8.30900        0.21100        2.65120
C          7.37030        0.86940        1.86920
H          4.05330        0.87360       -0.99130
H          4.01670       -0.92080       -0.92290
H          3.83480       -0.02230       -3.11020
H          3.26130       -0.16980       -5.49310
H          0.89080       -0.30470       -6.21370
H         -0.92140       -0.29920       -4.51360
H         -0.38830       -0.15470       -2.11610
H          3.49700        1.49440        2.59980
H          3.44530        2.26620        0.98120
H          4.54760       -0.02340        3.61030
H          6.24740       -1.19010        4.97050
H          8.65000       -1.04310        4.37090
H          9.36660        0.27310        2.39580
H          7.66280        1.45340        1.00090
