46
rmsd74.gzmat
O          0.00000        0.00000        0.00000
C          1.34070        0.00000        0.00000
C          1.92640        0.00000        1.29170
C          3.30450        0.01380        1.39220
C          4.10840        0.02830        0.24020
C          3.52830        0.01800       -1.01330
C          2.12750       -0.00140       -1.16080
C          1.58520       -0.01450       -2.51470
N          0.31220        0.11240       -2.70960
C         -0.26760        0.15760       -3.99140
C         -1.32890       -0.71860       -4.25590
C         -2.00080       -0.65290       -5.47100
C         -1.62660        0.28560       -6.43320
C         -0.57590        1.16130       -6.18720
C          0.11330        1.10550       -4.96850
N          1.24090        1.93390       -4.81820
C          1.36380        2.81900       -3.88350
C          2.58380        3.61460       -3.79140
C          2.69740        4.53250       -2.72880
C          3.82220        5.32240       -2.59160
C          4.87520        5.22450       -3.51670
C          4.80590        4.33430       -4.57120
C          3.64970        3.52230       -4.69830
O          3.68070        2.68320       -5.74320
C          5.88950        4.20100       -5.58020
C          1.03990       -0.01360        2.48490
H         -0.38520        0.04070       -0.93560
H          3.78040        0.01560        2.37240
H          5.18970        0.04860        0.34680
H          4.15800        0.03060       -1.90450
H          2.32490       -0.13030       -3.32810
H         -1.61920       -1.44900       -3.50060
H         -2.82300       -1.33790       -5.67260
H         -2.15850        0.33130       -7.38240
H         -0.27610        1.89260       -6.93800
H          0.59110        3.02520       -3.12060
H          1.88340        4.61460       -2.00710
H          3.90160        6.02720       -1.76810
H          5.75160        5.86090       -3.39590
H          2.84490        2.11460       -5.80660
H          6.24080        3.15820       -5.65030
H          6.75890        4.83250       -5.36550
H          5.52490        4.46820       -6.58600
H          0.48000       -0.96090        2.54960
H          0.28300        0.78620        2.42670
H          1.58640        0.11540        3.42640
