rmsd98.gzmat
 OpenBabel08211713423D

 46 48  0  0  0  0  0  0  0  0999 V2000
    0.0000    0.0000    0.0000 O   0  0  0  0  0  0  0  0  0  0  0  0
    1.3407    0.0000    0.0000 C   0  0  0  0  0  0  0  0  0  0  0  0
    1.9225    0.0000    1.2934 C   0  0  0  0  0  0  0  0  0  0  0  0
    3.3004   -0.0042    1.3979 C   0  0  0  0  0  0  0  0  0  0  0  0
    4.1067   -0.0112    0.2477 C   0  0  0  0  0  0  0  0  0  0  0  0
    3.5301   -0.0110   -1.0077 C   0  0  0  0  0  0  0  0  0  0  0  0
    2.1296   -0.0061   -1.1599 C   0  0  0  0  0  0  0  0  0  0  0  0
    1.5865   -0.0269   -2.5144 C   0  0  0  0  0  0  0  0  0  0  0  0
    0.3070   -0.0651   -2.6997 N   0  0  0  0  0  0  0  0  0  0  0  0
   -0.2882   -0.1539   -3.9730 C   0  0  0  0  0  0  0  0  0  0  0  0
   -1.1394    0.8815   -4.3774 C   0  0  0  0  0  0  0  0  0  0  0  0
   -1.8305    0.7829   -5.5798 C   0  0  0  0  0  0  0  0  0  0  0  0
   -1.6790   -0.3432   -6.3890 C   0  0  0  0  0  0  0  0  0  0  0  0
   -0.8374   -1.3795   -6.0014 C   0  0  0  0  0  0  0  0  0  0  0  0
   -0.1372   -1.2986   -4.7907 C   0  0  0  0  0  0  0  0  0  0  0  0
    0.7641   -2.3364   -4.4865 N   0  0  0  0  0  0  0  0  0  0  0  0
    0.7716   -2.9422   -3.3424 C   0  0  0  0  0  0  0  0  0  0  0  0
    1.7678   -3.9676   -3.0560 C   0  0  0  0  0  0  0  0  0  0  0  0
    1.8450   -4.4580   -1.7378 C   0  0  0  0  0  0  0  0  0  0  0  0
    2.7641   -5.4314   -1.3977 C   0  0  0  0  0  0  0  0  0  0  0  0
    3.6313   -5.9568   -2.3700 C   0  0  0  0  0  0  0  0  0  0  0  0
    3.5880   -5.5030   -3.6751 C   0  0  0  0  0  0  0  0  0  0  0  0
    2.6551   -4.4886   -4.0087 C   0  0  0  0  0  0  0  0  0  0  0  0
    2.7017   -4.0920   -5.2891 O   0  0  0  0  0  0  0  0  0  0  0  0
    4.4782   -6.0417   -4.7370 C   0  0  0  0  0  0  0  0  0  0  0  0
    1.0346    0.0132    2.4856 C   0  0  0  0  0  0  0  0  0  0  0  0
   -0.3873   -0.0070   -0.9350 H   0  0  0  0  0  0  0  0  0  0  0  0
    3.7733   -0.0027    2.3797 H   0  0  0  0  0  0  0  0  0  0  0  0
    5.1882   -0.0186    0.3557 H   0  0  0  0  0  0  0  0  0  0  0  0
    4.1646   -0.0184   -1.8952 H   0  0  0  0  0  0  0  0  0  0  0  0
    2.3285   -0.0232   -3.3334 H   0  0  0  0  0  0  0  0  0  0  0  0
   -1.2566    1.7577   -3.7396 H   0  0  0  0  0  0  0  0  0  0  0  0
   -2.4937    1.5887   -5.8905 H   0  0  0  0  0  0  0  0  0  0  0  0
   -2.2239   -0.4109   -7.3293 H   0  0  0  0  0  0  0  0  0  0  0  0
   -0.7147   -2.2607   -6.6315 H   0  0  0  0  0  0  0  0  0  0  0  0
    0.0552   -2.7288   -2.5271 H   0  0  0  0  0  0  0  0  0  0  0  0
    1.1723   -4.0557   -0.9785 H   0  0  0  0  0  0  0  0  0  0  0  0
    2.8226   -5.7997   -0.3771 H   0  0  0  0  0  0  0  0  0  0  0  0
    4.3433   -6.7304   -2.0845 H   0  0  0  0  0  0  0  0  0  0  0  0
    2.0602   -3.3327   -5.4795 H   0  0  0  0  0  0  0  0  0  0  0  0
    3.9041   -6.6374   -5.4657 H   0  0  0  0  0  0  0  0  0  0  0  0
    5.2783   -6.6790   -4.3426 H   0  0  0  0  0  0  0  0  0  0  0  0
    4.9521   -5.2286   -5.3118 H   0  0  0  0  0  0  0  0  0  0  0  0
    0.2081   -0.7095    2.3794 H   0  0  0  0  0  0  0  0  0  0  0  0
    0.5637    1.0013    2.6133 H   0  0  0  0  0  0  0  0  0  0  0  0
    1.5637   -0.2256    3.4156 H   0  0  0  0  0  0  0  0  0  0  0  0
  1  2  1  0  0  0  0
  2  3  2  0  0  0  0
  3  4  1  0  0  0  0
  3 26  1  0  0  0  0
  4 28  1  0  0  0  0
  5 29  1  0  0  0  0
  5  4  2  0  0  0  0
  6  5  1  0  0  0  0
  7  6  2  0  0  0  0
  7  2  1  0  0  0  0
  8  7  1  0  0  0  0
  9  8  2  0  0  0  0
 10  9  1  0  0  0  0
 11 10  1  0  0  0  0
 11 32  1  0  0  0  0
 12 11  2  0  0  0  0
 13 14  2  0  0  0  0
 13 12  1  0  0  0  0
 14 15  1  0  0  0  0
 15 16  1  0  0  0  0
 15 10  2  0  0  0  0
 16 17  2  0  0  0  0
 17 18  1  0  0  0  0
 17 36  1  0  0  0  0
 18 19  2  0  0  0  0
 19 20  1  0  0  0  0
 19 37  1  0  0  0  0
 20 38  1  0  0  0  0
 21 39  1  0  0  0  0
 21 20  2  0  0  0  0
 22 21  1  0  0  0  0
 23 22  2  0  0  0  0
 23 18  1  0  0  0  0
 24 23  1  0  0  0  0
 25 42  1  0  0  0  0
 25 22  1  0  0  0  0
 26 45  1  0  0  0  0
 26 46  1  0  0  0  0
 27  1  1  0  0  0  0
 30  6  1  0  0  0  0
 31  8  1  0  0  0  0
 33 12  1  0  0  0  0
 34 13  1  0  0  0  0
 35 14  1  0  0  0  0
 40 24  1  0  0  0  0
 41 25  1  0  0  0  0
 43 25  1  0  0  0  0
 44 26  1  0  0  0  0
M  END
$$$$
