46
rmsd225.gzmat
O          0.00000        0.00000        0.00000
C          1.34090        0.00000        0.00000
C          1.92570        0.00000        1.29210
C          3.30410       -0.01340        1.39360
C          4.10870       -0.02560        0.24190
C          3.52920       -0.01860       -1.01190
C          2.12850       -0.00340       -1.16020
C          1.58790       -0.02330       -2.51400
N          0.31130       -0.11090       -2.70960
C         -0.25090       -0.24150       -3.99450
C         -1.25550        0.65540       -4.37510
C         -1.90270        0.49570       -5.59590
C         -1.55730       -0.55560       -6.44480
C         -0.56130       -1.45580       -6.08120
C          0.09910       -1.30870       -4.85640
N          1.17230       -2.17330       -4.56380
C          1.19560       -2.92590       -3.51120
C          2.37450       -3.72640       -3.20140
C          2.37500       -4.45910       -1.99790
C          3.46590       -5.22440       -1.63460
C          4.59670       -5.28540       -2.46600
C          4.63830       -4.57880       -3.65300
C          3.51570       -3.79140       -4.01360
O          3.65410       -3.13220       -5.17320
C          5.81150       -4.61760       -4.56510
C          1.03820        0.00160        2.48450
H         -0.38630       -0.02110       -0.93510
H          3.77900       -0.01630        2.37450
H          5.19020       -0.04170        0.34720
H          4.15920       -0.03230       -1.90280
H          2.33310        0.02070       -3.33010
H         -1.52380        1.47370       -3.70680
H         -2.68330        1.19590       -5.88970
H         -2.07010       -0.67320       -7.39830
H         -0.28640       -2.27690       -6.74300
H          0.36200       -2.99760       -2.78810
H          1.50210       -4.41340       -1.34470
H          3.45790       -5.78390       -0.70290
H          5.44620       -5.89760       -2.16500
H          2.84530       -2.56560       -5.39370
H          5.54360       -5.07650       -5.53110
H          6.65700       -5.18040       -4.15310
H          6.16820       -3.60060       -4.79800
H          0.48550       -0.94900        2.56360
H          0.27450        0.79390        2.41270
H          1.58340        0.15040        3.42380
