rmsd70.gzmat
 OpenBabel08211713423D

 46 48  0  0  0  0  0  0  0  0999 V2000
    0.0000    0.0000    0.0000 O   0  0  0  0  0  0  0  0  0  0  0  0
    1.3410    0.0000    0.0000 C   0  0  0  0  0  0  0  0  0  0  0  0
    1.9230    0.0000    1.2933 C   0  0  0  0  0  0  0  0  0  0  0  0
    3.3010    0.0134    1.3974 C   0  0  0  0  0  0  0  0  0  0  0  0
    4.1080    0.0216    0.2474 C   0  0  0  0  0  0  0  0  0  0  0  0
    3.5311    0.0168   -1.0076 C   0  0  0  0  0  0  0  0  0  0  0  0
    2.1304    0.0059   -1.1589 C   0  0  0  0  0  0  0  0  0  0  0  0
    1.5901    0.0178   -2.5138 C   0  0  0  0  0  0  0  0  0  0  0  0
    0.3112    0.0369   -2.7062 N   0  0  0  0  0  0  0  0  0  0  0  0
   -0.2627    0.1150   -3.9911 C   0  0  0  0  0  0  0  0  0  0  0  0
   -1.0229   -0.9664   -4.4506 C   0  0  0  0  0  0  0  0  0  0  0  0
   -1.6770   -0.8830   -5.6750 C   0  0  0  0  0  0  0  0  0  0  0  0
   -1.5773    0.2728   -6.4495 C   0  0  0  0  0  0  0  0  0  0  0  0
   -0.8281    1.3559   -6.0037 C   0  0  0  0  0  0  0  0  0  0  0  0
   -0.1683    1.2918   -4.7697 C   0  0  0  0  0  0  0  0  0  0  0  0
    0.6437    2.3824   -4.4051 N   0  0  0  0  0  0  0  0  0  0  0  0
    0.5747    2.9527   -3.2447 C   0  0  0  0  0  0  0  0  0  0  0  0
    1.4783    4.0459   -2.9050 C   0  0  0  0  0  0  0  0  0  0  0  0
    1.4491    4.5403   -1.5859 C   0  0  0  0  0  0  0  0  0  0  0  0
    2.2717    5.5813   -1.2018 C   0  0  0  0  0  0  0  0  0  0  0  0
    3.1509    6.1684   -2.1275 C   0  0  0  0  0  0  0  0  0  0  0  0
    3.2164    5.7083   -3.4289 C   0  0  0  0  0  0  0  0  0  0  0  0
    2.3763    4.6308   -3.8094 C   0  0  0  0  0  0  0  0  0  0  0  0
    2.5204    4.2414   -5.0842 O   0  0  0  0  0  0  0  0  0  0  0  0
    4.1296    6.3007   -4.4418 C   0  0  0  0  0  0  0  0  0  0  0  0
    1.0317   -0.0195    2.4826 C   0  0  0  0  0  0  0  0  0  0  0  0
   -0.3862   -0.0023   -0.9351 H   0  0  0  0  0  0  0  0  0  0  0  0
    3.7752    0.0188    2.3784 H   0  0  0  0  0  0  0  0  0  0  0  0
    5.1895    0.0319    0.3554 H   0  0  0  0  0  0  0  0  0  0  0  0
    4.1639    0.0237   -1.8963 H   0  0  0  0  0  0  0  0  0  0  0  0
    2.3347    0.0218   -3.3306 H   0  0  0  0  0  0  0  0  0  0  0  0
   -1.0978   -1.8667   -3.8410 H   0  0  0  0  0  0  0  0  0  0  0  0
   -2.2681   -1.7255   -6.0309 H   0  0  0  0  0  0  0  0  0  0  0  0
   -2.0883    0.3284   -7.4095 H   0  0  0  0  0  0  0  0  0  0  0  0
   -0.7460    2.2601   -6.6073 H   0  0  0  0  0  0  0  0  0  0  0  0
   -0.1447    2.6608   -2.4569 H   0  0  0  0  0  0  0  0  0  0  0  0
    0.7701    4.0873   -0.8611 H   0  0  0  0  0  0  0  0  0  0  0  0
    2.2456    5.9552   -0.1814 H   0  0  0  0  0  0  0  0  0  0  0  0
    3.7858    6.9939   -1.8069 H   0  0  0  0  0  0  0  0  0  0  0  0
    1.9329    3.4489   -5.3131 H   0  0  0  0  0  0  0  0  0  0  0  0
    4.7645    5.5270   -4.9047 H   0  0  0  0  0  0  0  0  0  0  0  0
    4.7917    7.0691   -4.0265 H   0  0  0  0  0  0  0  0  0  0  0  0
    3.5590    6.7615   -5.2648 H   0  0  0  0  0  0  0  0  0  0  0  0
    0.4205   -0.9368    2.5019 H   0  0  0  0  0  0  0  0  0  0  0  0
    0.3196    0.8217    2.4617 H   0  0  0  0  0  0  0  0  0  0  0  0
    1.5798    0.0340    3.4300 H   0  0  0  0  0  0  0  0  0  0  0  0
  1  2  1  0  0  0  0
  2  3  2  0  0  0  0
  3  4  1  0  0  0  0
  3 26  1  0  0  0  0
  4 28  1  0  0  0  0
  5 29  1  0  0  0  0
  5  4  2  0  0  0  0
  6  5  1  0  0  0  0
  7  6  2  0  0  0  0
  7  2  1  0  0  0  0
  8  7  1  0  0  0  0
  9  8  2  0  0  0  0
 10  9  1  0  0  0  0
 11 10  1  0  0  0  0
 11 32  1  0  0  0  0
 12 11  2  0  0  0  0
 13 14  2  0  0  0  0
 13 12  1  0  0  0  0
 14 15  1  0  0  0  0
 15 16  1  0  0  0  0
 15 10  2  0  0  0  0
 16 17  2  0  0  0  0
 17 18  1  0  0  0  0
 17 36  1  0  0  0  0
 18 19  2  0  0  0  0
 19 20  1  0  0  0  0
 19 37  1  0  0  0  0
 20 38  1  0  0  0  0
 21 39  1  0  0  0  0
 21 20  2  0  0  0  0
 22 21  1  0  0  0  0
 23 22  2  0  0  0  0
 23 18  1  0  0  0  0
 24 23  1  0  0  0  0
 25 42  1  0  0  0  0
 25 22  1  0  0  0  0
 26 44  1  0  0  0  0
 26 46  1  0  0  0  0
 27  1  1  0  0  0  0
 30  6  1  0  0  0  0
 31  8  1  0  0  0  0
 33 12  1  0  0  0  0
 34 13  1  0  0  0  0
 35 14  1  0  0  0  0
 40 24  1  0  0  0  0
 41 25  1  0  0  0  0
 43 25  1  0  0  0  0
 45 26  1  0  0  0  0
M  END
$$$$
