46
rmsd69.gzmat
O          0.00000        0.00000        0.00000
C          1.34080        0.00000        0.00000
C          1.92600        0.00000        1.29190
C          3.30430        0.01680        1.39150
C          4.10820        0.03870        0.23940
C          3.52850        0.02760       -1.01420
C          2.12750       -0.00080       -1.16100
C          1.58650       -0.01650       -2.51490
N          0.30990        0.06040       -2.71410
C         -0.25450        0.12450       -4.00340
C         -1.22470       -0.82390       -4.34830
C         -1.87300       -0.73980       -5.57570
C         -1.56340        0.28670       -6.46800
C         -0.60360        1.23790       -6.13970
C          0.05820        1.16710       -4.90810
N          1.09810        2.08330       -4.65940
C          1.12670        2.84960       -3.61700
C          2.28020        3.70580       -3.36520
C          2.30430        4.44160       -2.16400
C          3.37980        5.24900       -1.84910
C          4.47120        5.34940       -2.72800
C          4.48620        4.64650       -3.91790
C          3.37790        3.81840       -4.23040
O          3.48420        3.17260       -5.40090
C          5.62480        4.71480       -4.87150
C          1.04110       -0.01320        2.48650
H         -0.38570        0.01730       -0.93560
H          3.78010        0.01430        2.37170
H          5.18940        0.06330        0.34460
H          4.15820        0.04540       -1.90540
H          2.33230       -0.08480       -3.32860
H         -1.46420       -1.62300       -3.64670
H         -2.62610       -1.48020       -5.84110
H         -2.07480        0.34400       -7.42770
H         -0.35640        2.04060       -6.83460
H          0.31970        2.89280       -2.86240
H          1.46160        4.36350       -1.47510
H          3.39180        5.81170       -0.91930
H          5.31230        5.98880       -2.46090
H          2.68890        2.57470       -5.58610
H          6.22030        3.78870       -4.83760
H          6.30090        5.55410       -4.67230
H          5.27130        4.81540       -5.91150
H          0.33180       -0.85660        2.44700
H          0.42740        0.90140        2.53360
H          1.59520       -0.09060        3.42910
