
     RDKit          3D

 46 48  0  0  0  0  0  0  0  0999 V2000
    0.1009    0.1792   -0.1657 O   0  0  0  0  0  0  0  0  0  0  0  0
    1.4340    0.1512   -0.1327 C   0  0  0  0  0  0  0  0  0  0  0  0
    2.0765    0.2164    1.1256 C   0  0  0  0  0  0  0  0  0  0  0  0
    3.4699    0.1936    1.1584 C   0  0  0  0  0  0  0  0  0  0  0  0
    4.2468    0.1116   -0.0108 C   0  0  0  0  0  0  0  0  0  0  0  0
    3.6143    0.0496   -1.2415 C   0  0  0  0  0  0  0  0  0  0  0  0
    2.2056    0.0655   -1.3259 C   0  0  0  0  0  0  0  0  0  0  0  0
    1.5560    0.0372   -2.6177 C   0  0  0  0  0  0  0  0  0  0  0  0
    0.2707    0.0621   -2.7438 N   0  0  0  0  0  0  0  0  0  0  0  0
   -0.3456    0.1578   -4.0029 C   0  0  0  0  0  0  0  0  0  0  0  0
   -1.3752   -0.7455   -4.3103 C   0  0  0  0  0  0  0  0  0  0  0  0
   -2.0170   -0.7171   -5.5468 C   0  0  0  0  0  0  0  0  0  0  0  0
   -1.6409    0.2317   -6.5029 C   0  0  0  0  0  0  0  0  0  0  0  0
   -0.6333    1.1483   -6.2092 C   0  0  0  0  0  0  0  0  0  0  0  0
    0.0122    1.1471   -4.9626 C   0  0  0  0  0  0  0  0  0  0  0  0
    1.0070    2.1111   -4.7275 N   0  0  0  0  0  0  0  0  0  0  0  0
    1.0211    2.8240   -3.6503 C   0  0  0  0  0  0  0  0  0  0  0  0
    2.1037    3.7311   -3.3391 C   0  0  0  0  0  0  0  0  0  0  0  0
    2.0800    4.4764   -2.1408 C   0  0  0  0  0  0  0  0  0  0  0  0
    3.1278    5.3223   -1.8167 C   0  0  0  0  0  0  0  0  0  0  0  0
    4.2210    5.4305   -2.6945 C   0  0  0  0  0  0  0  0  0  0  0  0
    4.2914    4.7124   -3.8872 C   0  0  0  0  0  0  0  0  0  0  0  0
    3.2190    3.8506   -4.2155 C   0  0  0  0  0  0  0  0  0  0  0  0
    3.2880    3.1583   -5.3535 O   0  0  0  0  0  0  0  0  0  0  0  0
    5.4548    4.8137   -4.8332 C   0  0  0  0  0  0  0  0  0  0  0  0
    1.2325    0.3089    2.3658 C   0  0  0  0  0  0  0  0  0  0  0  0
   -0.1723    0.1212   -1.1296 H   0  0  0  0  0  0  0  0  0  0  0  0
    3.9689    0.2441    2.1303 H   0  0  0  0  0  0  0  0  0  0  0  0
    5.3363    0.1014    0.0551 H   0  0  0  0  0  0  0  0  0  0  0  0
    4.1951   -0.0051   -2.1660 H   0  0  0  0  0  0  0  0  0  0  0  0
    2.2132    0.0247   -3.5036 H   0  0  0  0  0  0  0  0  0  0  0  0
   -1.6472   -1.4847   -3.5542 H   0  0  0  0  0  0  0  0  0  0  0  0
   -2.8077   -1.4382   -5.7652 H   0  0  0  0  0  0  0  0  0  0  0  0
   -2.1350    0.2610   -7.4765 H   0  0  0  0  0  0  0  0  0  0  0  0
   -0.3320    1.9032   -6.9381 H   0  0  0  0  0  0  0  0  0  0  0  0
    0.2123    2.7429   -2.9048 H   0  0  0  0  0  0  0  0  0  0  0  0
    1.2227    4.3669   -1.4712 H   0  0  0  0  0  0  0  0  0  0  0  0
    3.1112    5.8972   -0.8890 H   0  0  0  0  0  0  0  0  0  0  0  0
    5.0492    6.0973   -2.4384 H   0  0  0  0  0  0  0  0  0  0  0  0
    2.4494    2.6109   -5.4178 H   0  0  0  0  0  0  0  0  0  0  0  0
    5.9268    3.8292   -4.9855 H   0  0  0  0  0  0  0  0  0  0  0  0
    6.2150    5.5130   -4.4572 H   0  0  0  0  0  0  0  0  0  0  0  0
    5.1259    5.1530   -5.8290 H   0  0  0  0  0  0  0  0  0  0  0  0
    0.5560   -0.5574    2.4487 H   0  0  0  0  0  0  0  0  0  0  0  0
    0.5858    1.2010    2.3376 H   0  0  0  0  0  0  0  0  0  0  0  0
    1.8559    0.3555    3.2699 H   0  0  0  0  0  0  0  0  0  0  0  0
  1  2  1  0
  1 27  1  0
  2  3  2  0
  2  7  1  0
  3  4  1  0
  3 26  1  0
  4  5  2  0
  4 28  1  0
  5  6  1  0
  5 29  1  0
  6  7  2  0
  6 30  1  0
  7  8  1  0
  8  9  2  0
  8 31  1  0
  9 10  1  0
 10 11  2  0
 10 15  1  0
 11 12  1  0
 11 32  1  0
 12 13  2  0
 12 33  1  0
 13 14  1  0
 13 34  1  0
 14 15  2  0
 14 35  1  0
 15 16  1  0
 16 17  2  0
 17 18  1  0
 17 36  1  0
 18 19  2  0
 18 23  1  0
 19 20  1  0
 19 37  1  0
 20 21  2  0
 20 38  1  0
 21 22  1  0
 21 39  1  0
 22 23  2  0
 22 25  1  0
 23 24  1  0
 24 40  1  0
 25 41  1  0
 25 42  1  0
 25 43  1  0
 26 44  1  0
 26 45  1  0
 26 46  1  0
M  END

