46

O          0.10090        0.17920       -0.16570
C          1.43400        0.15120       -0.13270
C          2.07650        0.21640        1.12560
C          3.46990        0.19360        1.15840
C          4.24680        0.11160       -0.01080
C          3.61430        0.04960       -1.24150
C          2.20560        0.06550       -1.32590
C          1.55600        0.03720       -2.61770
N          0.27070        0.06210       -2.74380
C         -0.34560        0.15780       -4.00290
C         -1.37520       -0.74550       -4.31030
C         -2.01700       -0.71710       -5.54680
C         -1.64090        0.23170       -6.50290
C         -0.63330        1.14830       -6.20920
C          0.01220        1.14710       -4.96260
N          1.00700        2.11110       -4.72750
C          1.02110        2.82400       -3.65030
C          2.10370        3.73110       -3.33910
C          2.08000        4.47640       -2.14080
C          3.12780        5.32230       -1.81670
C          4.22100        5.43050       -2.69450
C          4.29140        4.71240       -3.88720
C          3.21900        3.85060       -4.21550
O          3.28800        3.15830       -5.35350
C          5.45480        4.81370       -4.83320
C          1.23250        0.30890        2.36580
H         -0.17230        0.12120       -1.12960
H          3.96890        0.24410        2.13030
H          5.33630        0.10140        0.05510
H          4.19510       -0.00510       -2.16600
H          2.21320        0.02470       -3.50360
H         -1.64720       -1.48470       -3.55420
H         -2.80770       -1.43820       -5.76520
H         -2.13500        0.26100       -7.47650
H         -0.33200        1.90320       -6.93810
H          0.21230        2.74290       -2.90480
H          1.22270        4.36690       -1.47120
H          3.11120        5.89720       -0.88900
H          5.04920        6.09730       -2.43840
H          2.44940        2.61090       -5.41780
H          5.92680        3.82920       -4.98550
H          6.21500        5.51300       -4.45720
H          5.12590        5.15300       -5.82900
H          0.55600       -0.55740        2.44870
H          0.58580        1.20100        2.33760
H          1.85590        0.35550        3.26990
