46
rmsd81.gzmat
O          0.00000        0.00000        0.00000
C          1.34050        0.00000        0.00000
C          1.92680        0.00000        1.29130
C          3.30520        0.02080        1.39090
C          4.10860        0.03620        0.23840
C          3.52760        0.02050       -1.01480
C          2.12700       -0.00200       -1.16120
C          1.58410       -0.01750       -2.51450
N          0.30840        0.08560       -2.70940
C         -0.26740        0.13100       -3.99270
C         -1.37420       -0.69360       -4.23560
C         -2.03680       -0.62880       -5.45590
C         -1.60910        0.25850       -6.44380
C         -0.51670        1.08820       -6.21720
C          0.16220        1.03130       -4.99430
N          1.33370        1.79870       -4.83760
C          1.39800        2.85430       -4.09460
C          2.65700        3.58150       -3.96190
C          2.66900        4.74740       -3.17090
C          3.82660        5.48410       -3.01090
C          5.02030        5.07180       -3.62690
C          5.05440        3.92930       -4.40330
C          3.85660        3.18820       -4.57210
O          3.98860        2.10280       -5.34910
C          6.29260        3.45030       -5.07210
C          1.04110       -0.02340        2.48540
H         -0.38490        0.03790       -0.93630
H          3.78140        0.02700        2.37100
H          5.19020        0.06050        0.34170
H          4.15680        0.03080       -1.90610
H          2.32690       -0.11720       -3.32770
H         -1.70630       -1.38330       -3.45890
H         -2.89400       -1.27400       -5.64130
H         -2.13270        0.30170       -7.39760
H         -0.17760        1.78060       -6.98710
H          0.54250        3.26230       -3.52710
H          1.74880        5.06880       -2.68080
H          3.82470        6.38870       -2.40840
H          5.92380        5.66460       -3.48660
H          3.11480        1.60960       -5.47510
H          6.53430        2.41900       -4.76600
H          7.16710        4.07490       -4.85730
H          6.16400        3.42120       -6.16690
H          0.48750       -0.97450        2.54790
H          0.27920        0.77190        2.43040
H          1.58770        0.10470        3.42680
