rmsd68.gzmat
 OpenBabel08211713423D

 46 48  0  0  0  0  0  0  0  0999 V2000
    0.0000    0.0000    0.0000 O   0  0  0  0  0  0  0  0  0  0  0  0
    1.3407    0.0000    0.0000 C   0  0  0  0  0  0  0  0  0  0  0  0
    1.9239    0.0000    1.2929 C   0  0  0  0  0  0  0  0  0  0  0  0
    3.3019    0.0102    1.3962 C   0  0  0  0  0  0  0  0  0  0  0  0
    4.1079    0.0205    0.2455 C   0  0  0  0  0  0  0  0  0  0  0  0
    3.5303    0.0150   -1.0093 C   0  0  0  0  0  0  0  0  0  0  0  0
    2.1296    0.0006   -1.1596 C   0  0  0  0  0  0  0  0  0  0  0  0
    1.5873   -0.0019   -2.5135 C   0  0  0  0  0  0  0  0  0  0  0  0
    0.3105    0.0890   -2.7034 N   0  0  0  0  0  0  0  0  0  0  0  0
   -0.2716    0.1539   -3.9837 C   0  0  0  0  0  0  0  0  0  0  0  0
   -1.2608   -0.7851   -4.3018 C   0  0  0  0  0  0  0  0  0  0  0  0
   -1.9300   -0.7052   -5.5176 C   0  0  0  0  0  0  0  0  0  0  0  0
   -1.6223    0.3075   -6.4265 C   0  0  0  0  0  0  0  0  0  0  0  0
   -0.6472    1.2507   -6.1230 C   0  0  0  0  0  0  0  0  0  0  0  0
    0.0355    1.1850   -4.9017 C   0  0  0  0  0  0  0  0  0  0  0  0
    1.0764    2.1079   -4.6827 N   0  0  0  0  0  0  0  0  0  0  0  0
    1.1240    2.8792   -3.6448 C   0  0  0  0  0  0  0  0  0  0  0  0
    2.2495    3.7858   -3.4511 C   0  0  0  0  0  0  0  0  0  0  0  0
    2.3047    4.5182   -2.2490 C   0  0  0  0  0  0  0  0  0  0  0  0
    3.3323    5.4095   -2.0097 C   0  0  0  0  0  0  0  0  0  0  0  0
    4.3421    5.6003   -2.9677 C   0  0  0  0  0  0  0  0  0  0  0  0
    4.3318    4.8931   -4.1550 C   0  0  0  0  0  0  0  0  0  0  0  0
    3.2773    3.9730   -4.3867 C   0  0  0  0  0  0  0  0  0  0  0  0
    3.3587    3.3222   -5.5560 O   0  0  0  0  0  0  0  0  0  0  0  0
    5.3800    5.0655   -5.1950 C   0  0  0  0  0  0  0  0  0  0  0  0
    1.0346   -0.0134    2.4839 C   0  0  0  0  0  0  0  0  0  0  0  0
   -0.3865    0.0251   -0.9355 H   0  0  0  0  0  0  0  0  0  0  0  0
    3.7751    0.0114    2.3782 H   0  0  0  0  0  0  0  0  0  0  0  0
    5.1893    0.0323    0.3534 H   0  0  0  0  0  0  0  0  0  0  0  0
    4.1612    0.0251   -1.8998 H   0  0  0  0  0  0  0  0  0  0  0  0
    2.3281   -0.0747   -3.3308 H   0  0  0  0  0  0  0  0  0  0  0  0
   -1.4989   -1.5727   -3.5869 H   0  0  0  0  0  0  0  0  0  0  0  0
   -2.6987   -1.4369   -5.7611 H   0  0  0  0  0  0  0  0  0  0  0  0
   -2.1485    0.3606   -7.3787 H   0  0  0  0  0  0  0  0  0  0  0  0
   -0.4048    2.0459   -6.8280 H   0  0  0  0  0  0  0  0  0  0  0  0
    0.3471    2.9024   -2.8583 H   0  0  0  0  0  0  0  0  0  0  0  0
    1.5255    4.3719   -1.4986 H   0  0  0  0  0  0  0  0  0  0  0  0
    3.3673    5.9696   -1.0788 H   0  0  0  0  0  0  0  0  0  0  0  0
    5.1391    6.3157   -2.7665 H   0  0  0  0  0  0  0  0  0  0  0  0
    2.6041    2.6592   -5.6816 H   0  0  0  0  0  0  0  0  0  0  0  0
    5.8430    4.1000   -5.4573 H   0  0  0  0  0  0  0  0  0  0  0  0
    6.1822    5.7457   -4.8862 H   0  0  0  0  0  0  0  0  0  0  0  0
    4.9479    5.4615   -6.1288 H   0  0  0  0  0  0  0  0  0  0  0  0
    0.4647   -0.9551    2.5392 H   0  0  0  0  0  0  0  0  0  0  0  0
    0.2868    0.7955    2.4317 H   0  0  0  0  0  0  0  0  0  0  0  0
    1.5797    0.1010    3.4279 H   0  0  0  0  0  0  0  0  0  0  0  0
  1  2  1  0  0  0  0
  2  3  2  0  0  0  0
  3  4  1  0  0  0  0
  3 26  1  0  0  0  0
  4 28  1  0  0  0  0
  5 29  1  0  0  0  0
  5  4  2  0  0  0  0
  6  5  1  0  0  0  0
  7  6  2  0  0  0  0
  7  2  1  0  0  0  0
  8  7  1  0  0  0  0
  9  8  2  0  0  0  0
 10  9  1  0  0  0  0
 11 10  1  0  0  0  0
 11 32  1  0  0  0  0
 12 11  2  0  0  0  0
 13 14  2  0  0  0  0
 13 12  1  0  0  0  0
 14 15  1  0  0  0  0
 15 16  1  0  0  0  0
 15 10  2  0  0  0  0
 16 17  2  0  0  0  0
 17 18  1  0  0  0  0
 17 36  1  0  0  0  0
 18 19  2  0  0  0  0
 19 20  1  0  0  0  0
 19 37  1  0  0  0  0
 20 38  1  0  0  0  0
 21 39  1  0  0  0  0
 21 20  2  0  0  0  0
 22 21  1  0  0  0  0
 23 22  2  0  0  0  0
 23 18  1  0  0  0  0
 24 23  1  0  0  0  0
 25 42  1  0  0  0  0
 25 22  1  0  0  0  0
 26 44  1  0  0  0  0
 26 46  1  0  0  0  0
 27  1  1  0  0  0  0
 30  6  1  0  0  0  0
 31  8  1  0  0  0  0
 33 12  1  0  0  0  0
 34 13  1  0  0  0  0
 35 14  1  0  0  0  0
 40 24  1  0  0  0  0
 41 25  1  0  0  0  0
 43 25  1  0  0  0  0
 45 26  1  0  0  0  0
M  END
$$$$
