46
rmsd70.gzmat
O          0.00000        0.00000        0.00000
C          1.34100        0.00000        0.00000
C          1.92300        0.00000        1.29330
C          3.30100        0.01340        1.39740
C          4.10800        0.02160        0.24740
C          3.53110        0.01680       -1.00760
C          2.13040        0.00590       -1.15890
C          1.59010        0.01780       -2.51380
N          0.31120        0.03690       -2.70620
C         -0.26270        0.11500       -3.99110
C         -1.02290       -0.96640       -4.45060
C         -1.67700       -0.88300       -5.67500
C         -1.57730        0.27280       -6.44950
C         -0.82810        1.35590       -6.00370
C         -0.16830        1.29180       -4.76970
N          0.64370        2.38240       -4.40510
C          0.57470        2.95270       -3.24470
C          1.47830        4.04590       -2.90500
C          1.44910        4.54030       -1.58590
C          2.27170        5.58130       -1.20180
C          3.15090        6.16840       -2.12750
C          3.21640        5.70830       -3.42890
C          2.37630        4.63080       -3.80940
O          2.52040        4.24140       -5.08420
C          4.12960        6.30070       -4.44180
C          1.03170       -0.01950        2.48260
H         -0.38620       -0.00230       -0.93510
H          3.77520        0.01880        2.37840
H          5.18950        0.03190        0.35540
H          4.16390        0.02370       -1.89630
H          2.33470        0.02180       -3.33060
H         -1.09780       -1.86670       -3.84100
H         -2.26810       -1.72550       -6.03090
H         -2.08830        0.32840       -7.40950
H         -0.74600        2.26010       -6.60730
H         -0.14470        2.66080       -2.45690
H          0.77010        4.08730       -0.86110
H          2.24560        5.95520       -0.18140
H          3.78580        6.99390       -1.80690
H          1.93290        3.44890       -5.31310
H          4.76450        5.52700       -4.90470
H          4.79170        7.06910       -4.02650
H          3.55900        6.76150       -5.26480
H          0.42050       -0.93680        2.50190
H          0.31960        0.82170        2.46170
H          1.57980        0.03400        3.43000
