rmsd36.gzmat
 OpenBabel08211713373D

 28 28  0  0  1  0  0  0  0  0999 V2000
    0.0000    0.0000    0.0000 Br  0  0  0  0  0  0  0  0  0  0  0  0
    1.8422    0.0000    0.0000 C   0  0  0  0  0  0  0  0  0  0  0  0
    2.6267    0.0000    1.1346 N   0  0  0  0  0  0  0  0  0  0  0  0
    3.9629   -0.0037    0.7136 C   0  0  2  0  0  0  0  0  0  0  0  0
    5.1326   -0.0033    1.6255 C   0  0  0  0  0  0  0  0  0  0  0  0
    5.9931   -1.2533    1.3939 C   0  0  0  0  0  0  0  0  0  0  0  0
    5.9558    1.2780    1.4296 C   0  0  0  0  0  0  0  0  0  0  0  0
    3.9078    0.0001   -0.7014 C   0  0  0  0  0  0  0  0  0  0  0  0
    2.5807    0.0026   -1.1222 N   0  0  0  0  0  0  0  0  0  0  0  0
    4.9875    0.0086   -1.5725 N   0  0  0  0  0  0  0  0  0  0  0  0
    4.9518   -0.0749   -2.9770 C   0  0  0  0  0  0  0  0  0  0  0  0
    6.0390   -0.0364   -3.5168 O   0  0  0  0  0  0  0  0  0  0  0  0
    3.6587   -0.2060   -3.6969 C   0  0  0  0  0  0  0  0  0  0  0  0
    2.1470   -0.0066    2.5020 C   0  0  0  0  0  0  0  0  0  0  0  0
    4.7844   -0.0248    2.6936 H   0  0  0  0  0  0  0  0  0  0  0  0
    6.4154   -1.2868    0.3843 H   0  0  0  0  0  0  0  0  0  0  0  0
    5.4043   -2.1690    1.5224 H   0  0  0  0  0  0  0  0  0  0  0  0
    6.8300   -1.2923    2.0999 H   0  0  0  0  0  0  0  0  0  0  0  0
    6.4028    1.3377    0.4318 H   0  0  0  0  0  0  0  0  0  0  0  0
    6.7732    1.3364    2.1570 H   0  0  0  0  0  0  0  0  0  0  0  0
    5.3322    2.1714    1.5540 H   0  0  0  0  0  0  0  0  0  0  0  0
    5.9112    0.0909   -1.1429 H   0  0  0  0  0  0  0  0  0  0  0  0
    3.0728   -1.0730   -3.3460 H   0  0  0  0  0  0  0  0  0  0  0  0
    3.8197   -0.3132   -4.7795 H   0  0  0  0  0  0  0  0  0  0  0  0
    3.0066    0.6702   -3.5285 H   0  0  0  0  0  0  0  0  0  0  0  0
    1.4713    0.8516    2.6874 H   0  0  0  0  0  0  0  0  0  0  0  0
    2.9829    0.0683    3.2235 H   0  0  0  0  0  0  0  0  0  0  0  0
    1.5967   -0.9430    2.7213 H   0  0  0  0  0  0  0  0  0  0  0  0
  2  1  1  0  0  0  0
  2  3  1  0  0  0  0
  3 14  1  0  0  0  0
  4  3  1  0  0  0  0
  4  5  1  1  0  0  0
  5 15  1  0  0  0  0
  6 17  1  0  0  0  0
  6  5  1  0  0  0  0
  6 18  1  0  0  0  0
  7 21  1  0  0  0  0
  7  5  1  0  0  0  0
  7 20  1  0  0  0  0
  8  4  1  0  0  0  0
  9  8  2  0  0  0  0
  9  2  2  0  0  0  0
 10 22  1  0  0  0  0
 10  8  1  0  0  0  0
 11 10  1  0  0  0  0
 12 11  2  0  0  0  0
 13 25  1  0  0  0  0
 13 23  1  0  0  0  0
 13 11  1  0  0  0  0
 14 26  1  0  0  0  0
 14 28  1  0  0  0  0
 14 27  1  0  0  0  0
 16  6  1  0  0  0  0
 19  7  1  0  0  0  0
 24 13  1  0  0  0  0
M  RAD  1   4   2
M  END
$$$$
