28

Br        -0.05900       -0.98970        0.11960
C          1.80510       -0.75620       -0.00820
N          2.56830       -0.31340        1.04740
C          3.87540       -0.23980        0.57700
C          5.04360        0.21750        1.40920
C          6.02520       -0.93500        1.68140
C          5.75420        1.41740        0.76100
C          3.80530       -0.66800       -0.73790
N          2.50840       -0.98140       -1.08030
N          4.87080       -0.79830       -1.64300
C          5.01810       -0.09740       -2.82920
O          5.87870       -0.40560       -3.62920
C          4.06180        1.05970       -3.03090
C          2.12170        0.01980        2.38620
H          4.64920        0.55190        2.38240
H          6.47470       -1.29110        0.74150
H          5.52060       -1.78770        2.16120
H          6.84350       -0.60280        2.33980
H          6.17210        1.13800       -0.21730
H          6.58080        1.76840        1.39860
H          5.05810        2.25620        0.60710
H          5.47140       -1.61640       -1.57890
H          3.03250        0.68320       -3.12630
H          4.35450        1.59690       -3.94060
H          4.07850        1.74050       -2.16560
H          2.31420        1.07950        2.61200
H          2.63250       -0.60480        3.13410
H          1.04310       -0.16290        2.45260
