
     RDKit          3D

 28 28  0  0  0  0  0  0  0  0999 V2000
   -0.0158    1.1627    0.0897 Br  0  0  0  0  0  0  0  0  0  0  0  0
    1.8385    0.8556   -0.0251 C   0  0  0  0  0  0  0  0  0  0  0  0
    2.5760    0.3827    1.0357 N   0  0  0  0  0  0  0  0  0  0  0  0
    3.8825    0.2574    0.5746 C   0  0  0  0  0  0  0  0  0  0  0  0
    5.0255   -0.2461    1.4150 C   0  0  0  0  0  0  0  0  0  0  0  0
    5.6935   -1.4723    0.7708 C   0  0  0  0  0  0  0  0  0  0  0  0
    6.0494    0.8669    1.6960 C   0  0  0  0  0  0  0  0  0  0  0  0
    3.8388    0.6884   -0.7405 C   0  0  0  0  0  0  0  0  0  0  0  0
    2.5578    1.0530   -1.0920 N   0  0  0  0  0  0  0  0  0  0  0  0
    4.9152    0.7767   -1.6379 N   0  0  0  0  0  0  0  0  0  0  0  0
    5.0438    0.0695   -2.8225 C   0  0  0  0  0  0  0  0  0  0  0  0
    5.9211    0.3438   -3.6168 O   0  0  0  0  0  0  0  0  0  0  0  0
    4.0456   -1.0506   -3.0300 C   0  0  0  0  0  0  0  0  0  0  0  0
    2.1070    0.0671    2.3711 C   0  0  0  0  0  0  0  0  0  0  0  0
    4.6110   -0.5656    2.3848 H   0  0  0  0  0  0  0  0  0  0  0  0
    6.1301   -1.2084   -0.2036 H   0  0  0  0  0  0  0  0  0  0  0  0
    4.9661   -2.2827    0.6099 H   0  0  0  0  0  0  0  0  0  0  0  0
    6.5004   -1.8564    1.4146 H   0  0  0  0  0  0  0  0  0  0  0  0
    6.5195    1.2061    0.7600 H   0  0  0  0  0  0  0  0  0  0  0  0
    6.8491    0.5024    2.3601 H   0  0  0  0  0  0  0  0  0  0  0  0
    5.5749    1.7383    2.1730 H   0  0  0  0  0  0  0  0  0  0  0  0
    5.5458    1.5716   -1.5704 H   0  0  0  0  0  0  0  0  0  0  0  0
    4.0311   -1.7311   -2.1644 H   0  0  0  0  0  0  0  0  0  0  0  0
    4.3234   -1.5989   -3.9377 H   0  0  0  0  0  0  0  0  0  0  0  0
    3.0319   -0.6354   -3.1320 H   0  0  0  0  0  0  0  0  0  0  0  0
    2.2562   -0.9993    2.5979 H   0  0  0  0  0  0  0  0  0  0  0  0
    1.0360    0.2920    2.4298 H   0  0  0  0  0  0  0  0  0  0  0  0
    2.6365    0.6711    3.1230 H   0  0  0  0  0  0  0  0  0  0  0  0
  1  2  1  0
  2  3  1  0
  2  9  2  0
  3  4  1  0
  3 14  1  0
  4  5  1  0
  4  8  2  0
  5  6  1  0
  5  7  1  0
  5 15  1  0
  6 16  1  0
  6 17  1  0
  6 18  1  0
  7 19  1  0
  7 20  1  0
  7 21  1  0
  8  9  1  0
  8 10  1  0
 10 11  1  0
 10 22  1  0
 11 12  2  0
 11 13  1  0
 13 23  1  0
 13 24  1  0
 13 25  1  0
 14 26  1  0
 14 27  1  0
 14 28  1  0
M  END

