rmsd20.gzmat
 OpenBabel08211713373D

 28 28  0  0  1  0  0  0  0  0999 V2000
    0.0000    0.0000    0.0000 Br  0  0  0  0  0  0  0  0  0  0  0  0
    1.8421    0.0000    0.0000 C   0  0  0  0  0  0  0  0  0  0  0  0
    2.6281    0.0000    1.1334 N   0  0  0  0  0  0  0  0  0  0  0  0
    3.9642    0.0044    0.7106 C   0  0  1  0  0  0  0  0  0  0  0  0
    5.1310    0.0108    1.6265 C   0  0  0  0  0  0  0  0  0  0  0  0
    5.9923   -1.2408    1.4062 C   0  0  0  0  0  0  0  0  0  0  0  0
    5.9538    1.2914    1.4297 C   0  0  0  0  0  0  0  0  0  0  0  0
    3.9074    0.0005   -0.7040 C   0  0  0  0  0  0  0  0  0  0  0  0
    2.5794   -0.0047   -1.1229 N   0  0  0  0  0  0  0  0  0  0  0  0
    4.9836   -0.0027   -1.5795 N   0  0  0  0  0  0  0  0  0  0  0  0
    4.9407    0.1008   -2.9827 C   0  0  0  0  0  0  0  0  0  0  0  0
    6.0247    0.0603   -3.5294 O   0  0  0  0  0  0  0  0  0  0  0  0
    3.6456    0.2571   -3.6949 C   0  0  0  0  0  0  0  0  0  0  0  0
    2.1528    0.0300    2.5021 C   0  0  0  0  0  0  0  0  0  0  0  0
    4.7778   -0.0057    2.6934 H   0  0  0  0  0  0  0  0  0  0  0  0
    6.4810   -1.2441    0.4266 H   0  0  0  0  0  0  0  0  0  0  0  0
    5.3870   -2.1534    1.4669 H   0  0  0  0  0  0  0  0  0  0  0  0
    6.7812   -1.3130    2.1637 H   0  0  0  0  0  0  0  0  0  0  0  0
    6.3506    1.3776    0.4124 H   0  0  0  0  0  0  0  0  0  0  0  0
    6.8052    1.3239    2.1188 H   0  0  0  0  0  0  0  0  0  0  0  0
    5.3430    2.1846    1.6091 H   0  0  0  0  0  0  0  0  0  0  0  0
    5.9090   -0.0983   -1.1558 H   0  0  0  0  0  0  0  0  0  0  0  0
    2.9803   -0.6106   -3.5329 H   0  0  0  0  0  0  0  0  0  0  0  0
    3.8036    0.3718   -4.7770 H   0  0  0  0  0  0  0  0  0  0  0  0
    3.0749    1.1297   -3.3333 H   0  0  0  0  0  0  0  0  0  0  0  0
    1.4277   -0.7866    2.6881 H   0  0  0  0  0  0  0  0  0  0  0  0
    1.6604    0.9974    2.7255 H   0  0  0  0  0  0  0  0  0  0  0  0
    2.9854   -0.0977    3.2204 H   0  0  0  0  0  0  0  0  0  0  0  0
  2  1  1  0  0  0  0
  2  3  1  0  0  0  0
  3 14  1  0  0  0  0
  4  3  1  0  0  0  0
  4  5  1  1  0  0  0
  5 15  1  0  0  0  0
  6 17  1  0  0  0  0
  6  5  1  0  0  0  0
  6 18  1  0  0  0  0
  7 21  1  0  0  0  0
  7  5  1  0  0  0  0
  7 20  1  0  0  0  0
  8  4  1  0  0  0  0
  9  8  2  0  0  0  0
  9  2  2  0  0  0  0
 10 22  1  0  0  0  0
 10  8  1  0  0  0  0
 11 10  1  0  0  0  0
 12 11  2  0  0  0  0
 13 23  1  0  0  0  0
 13 25  1  0  0  0  0
 13 11  1  0  0  0  0
 14 26  1  0  0  0  0
 14 27  1  0  0  0  0
 14 28  1  0  0  0  0
 16  6  1  0  0  0  0
 19  7  1  0  0  0  0
 24 13  1  0  0  0  0
M  RAD  1   4   2
M  END
$$$$
