rmsd148.gzmat
 OpenBabel08211713373D

 28 28  0  0  1  0  0  0  0  0999 V2000
    0.0000    0.0000    0.0000 Br  0  0  0  0  0  0  0  0  0  0  0  0
    1.8424    0.0000    0.0000 C   0  0  0  0  0  0  0  0  0  0  0  0
    2.6291    0.0000    1.1328 N   0  0  0  0  0  0  0  0  0  0  0  0
    3.9647   -0.0121    0.7091 C   0  0  2  0  0  0  0  0  0  0  0  0
    5.1356   -0.0217    1.6198 C   0  0  0  0  0  0  0  0  0  0  0  0
    5.9658   -1.2953    1.4069 C   0  0  0  0  0  0  0  0  0  0  0  0
    5.9892    1.2352    1.3990 C   0  0  0  0  0  0  0  0  0  0  0  0
    3.9072   -0.0121   -0.7058 C   0  0  0  0  0  0  0  0  0  0  0  0
    2.5790   -0.0049   -1.1235 N   0  0  0  0  0  0  0  0  0  0  0  0
    4.9841   -0.0198   -1.5803 N   0  0  0  0  0  0  0  0  0  0  0  0
    4.9421    0.0116   -2.9869 C   0  0  0  0  0  0  0  0  0  0  0  0
    6.0291   -0.0008   -3.5289 O   0  0  0  0  0  0  0  0  0  0  0  0
    3.6436    0.0577   -3.7076 C   0  0  0  0  0  0  0  0  0  0  0  0
    2.1545   -0.0045    2.5021 C   0  0  0  0  0  0  0  0  0  0  0  0
    4.7891   -0.0166    2.6884 H   0  0  0  0  0  0  0  0  0  0  0  0
    6.3941   -1.3491    0.4008 H   0  0  0  0  0  0  0  0  0  0  0  0
    5.3526   -2.1942    1.5409 H   0  0  0  0  0  0  0  0  0  0  0  0
    6.7975   -1.3479    2.1187 H   0  0  0  0  0  0  0  0  0  0  0  0
    6.4379    1.2612    0.4001 H   0  0  0  0  0  0  0  0  0  0  0  0
    6.8073    1.2899    2.1257 H   0  0  0  0  0  0  0  0  0  0  0  0
    5.3865    2.1455    1.5033 H   0  0  0  0  0  0  0  0  0  0  0  0
    5.9111   -0.0519   -1.1514 H   0  0  0  0  0  0  0  0  0  0  0  0
    3.0060   -0.8109   -3.4646 H   0  0  0  0  0  0  0  0  0  0  0  0
    3.7982    0.0790   -4.7962 H   0  0  0  0  0  0  0  0  0  0  0  0
    3.0457    0.9422   -3.4248 H   0  0  0  0  0  0  0  0  0  0  0  0
    1.4013    0.7917    2.6640 H   0  0  0  0  0  0  0  0  0  0  0  0
    2.9812    0.1756    3.2157 H   0  0  0  0  0  0  0  0  0  0  0  0
    1.6938   -0.9803    2.7545 H   0  0  0  0  0  0  0  0  0  0  0  0
  2  1  1  0  0  0  0
  2  3  1  0  0  0  0
  3 14  1  0  0  0  0
  4  3  1  0  0  0  0
  4  5  1  6  0  0  0
  5 15  1  0  0  0  0
  6 17  1  0  0  0  0
  6  5  1  0  0  0  0
  6 18  1  0  0  0  0
  7 21  1  0  0  0  0
  7  5  1  0  0  0  0
  7 20  1  0  0  0  0
  8  4  1  0  0  0  0
  9  8  2  0  0  0  0
  9  2  2  0  0  0  0
 10 22  1  0  0  0  0
 10  8  1  0  0  0  0
 11 10  1  0  0  0  0
 12 11  2  0  0  0  0
 13 23  1  0  0  0  0
 13 25  1  0  0  0  0
 13 11  1  0  0  0  0
 14 26  1  0  0  0  0
 14 28  1  0  0  0  0
 14 27  1  0  0  0  0
 16  6  1  0  0  0  0
 19  7  1  0  0  0  0
 24 13  1  0  0  0  0
M  RAD  1   4   2
M  END
$$$$
