rmsd166.gzmat
 OpenBabel08211713373D

 28 28  0  0  1  0  0  0  0  0999 V2000
    0.0000    0.0000    0.0000 Br  0  0  0  0  0  0  0  0  0  0  0  0
    1.8423    0.0000    0.0000 C   0  0  0  0  0  0  0  0  0  0  0  0
    2.6277    0.0000    1.1338 N   0  0  0  0  0  0  0  0  0  0  0  0
    3.9638   -0.0112    0.7117 C   0  0  1  0  0  0  0  0  0  0  0  0
    5.1333   -0.0382    1.6239 C   0  0  0  0  0  0  0  0  0  0  0  0
    5.9098   -1.3500    1.4434 C   0  0  0  0  0  0  0  0  0  0  0  0
    6.0377    1.1778    1.3809 C   0  0  0  0  0  0  0  0  0  0  0  0
    3.9075   -0.0128   -0.7033 C   0  0  0  0  0  0  0  0  0  0  0  0
    2.5798   -0.0057   -1.1227 N   0  0  0  0  0  0  0  0  0  0  0  0
    4.9850   -0.0197   -1.5770 N   0  0  0  0  0  0  0  0  0  0  0  0
    4.9422   -0.0386   -2.9839 C   0  0  0  0  0  0  0  0  0  0  0  0
    6.0286   -0.0322   -3.5267 O   0  0  0  0  0  0  0  0  0  0  0  0
    3.6428   -0.0656   -3.7037 C   0  0  0  0  0  0  0  0  0  0  0  0
    2.1468    0.0106    2.5008 C   0  0  0  0  0  0  0  0  0  0  0  0
    4.7858    0.0080    2.6913 H   0  0  0  0  0  0  0  0  0  0  0  0
    6.2754   -1.4788    0.4190 H   0  0  0  0  0  0  0  0  0  0  0  0
    5.2753   -2.2166    1.6648 H   0  0  0  0  0  0  0  0  0  0  0  0
    6.7783   -1.3908    2.1099 H   0  0  0  0  0  0  0  0  0  0  0  0
    6.5161    1.1533    0.3967 H   0  0  0  0  0  0  0  0  0  0  0  0
    6.8380    1.2288    2.1282 H   0  0  0  0  0  0  0  0  0  0  0  0
    5.4670    2.1123    1.4381 H   0  0  0  0  0  0  0  0  0  0  0  0
    5.9126    0.0006   -1.1478 H   0  0  0  0  0  0  0  0  0  0  0  0
    3.0265   -0.9346   -3.4134 H   0  0  0  0  0  0  0  0  0  0  0  0
    3.7965   -0.0989   -4.7918 H   0  0  0  0  0  0  0  0  0  0  0  0
    3.0242    0.8181   -3.4673 H   0  0  0  0  0  0  0  0  0  0  0  0
    1.5763   -0.9124    2.7250 H   0  0  0  0  0  0  0  0  0  0  0  0
    1.4886    0.8838    2.6802 H   0  0  0  0  0  0  0  0  0  0  0  0
    2.9832    0.0712    3.2228 H   0  0  0  0  0  0  0  0  0  0  0  0
  2  1  1  0  0  0  0
  2  3  1  0  0  0  0
  3 14  1  0  0  0  0
  4  3  1  0  0  0  0
  4  5  1  1  0  0  0
  5 15  1  0  0  0  0
  6  5  1  0  0  0  0
  6 17  1  0  0  0  0
  6 18  1  0  0  0  0
  7 21  1  0  0  0  0
  7  5  1  0  0  0  0
  7 20  1  0  0  0  0
  8  4  1  0  0  0  0
  9  8  2  0  0  0  0
  9  2  2  0  0  0  0
 10 22  1  0  0  0  0
 10  8  1  0  0  0  0
 11 10  1  0  0  0  0
 12 11  2  0  0  0  0
 13 25  1  0  0  0  0
 13 23  1  0  0  0  0
 13 11  1  0  0  0  0
 14 27  1  0  0  0  0
 14 26  1  0  0  0  0
 14 28  1  0  0  0  0
 16  6  1  0  0  0  0
 19  7  1  0  0  0  0
 24 13  1  0  0  0  0
M  RAD  1   4   2
M  END
$$$$
