28
rmsd18.gzmat
Br         0.00000        0.00000        0.00000
C          1.84200        0.00000        0.00000
N          2.62820        0.00000        1.13370
C          3.96390        0.01990        0.71050
C          5.13530        0.05910        1.62010
C          6.01810       -1.18100        1.42170
C          5.93720        1.34830        1.38940
C          3.90640        0.02230       -0.70440
N          2.57870        0.00940       -1.12320
N          4.98370        0.03220       -1.57830
C          4.94450        0.16260       -2.97930
O          6.03000        0.13910       -3.52340
C          3.65040        0.32500       -3.69240
C          2.14900       -0.01250        2.50140
H          4.78890        0.06080        2.68890
H          6.43680       -1.24110        0.41170
H          5.44800       -2.10310        1.58650
H          6.86090       -1.17960        2.12290
H          6.36680        1.39490        0.38270
H          6.76450        1.43280        2.10310
H          5.30190        2.23490        1.50600
H          5.90840       -0.06460       -1.15280
H          2.98960       -0.54930       -3.54860
H          3.81180        0.46140       -4.77170
H          3.07430        1.18800       -3.31570
H          1.58810        0.91530        2.73100
H          2.98620       -0.08560        3.22140
H          1.48270       -0.87970        2.67910
