rmsd30.gzmat
 OpenBabel08211713373D

 28 28  0  0  1  0  0  0  0  0999 V2000
    0.0000    0.0000    0.0000 Br  0  0  0  0  0  0  0  0  0  0  0  0
    1.8422    0.0000    0.0000 C   0  0  0  0  0  0  0  0  0  0  0  0
    2.6286    0.0000    1.1332 N   0  0  0  0  0  0  0  0  0  0  0  0
    3.9647    0.0082    0.7098 C   0  0  2  0  0  0  0  0  0  0  0  0
    5.1347    0.0211    1.6217 C   0  0  0  0  0  0  0  0  0  0  0  0
    5.9929   -1.2346    1.4134 C   0  0  0  0  0  0  0  0  0  0  0  0
    5.9639    1.2957    1.4098 C   0  0  0  0  0  0  0  0  0  0  0  0
    3.9067    0.0054   -0.7050 C   0  0  0  0  0  0  0  0  0  0  0  0
    2.5787   -0.0008   -1.1233 N   0  0  0  0  0  0  0  0  0  0  0  0
    4.9820    0.0047   -1.5810 N   0  0  0  0  0  0  0  0  0  0  0  0
    4.9360    0.0735   -2.9863 C   0  0  0  0  0  0  0  0  0  0  0  0
    6.0201    0.0421   -3.5328 O   0  0  0  0  0  0  0  0  0  0  0  0
    3.6375    0.1859   -3.7006 C   0  0  0  0  0  0  0  0  0  0  0  0
    2.1491    0.0164    2.5010 C   0  0  0  0  0  0  0  0  0  0  0  0
    4.7841    0.0194    2.6893 H   0  0  0  0  0  0  0  0  0  0  0  0
    6.4539   -1.2663    0.4205 H   0  0  0  0  0  0  0  0  0  0  0  0
    5.3908   -2.1457    1.5172 H   0  0  0  0  0  0  0  0  0  0  0  0
    6.8035   -1.2828    2.1496 H   0  0  0  0  0  0  0  0  0  0  0  0
    6.4053    1.3434    0.4085 H   0  0  0  0  0  0  0  0  0  0  0  0
    6.7847    1.3552    2.1338 H   0  0  0  0  0  0  0  0  0  0  0  0
    5.3462    2.1936    1.5311 H   0  0  0  0  0  0  0  0  0  0  0  0
    5.9093   -0.0597   -1.1557 H   0  0  0  0  0  0  0  0  0  0  0  0
    2.9856   -0.6855   -3.5075 H   0  0  0  0  0  0  0  0  0  0  0  0
    3.7924    0.2678   -4.7865 H   0  0  0  0  0  0  0  0  0  0  0  0
    3.0541    1.0614   -3.3657 H   0  0  0  0  0  0  0  0  0  0  0  0
    1.6508    0.9792    2.7308 H   0  0  0  0  0  0  0  0  0  0  0  0
    2.9788   -0.1142    3.2214 H   0  0  0  0  0  0  0  0  0  0  0  0
    1.4268   -0.8049    2.6770 H   0  0  0  0  0  0  0  0  0  0  0  0
  2  1  1  0  0  0  0
  2  3  1  0  0  0  0
  3 14  1  0  0  0  0
  4  3  1  0  0  0  0
  4  5  1  6  0  0  0
  5 15  1  0  0  0  0
  6 17  1  0  0  0  0
  6  5  1  0  0  0  0
  6 18  1  0  0  0  0
  7 21  1  0  0  0  0
  7  5  1  0  0  0  0
  7 20  1  0  0  0  0
  8  4  1  0  0  0  0
  9  8  2  0  0  0  0
  9  2  2  0  0  0  0
 10 22  1  0  0  0  0
 10  8  1  0  0  0  0
 11 10  1  0  0  0  0
 12 11  2  0  0  0  0
 13 23  1  0  0  0  0
 13 25  1  0  0  0  0
 13 11  1  0  0  0  0
 14 28  1  0  0  0  0
 14 26  1  0  0  0  0
 14 27  1  0  0  0  0
 16  6  1  0  0  0  0
 19  7  1  0  0  0  0
 24 13  1  0  0  0  0
M  RAD  1   4   2
M  END
$$$$
