rmsd21.gzmat
 OpenBabel08211713373D

 28 28  0  0  1  0  0  0  0  0999 V2000
    0.0000    0.0000    0.0000 Br  0  0  0  0  0  0  0  0  0  0  0  0
    1.8423    0.0000    0.0000 C   0  0  0  0  0  0  0  0  0  0  0  0
    2.6298    0.0000    1.1330 N   0  0  0  0  0  0  0  0  0  0  0  0
    3.9650    0.0133    0.7082 C   0  0  2  0  0  0  0  0  0  0  0  0
    5.1398    0.0382    1.6137 C   0  0  0  0  0  0  0  0  0  0  0  0
    6.0195   -1.1994    1.3868 C   0  0  0  0  0  0  0  0  0  0  0  0
    5.9423    1.3299    1.3996 C   0  0  0  0  0  0  0  0  0  0  0  0
    3.9059    0.0125   -0.7068 C   0  0  0  0  0  0  0  0  0  0  0  0
    2.5778    0.0029   -1.1240 N   0  0  0  0  0  0  0  0  0  0  0  0
    4.9818    0.0117   -1.5826 N   0  0  0  0  0  0  0  0  0  0  0  0
    4.9399    0.1325   -2.9842 C   0  0  0  0  0  0  0  0  0  0  0  0
    6.0226    0.0799   -3.5323 O   0  0  0  0  0  0  0  0  0  0  0  0
    3.6468    0.3183   -3.6928 C   0  0  0  0  0  0  0  0  0  0  0  0
    2.1519   -0.0037    2.5014 C   0  0  0  0  0  0  0  0  0  0  0  0
    4.7990    0.0213    2.6839 H   0  0  0  0  0  0  0  0  0  0  0  0
    6.4946   -1.1990    0.4004 H   0  0  0  0  0  0  0  0  0  0  0  0
    5.4309   -2.1220    1.4611 H   0  0  0  0  0  0  0  0  0  0  0  0
    6.8228   -1.2535    2.1309 H   0  0  0  0  0  0  0  0  0  0  0  0
    6.3140    1.4204    0.3727 H   0  0  0  0  0  0  0  0  0  0  0  0
    6.8092    1.3727    2.0682 H   0  0  0  0  0  0  0  0  0  0  0  0
    5.3251    2.2155    1.5926 H   0  0  0  0  0  0  0  0  0  0  0  0
    5.9056   -0.1066   -1.1609 H   0  0  0  0  0  0  0  0  0  0  0  0
    2.9889   -0.5624   -3.5756 H   0  0  0  0  0  0  0  0  0  0  0  0
    3.8087    0.4869   -4.7672 H   0  0  0  0  0  0  0  0  0  0  0  0
    3.0656    1.1663   -3.2903 H   0  0  0  0  0  0  0  0  0  0  0  0
    1.4627   -0.8535    2.6767 H   0  0  0  0  0  0  0  0  0  0  0  0
    1.6162    0.9382    2.7341 H   0  0  0  0  0  0  0  0  0  0  0  0
    2.9871   -0.1017    3.2207 H   0  0  0  0  0  0  0  0  0  0  0  0
  2  1  1  0  0  0  0
  2  3  1  0  0  0  0
  3 14  1  0  0  0  0
  4  3  1  0  0  0  0
  4  5  1  6  0  0  0
  5 15  1  0  0  0  0
  6 17  1  0  0  0  0
  6  5  1  0  0  0  0
  6 18  1  0  0  0  0
  7 21  1  0  0  0  0
  7  5  1  0  0  0  0
  7 20  1  0  0  0  0
  8  4  1  0  0  0  0
  9  8  2  0  0  0  0
  9  2  2  0  0  0  0
 10 22  1  0  0  0  0
 10  8  1  0  0  0  0
 11 10  1  0  0  0  0
 12 11  2  0  0  0  0
 13 23  1  0  0  0  0
 13 25  1  0  0  0  0
 13 11  1  0  0  0  0
 14 26  1  0  0  0  0
 14 27  1  0  0  0  0
 14 28  1  0  0  0  0
 16  6  1  0  0  0  0
 19  7  1  0  0  0  0
 24 13  1  0  0  0  0
M  RAD  1   4   2
M  END
$$$$
