
     RDKit          3D

 41 42  0  0  0  0  0  0  0  0999 V2000
   -0.0745   -0.1402    0.1541 C   0  0  1  0  0  0  0  0  0  0  0  0
    1.0140   -0.2751    0.2648 H   0  0  0  0  0  0  0  0  0  0  0  0
   -0.3487   -0.1871   -1.6636 S   0  0  0  0  0  0  0  0  0  0  0  0
   -2.1506    0.3786   -1.6819 C   0  0  2  0  0  0  0  0  0  0  0  0
   -2.7234   -0.3745   -1.1203 H   0  0  0  0  0  0  0  0  0  0  0  0
   -2.6151    0.4303   -3.0199 N   0  0  0  0  0  0  0  0  0  0  0  0
   -2.9377   -0.6800   -3.7788 C   0  0  0  0  0  0  0  0  0  0  0  0
   -2.8647   -1.9049   -3.4190 N   0  0  0  0  0  0  0  0  0  0  0  0
   -3.4149   -0.3309   -5.1773 C   0  0  0  0  0  0  0  0  0  0  0  0
   -2.3976    0.4999   -5.9295 C   0  0  0  0  0  0  0  0  0  0  0  0
   -1.1201   -0.0244   -6.1863 C   0  0  0  0  0  0  0  0  0  0  0  0
   -0.1572    0.7392   -6.8455 C   0  0  0  0  0  0  0  0  0  0  0  0
   -0.4536    2.0437   -7.2577 C   0  0  0  0  0  0  0  0  0  0  0  0
   -1.7188    2.5761   -7.0050 C   0  0  0  0  0  0  0  0  0  0  0  0
   -2.6834    1.8073   -6.3437 C   0  0  0  0  0  0  0  0  0  0  0  0
   -2.3106    1.7377   -0.9803 C   0  0  1  0  0  0  0  0  0  0  0  0
   -1.7107    2.4844   -1.5265 H   0  0  0  0  0  0  0  0  0  0  0  0
   -3.6513    2.1597   -1.0365 O   0  0  0  0  0  0  0  0  0  0  0  0
   -1.8467    1.7068    0.4823 C   0  0  1  0  0  0  0  0  0  0  0  0
   -1.9201    2.7461    0.8531 H   0  0  0  0  0  0  0  0  0  0  0  0
   -2.7676    0.8785    1.1731 O   0  0  0  0  0  0  0  0  0  0  0  0
   -0.3810    1.2798    0.6668 C   0  0  2  0  0  0  0  0  0  0  0  0
   -0.1628    1.3096    1.7477 H   0  0  0  0  0  0  0  0  0  0  0  0
    0.4819    2.2148    0.0652 O   0  0  0  0  0  0  0  0  0  0  0  0
   -0.8139   -1.2854    0.8671 C   0  0  0  0  0  0  0  0  0  0  0  0
   -1.0520   -1.0198    2.2457 O   0  0  0  0  0  0  0  0  0  0  0  0
   -2.5960    1.3296   -3.4869 H   0  0  0  0  0  0  0  0  0  0  0  0
   -2.4844   -2.0019   -2.4731 H   0  0  0  0  0  0  0  0  0  0  0  0
   -4.3689    0.2172   -5.1094 H   0  0  0  0  0  0  0  0  0  0  0  0
   -3.6065   -1.2852   -5.6855 H   0  0  0  0  0  0  0  0  0  0  0  0
   -0.8857   -1.0391   -5.8537 H   0  0  0  0  0  0  0  0  0  0  0  0
    0.8320    0.3166   -7.0388 H   0  0  0  0  0  0  0  0  0  0  0  0
    0.3013    2.6416   -7.7739 H   0  0  0  0  0  0  0  0  0  0  0  0
   -1.9600    3.5932   -7.3236 H   0  0  0  0  0  0  0  0  0  0  0  0
   -3.6749    2.2273   -6.1513 H   0  0  0  0  0  0  0  0  0  0  0  0
   -4.1146    1.6709   -0.3377 H   0  0  0  0  0  0  0  0  0  0  0  0
   -2.3147    0.3924    1.8844 H   0  0  0  0  0  0  0  0  0  0  0  0
    0.5429    1.9679   -0.8742 H   0  0  0  0  0  0  0  0  0  0  0  0
   -0.2509   -2.2247    0.7305 H   0  0  0  0  0  0  0  0  0  0  0  0
   -1.8074   -1.4362    0.4301 H   0  0  0  0  0  0  0  0  0  0  0  0
   -0.2105   -0.9956    2.7211 H   0  0  0  0  0  0  0  0  0  0  0  0
  1  2  1  6
  1  3  1  0
  1 22  1  0
  1 25  1  0
  3  4  1  0
  4  5  1  1
  4  6  1  0
  4 16  1  0
  6  7  1  0
  6 27  1  0
  7  8  2  0
  7  9  1  0
  8 28  1  0
  9 10  1  0
  9 29  1  0
  9 30  1  0
 10 11  2  0
 10 15  1  0
 11 12  1  0
 11 31  1  0
 12 13  2  0
 12 32  1  0
 13 14  1  0
 13 33  1  0
 14 15  2  0
 14 34  1  0
 15 35  1  0
 16 17  1  6
 16 18  1  0
 16 19  1  0
 18 36  1  0
 19 20  1  1
 19 21  1  0
 19 22  1  0
 21 37  1  0
 22 23  1  1
 22 24  1  0
 24 38  1  0
 25 26  1  0
 25 39  1  0
 25 40  1  0
 26 41  1  0
M  END

