
     RDKit          3D

 41 42  0  0  0  0  0  0  0  0999 V2000
   -0.1392   -0.0473    0.0352 C   0  0  1  0  0  0  0  0  0  0  0  0
    0.9545   -0.1264    0.1457 H   0  0  0  0  0  0  0  0  0  0  0  0
   -0.3949    0.0399   -1.7869 S   0  0  0  0  0  0  0  0  0  0  0  0
   -2.2098    0.4798   -1.7410 C   0  0  2  0  0  0  0  0  0  0  0  0
   -2.7126   -0.3300   -1.1867 H   0  0  0  0  0  0  0  0  0  0  0  0
   -2.7420    0.5755   -3.0670 N   0  0  0  0  0  0  0  0  0  0  0  0
   -3.2382   -0.5578   -3.7068 C   0  0  0  0  0  0  0  0  0  0  0  0
   -2.8632   -1.7640   -3.5168 N   0  0  0  0  0  0  0  0  0  0  0  0
   -4.3779   -0.2540   -4.6619 C   0  0  0  0  0  0  0  0  0  0  0  0
   -5.5130    0.4177   -3.9153 C   0  0  0  0  0  0  0  0  0  0  0  0
   -5.9567    1.7016   -4.2531 C   0  0  0  0  0  0  0  0  0  0  0  0
   -6.9446    2.3403   -3.4958 C   0  0  0  0  0  0  0  0  0  0  0  0
   -7.5001    1.7000   -2.3875 C   0  0  0  0  0  0  0  0  0  0  0  0
   -7.0671    0.4140   -2.0432 C   0  0  0  0  0  0  0  0  0  0  0  0
   -6.0822   -0.2200   -2.8005 C   0  0  0  0  0  0  0  0  0  0  0  0
   -2.4297    1.7971   -0.9807 C   0  0  1  0  0  0  0  0  0  0  0  0
   -1.8330    2.5880   -1.4612 H   0  0  0  0  0  0  0  0  0  0  0  0
   -3.7776    2.1959   -1.0865 O   0  0  0  0  0  0  0  0  0  0  0  0
   -2.0127    1.6798    0.4892 C   0  0  1  0  0  0  0  0  0  0  0  0
   -2.1389    2.6832    0.9364 H   0  0  0  0  0  0  0  0  0  0  0  0
   -2.9020    0.7596    1.0962 O   0  0  0  0  0  0  0  0  0  0  0  0
   -0.5281    1.3070    0.6628 C   0  0  2  0  0  0  0  0  0  0  0  0
   -0.3270    1.2516    1.7458 H   0  0  0  0  0  0  0  0  0  0  0  0
    0.2979    2.3312    0.1628 O   0  0  0  0  0  0  0  0  0  0  0  0
   -0.8124   -1.2893    0.6475 C   0  0  0  0  0  0  0  0  0  0  0  0
   -1.0962   -1.1402    2.0346 O   0  0  0  0  0  0  0  0  0  0  0  0
   -3.3356    1.3962   -3.1645 H   0  0  0  0  0  0  0  0  0  0  0  0
   -2.0836   -1.8134   -2.8523 H   0  0  0  0  0  0  0  0  0  0  0  0
   -4.6869   -1.2109   -5.1035 H   0  0  0  0  0  0  0  0  0  0  0  0
   -4.0225    0.3997   -5.4749 H   0  0  0  0  0  0  0  0  0  0  0  0
   -5.5183    2.2124   -5.1151 H   0  0  0  0  0  0  0  0  0  0  0  0
   -7.2750    3.3447   -3.7713 H   0  0  0  0  0  0  0  0  0  0  0  0
   -8.2679    2.1993   -1.7917 H   0  0  0  0  0  0  0  0  0  0  0  0
   -7.5003   -0.0956   -1.1787 H   0  0  0  0  0  0  0  0  0  0  0  0
   -5.7320   -1.2184   -2.5250 H   0  0  0  0  0  0  0  0  0  0  0  0
   -4.2973    1.6026   -0.5209 H   0  0  0  0  0  0  0  0  0  0  0  0
   -2.4307    0.2296    1.7626 H   0  0  0  0  0  0  0  0  0  0  0  0
    0.3823    2.1786   -0.7942 H   0  0  0  0  0  0  0  0  0  0  0  0
   -0.1814   -2.1752    0.4606 H   0  0  0  0  0  0  0  0  0  0  0  0
   -1.7827   -1.4793    0.1752 H   0  0  0  0  0  0  0  0  0  0  0  0
   -0.2686   -1.1033    2.5328 H   0  0  0  0  0  0  0  0  0  0  0  0
  1  2  1  6
  1  3  1  0
  1 22  1  0
  1 25  1  0
  3  4  1  0
  4  5  1  1
  4  6  1  0
  4 16  1  0
  6  7  1  0
  6 27  1  0
  7  8  2  0
  7  9  1  0
  8 28  1  0
  9 10  1  0
  9 29  1  0
  9 30  1  0
 10 11  2  0
 10 15  1  0
 11 12  1  0
 11 31  1  0
 12 13  2  0
 12 32  1  0
 13 14  1  0
 13 33  1  0
 14 15  2  0
 14 34  1  0
 15 35  1  0
 16 17  1  6
 16 18  1  0
 16 19  1  0
 18 36  1  0
 19 20  1  1
 19 21  1  0
 19 22  1  0
 21 37  1  0
 22 23  1  1
 22 24  1  0
 24 38  1  0
 25 26  1  0
 25 39  1  0
 25 40  1  0
 26 41  1  0
M  END

