rmsd165.gzmat
 OpenBabel08211713423D

 41 42  0  0  1  0  0  0  0  0999 V2000
    0.0000    0.0000    0.0000 C   0  0  1  0  0  0  0  0  0  0  0  0
    1.1214    0.0000    0.0000 H   0  0  0  0  0  0  0  0  0  0  0  0
   -0.4677    0.0000   -1.7750 S   0  0  0  0  0  0  0  0  0  0  0  0
   -2.2890    0.4274   -1.6466 C   0  0  2  0  0  0  0  0  0  0  0  0
   -2.8124   -0.3809   -1.0731 H   0  0  0  0  0  0  0  0  0  0  0  0
   -2.7683    0.5500   -3.0042 N   0  0  0  0  0  0  0  0  0  0  0  0
   -3.3743   -0.5680   -3.6338 C   0  0  0  0  0  0  0  0  0  0  0  0
   -3.1664   -1.8061   -3.3761 N   0  0  0  0  0  0  0  0  0  0  0  0
   -4.3062   -0.1857   -4.7681 C   0  0  0  0  0  0  0  0  0  0  0  0
   -5.5264    0.4648   -4.1911 C   0  0  0  0  0  0  0  0  0  0  0  0
   -6.4739   -0.3211   -3.5309 C   0  0  0  0  0  0  0  0  0  0  0  0
   -7.5860    0.2764   -2.9451 C   0  0  0  0  0  0  0  0  0  0  0  0
   -7.7570    1.6582   -3.0200 C   0  0  0  0  0  0  0  0  0  0  0  0
   -6.8160    2.4406   -3.6863 C   0  0  0  0  0  0  0  0  0  0  0  0
   -5.7012    1.8465   -4.2751 C   0  0  0  0  0  0  0  0  0  0  0  0
   -2.4040    1.7712   -0.8950 C   0  0  1  0  0  0  0  0  0  0  0  0
   -1.8571    2.6012   -1.4049 H   0  0  0  0  0  0  0  0  0  0  0  0
   -3.7354    2.2115   -0.9539 O   0  0  0  0  0  0  0  0  0  0  0  0
   -1.9591    1.6145    0.5711 C   0  0  1  0  0  0  0  0  0  0  0  0
   -2.1956    2.5489    1.1377 H   0  0  0  0  0  0  0  0  0  0  0  0
   -2.7861    0.5973    1.0957 O   0  0  0  0  0  0  0  0  0  0  0  0
   -0.4626    1.2653    0.7320 C   0  0  2  0  0  0  0  0  0  0  0  0
   -0.2198    1.1858    1.8260 H   0  0  0  0  0  0  0  0  0  0  0  0
    0.3070    2.3786    0.3551 O   0  0  0  0  0  0  0  0  0  0  0  0
   -0.5129   -1.2703    0.6871 C   0  0  0  0  0  0  0  0  0  0  0  0
   -0.4508   -1.1228    2.0918 O   0  0  0  0  0  0  0  0  0  0  0  0
   -3.1701    1.4650   -3.2216 H   0  0  0  0  0  0  0  0  0  0  0  0
   -2.5614   -2.1100   -2.6382 H   0  0  0  0  0  0  0  0  0  0  0  0
   -4.5821   -1.1005   -5.3464 H   0  0  0  0  0  0  0  0  0  0  0  0
   -3.7816    0.4639   -5.4983 H   0  0  0  0  0  0  0  0  0  0  0  0
   -6.3331   -1.4007   -3.4689 H   0  0  0  0  0  0  0  0  0  0  0  0
   -8.3216   -0.3359   -2.4269 H   0  0  0  0  0  0  0  0  0  0  0  0
   -8.6240    2.1248   -2.5575 H   0  0  0  0  0  0  0  0  0  0  0  0
   -6.9464    3.5195   -3.7425 H   0  0  0  0  0  0  0  0  0  0  0  0
   -4.9709    2.4646   -4.7925 H   0  0  0  0  0  0  0  0  0  0  0  0
   -4.3139    1.6607   -0.3752 H   0  0  0  0  0  0  0  0  0  0  0  0
   -2.3470    0.1239    1.8392 H   0  0  0  0  0  0  0  0  0  0  0  0
    0.3196    2.5057   -0.6186 H   0  0  0  0  0  0  0  0  0  0  0  0
    0.0555   -2.1696    0.3845 H   0  0  0  0  0  0  0  0  0  0  0  0
   -1.5941   -1.4599    0.5204 H   0  0  0  0  0  0  0  0  0  0  0  0
    0.4736   -1.1026    2.4082 H   0  0  0  0  0  0  0  0  0  0  0  0
  1  2  1  1  0  0  0
  1 25  1  0  0  0  0
  1 22  1  0  0  0  0
  3  4  1  0  0  0  0
  3  1  1  0  0  0  0
  4  5  1  1  0  0  0
  4 16  1  0  0  0  0
  6  4  1  0  0  0  0
  7  8  2  0  0  0  0
  7  6  1  0  0  0  0
  8 28  1  0  0  0  0
  9 10  1  0  0  0  0
  9  7  1  0  0  0  0
 10 11  1  0  0  0  0
 11 31  1  0  0  0  0
 11 12  2  0  0  0  0
 12 32  1  0  0  0  0
 13 12  1  0  0  0  0
 13 33  1  0  0  0  0
 14 13  2  0  0  0  0
 15 10  2  0  0  0  0
 15 14  1  0  0  0  0
 16 19  1  0  0  0  0
 16 17  1  6  0  0  0
 18 16  1  0  0  0  0
 18 36  1  0  0  0  0
 19 22  1  0  0  0  0
 19 21  1  0  0  0  0
 19 20  1  1  0  0  0
 21 37  1  0  0  0  0
 22 23  1  1  0  0  0
 24 22  1  0  0  0  0
 25 26  1  0  0  0  0
 26 41  1  0  0  0  0
 27  6  1  0  0  0  0
 29  9  1  0  0  0  0
 30  9  1  0  0  0  0
 34 14  1  0  0  0  0
 35 15  1  0  0  0  0
 38 24  1  0  0  0  0
 39 25  1  0  0  0  0
 40 25  1  0  0  0  0
M  END
$$$$
