rmsd240.gzmat
 OpenBabel08211713423D

 41 42  0  0  1  0  0  0  0  0999 V2000
    0.0000    0.0000    0.0000 C   0  0  1  0  0  0  0  0  0  0  0  0
    1.1213    0.0000    0.0000 H   0  0  0  0  0  0  0  0  0  0  0  0
   -0.4672    0.0000   -1.7758 S   0  0  0  0  0  0  0  0  0  0  0  0
   -2.2885    0.4223   -1.6382 C   0  0  2  0  0  0  0  0  0  0  0  0
   -2.8034   -0.3820   -1.0503 H   0  0  0  0  0  0  0  0  0  0  0  0
   -2.7873    0.5269   -2.9910 N   0  0  0  0  0  0  0  0  0  0  0  0
   -3.4173   -0.6041   -3.5758 C   0  0  0  0  0  0  0  0  0  0  0  0
   -3.1589   -1.8359   -3.3341 N   0  0  0  0  0  0  0  0  0  0  0  0
   -4.4451   -0.2487   -4.6321 C   0  0  0  0  0  0  0  0  0  0  0  0
   -5.5989    0.4492   -3.9790 C   0  0  0  0  0  0  0  0  0  0  0  0
   -5.8844    1.7805   -4.2815 C   0  0  0  0  0  0  0  0  0  0  0  0
   -6.9291    2.4313   -3.6274 C   0  0  0  0  0  0  0  0  0  0  0  0
   -7.6880    1.7553   -2.6747 C   0  0  0  0  0  0  0  0  0  0  0  0
   -7.4098    0.4207   -2.3814 C   0  0  0  0  0  0  0  0  0  0  0  0
   -6.3695   -0.2338   -3.0342 C   0  0  0  0  0  0  0  0  0  0  0  0
   -2.3965    1.7721   -0.8969 C   0  0  1  0  0  0  0  0  0  0  0  0
   -1.8403    2.5938   -1.4098 H   0  0  0  0  0  0  0  0  0  0  0  0
   -3.7234    2.2240   -0.9627 O   0  0  0  0  0  0  0  0  0  0  0  0
   -1.9573    1.6164    0.5711 C   0  0  1  0  0  0  0  0  0  0  0  0
   -2.1947    2.5504    1.1375 H   0  0  0  0  0  0  0  0  0  0  0  0
   -2.7873    0.5999    1.0927 O   0  0  0  0  0  0  0  0  0  0  0  0
   -0.4621    1.2636    0.7354 C   0  0  2  0  0  0  0  0  0  0  0  0
   -0.2228    1.1792    1.8301 H   0  0  0  0  0  0  0  0  0  0  0  0
    0.3113    2.3766    0.3662 O   0  0  0  0  0  0  0  0  0  0  0  0
   -0.5145   -1.2714    0.6846 C   0  0  0  0  0  0  0  0  0  0  0  0
   -0.4729   -1.1197    2.0895 O   0  0  0  0  0  0  0  0  0  0  0  0
   -3.1986    1.4376   -3.2107 H   0  0  0  0  0  0  0  0  0  0  0  0
   -2.4874   -2.1221   -2.6482 H   0  0  0  0  0  0  0  0  0  0  0  0
   -4.7903   -1.1800   -5.1439 H   0  0  0  0  0  0  0  0  0  0  0  0
   -3.9758    0.3589   -5.4333 H   0  0  0  0  0  0  0  0  0  0  0  0
   -5.2954    2.3142   -5.0237 H   0  0  0  0  0  0  0  0  0  0  0  0
   -7.1485    3.4722   -3.8579 H   0  0  0  0  0  0  0  0  0  0  0  0
   -8.4975    2.2686   -2.1603 H   0  0  0  0  0  0  0  0  0  0  0  0
   -8.0045   -0.1093   -1.6398 H   0  0  0  0  0  0  0  0  0  0  0  0
   -6.1479   -1.2769   -2.8071 H   0  0  0  0  0  0  0  0  0  0  0  0
   -4.3090    1.6841   -0.3809 H   0  0  0  0  0  0  0  0  0  0  0  0
   -2.3510    0.1266    1.8379 H   0  0  0  0  0  0  0  0  0  0  0  0
    0.3257    2.5099   -0.6065 H   0  0  0  0  0  0  0  0  0  0  0  0
    0.0653   -2.1661    0.3917 H   0  0  0  0  0  0  0  0  0  0  0  0
   -1.5922   -1.4683    0.5044 H   0  0  0  0  0  0  0  0  0  0  0  0
    0.4466   -1.1157    2.4207 H   0  0  0  0  0  0  0  0  0  0  0  0
  1  2  1  1  0  0  0
  1 25  1  0  0  0  0
  1 22  1  0  0  0  0
  3  4  1  0  0  0  0
  3  1  1  0  0  0  0
  4  5  1  1  0  0  0
  4 16  1  0  0  0  0
  6  4  1  0  0  0  0
  7  8  2  0  0  0  0
  7  6  1  0  0  0  0
  8 28  1  0  0  0  0
  9 10  1  0  0  0  0
  9  7  1  0  0  0  0
 10 15  1  0  0  0  0
 11 10  2  0  0  0  0
 11 12  1  0  0  0  0
 12 13  2  0  0  0  0
 13 14  1  0  0  0  0
 13 33  1  0  0  0  0
 14 34  1  0  0  0  0
 15 35  1  0  0  0  0
 15 14  2  0  0  0  0
 16 19  1  0  0  0  0
 16 17  1  6  0  0  0
 18 16  1  0  0  0  0
 18 36  1  0  0  0  0
 19 22  1  0  0  0  0
 19 21  1  0  0  0  0
 19 20  1  1  0  0  0
 21 37  1  0  0  0  0
 22 23  1  1  0  0  0
 24 22  1  0  0  0  0
 25 26  1  0  0  0  0
 26 41  1  0  0  0  0
 27  6  1  0  0  0  0
 29  9  1  0  0  0  0
 30  9  1  0  0  0  0
 31 11  1  0  0  0  0
 32 12  1  0  0  0  0
 38 24  1  0  0  0  0
 39 25  1  0  0  0  0
 40 25  1  0  0  0  0
M  END
$$$$
