rmsd41.gzmat
 OpenBabel08211713423D

 41 42  0  0  1  0  0  0  0  0999 V2000
    0.0000    0.0000    0.0000 C   0  0  1  0  0  0  0  0  0  0  0  0
    1.1214    0.0000    0.0000 H   0  0  0  0  0  0  0  0  0  0  0  0
   -0.4753    0.0000   -1.7725 S   0  0  0  0  0  0  0  0  0  0  0  0
   -2.3143    0.4173   -1.6348 C   0  0  2  0  0  0  0  0  0  0  0  0
   -2.8110   -0.3889   -1.0329 H   0  0  0  0  0  0  0  0  0  0  0  0
   -2.8606    0.4969   -2.9514 N   0  0  0  0  0  0  0  0  0  0  0  0
   -3.2413   -0.6458   -3.6768 C   0  0  0  0  0  0  0  0  0  0  0  0
   -3.1291   -1.8706   -3.3089 N   0  0  0  0  0  0  0  0  0  0  0  0
   -3.8800   -0.3301   -5.0162 C   0  0  0  0  0  0  0  0  0  0  0  0
   -3.0129    0.5803   -5.8285 C   0  0  0  0  0  0  0  0  0  0  0  0
   -1.8304    0.0911   -6.3883 C   0  0  0  0  0  0  0  0  0  0  0  0
   -1.0132    0.9354   -7.1348 C   0  0  0  0  0  0  0  0  0  0  0  0
   -1.3723    2.2701   -7.3209 C   0  0  0  0  0  0  0  0  0  0  0  0
   -2.5511    2.7582   -6.7615 C   0  0  0  0  0  0  0  0  0  0  0  0
   -3.3734    1.9155   -6.0162 C   0  0  0  0  0  0  0  0  0  0  0  0
   -2.4127    1.7710   -0.8976 C   0  0  1  0  0  0  0  0  0  0  0  0
   -1.8633    2.5930   -1.4155 H   0  0  0  0  0  0  0  0  0  0  0  0
   -3.7388    2.2259   -0.9351 O   0  0  0  0  0  0  0  0  0  0  0  0
   -1.9582    1.6159    0.5682 C   0  0  1  0  0  0  0  0  0  0  0  0
   -2.1915    2.5527    1.1325 H   0  0  0  0  0  0  0  0  0  0  0  0
   -2.7862    0.6002    1.0965 O   0  0  0  0  0  0  0  0  0  0  0  0
   -0.4635    1.2632    0.7346 C   0  0  2  0  0  0  0  0  0  0  0  0
   -0.2279    1.1759    1.8303 H   0  0  0  0  0  0  0  0  0  0  0  0
    0.3116    2.3766    0.3706 O   0  0  0  0  0  0  0  0  0  0  0  0
   -0.5160   -1.2724    0.6820 C   0  0  0  0  0  0  0  0  0  0  0  0
   -0.4407   -1.1350    2.0869 O   0  0  0  0  0  0  0  0  0  0  0  0
   -2.9193    1.4108   -3.3844 H   0  0  0  0  0  0  0  0  0  0  0  0
   -2.7183   -2.1357   -2.4363 H   0  0  0  0  0  0  0  0  0  0  0  0
   -4.8940    0.0941   -4.8484 H   0  0  0  0  0  0  0  0  0  0  0  0
   -4.0617   -1.2875   -5.5659 H   0  0  0  0  0  0  0  0  0  0  0  0
   -1.5469   -0.9499   -6.2325 H   0  0  0  0  0  0  0  0  0  0  0  0
   -0.0936    0.5522   -7.5731 H   0  0  0  0  0  0  0  0  0  0  0  0
   -0.7330    2.9286   -7.9045 H   0  0  0  0  0  0  0  0  0  0  0  0
   -2.8317    3.7997   -6.9067 H   0  0  0  0  0  0  0  0  0  0  0  0
   -4.2947    2.3016   -5.5851 H   0  0  0  0  0  0  0  0  0  0  0  0
   -4.3192    1.6490   -0.3840 H   0  0  0  0  0  0  0  0  0  0  0  0
   -2.3501    0.1337    1.8465 H   0  0  0  0  0  0  0  0  0  0  0  0
    0.3195    2.5188   -0.6010 H   0  0  0  0  0  0  0  0  0  0  0  0
    0.0431   -2.1732    0.3667 H   0  0  0  0  0  0  0  0  0  0  0  0
   -1.6001   -1.4531    0.5239 H   0  0  0  0  0  0  0  0  0  0  0  0
    0.4871   -1.1325    2.3948 H   0  0  0  0  0  0  0  0  0  0  0  0
  1  2  1  1  0  0  0
  1 25  1  0  0  0  0
  1 22  1  0  0  0  0
  3  4  1  0  0  0  0
  3  1  1  0  0  0  0
  4  5  1  1  0  0  0
  4 16  1  0  0  0  0
  6  4  1  0  0  0  0
  7  8  2  0  0  0  0
  7  6  1  0  0  0  0
  8 28  1  0  0  0  0
  9 29  1  0  0  0  0
  9  7  1  0  0  0  0
 10  9  1  0  0  0  0
 11 31  1  0  0  0  0
 11 10  2  0  0  0  0
 12 11  1  0  0  0  0
 13 12  2  0  0  0  0
 13 14  1  0  0  0  0
 14 15  2  0  0  0  0
 15 10  1  0  0  0  0
 15 35  1  0  0  0  0
 16 19  1  0  0  0  0
 16 17  1  6  0  0  0
 18 16  1  0  0  0  0
 18 36  1  0  0  0  0
 19 22  1  0  0  0  0
 19 21  1  0  0  0  0
 19 20  1  1  0  0  0
 21 37  1  0  0  0  0
 22 23  1  1  0  0  0
 24 22  1  0  0  0  0
 25 26  1  0  0  0  0
 26 41  1  0  0  0  0
 27  6  1  0  0  0  0
 30  9  1  0  0  0  0
 32 12  1  0  0  0  0
 33 13  1  0  0  0  0
 34 14  1  0  0  0  0
 38 24  1  0  0  0  0
 39 25  1  0  0  0  0
 40 25  1  0  0  0  0
M  END
$$$$
