41
rmsd176.gzmat
C          0.00000        0.00000        0.00000
H          1.12140        0.00000        0.00000
S         -0.46920        0.00000       -1.77460
C         -2.29170        0.42190       -1.64230
H         -2.81050       -0.38820       -1.06670
N         -2.77690        0.54060       -2.99830
C         -3.35890       -0.58750       -3.63110
N         -3.13860       -1.82100       -3.36110
C         -4.27360       -0.22770       -4.78610
C         -5.54400        0.35090       -4.24170
C         -5.76750        1.72810       -4.27110
C         -6.94010        2.25210       -3.72960
C         -7.89040        1.40420       -3.16410
C         -7.66920        0.02780       -3.14100
C         -6.49830       -0.49940       -3.67820
C         -2.40940        1.76510       -0.89090
H         -1.86620        2.59710       -1.40130
O         -3.74350        2.19780       -0.94750
C         -1.96050        1.61150        0.57460
H         -2.19720        2.54660        1.14030
O         -2.78360        0.59230        1.10180
C         -0.46360        1.26330        0.73470
H         -0.22110        1.17940        1.82890
O          0.30460        2.37910        0.36280
C         -0.51230       -1.27180        0.68590
O         -0.44210       -1.12650        2.09050
H         -3.18790        1.45020       -3.21670
H         -2.54390       -2.11050       -2.60940
H         -4.48530       -1.14490       -5.38830
H         -3.76040        0.46020       -5.48910
H         -5.03120        2.39670       -4.71120
H         -7.10990        3.32730       -3.74530
H         -8.80490        1.81520       -2.74190
H         -8.41120       -0.63610       -2.70110
H         -6.31720       -1.57430       -3.65340
H         -4.31720        1.64400       -0.36630
H         -2.34790        0.13360        1.85700
H          0.31250        2.51470       -0.60950
H          0.05330       -2.17080        0.37750
H         -1.59500       -1.45760        0.52440
H          0.48370       -1.13260        2.40340
