41
rmsd49.gzmat
C          0.00000        0.00000        0.00000
H          1.12130        0.00000        0.00000
S         -0.46740        0.00000       -1.77430
C         -2.28680        0.44850       -1.66070
H         -2.82490       -0.35760       -1.09770
N         -2.73340        0.57240       -3.02490
C         -3.46420       -0.47760       -3.63090
N         -3.50000       -1.70480       -3.25750
C         -4.18250       -0.07070       -4.90340
C         -5.02310        1.14870       -4.68380
C         -6.16640        1.06870       -3.88550
C         -6.92430        2.21060       -3.64090
C         -6.54800        3.43240       -4.19800
C         -5.41600        3.50860       -5.00690
C         -4.65300        2.36860       -5.25130
C         -2.40360        1.78280       -0.89450
H         -1.86090        2.62160       -1.39250
O         -3.73790        2.21440       -0.94470
C         -1.96010        1.61020        0.57120
H         -2.20120        2.53760        1.14780
O         -2.78560        0.58380        1.08150
C         -0.46400        1.26240        0.73560
H         -0.22590        1.17660        1.83040
O          0.30630        2.37830        0.36820
C         -0.51090       -1.27380        0.68250
O         -0.44920       -1.13220        2.08790
H         -2.95140        1.52320       -3.32630
H         -3.02200       -2.02950       -2.43950
H         -4.81370       -0.92360       -5.25570
H         -3.43280        0.07680       -5.71140
H         -6.45700        0.11400       -3.44860
H         -7.80910        2.15100       -3.00940
H         -7.13640        4.32560       -3.99950
H         -5.12330        4.46060       -5.44530
H         -3.77100        2.43540       -5.88470
H         -4.30870        1.65290       -0.36810
H         -2.34790        0.10430        1.82260
H          0.32590        2.50910       -0.60480
H          0.05900       -2.17110        0.37650
H         -1.59150       -1.46490        0.51460
H          0.47560       -1.09670        2.40220
