41

C         -0.13920       -0.04730        0.03520
H          0.95450       -0.12640        0.14570
S         -0.39490        0.03990       -1.78690
C         -2.20980        0.47980       -1.74100
H         -2.71260       -0.33000       -1.18670
N         -2.74200        0.57550       -3.06700
C         -3.23820       -0.55780       -3.70680
N         -2.86320       -1.76400       -3.51680
C         -4.37790       -0.25400       -4.66190
C         -5.51300        0.41770       -3.91530
C         -5.95670        1.70160       -4.25310
C         -6.94460        2.34030       -3.49580
C         -7.50010        1.70000       -2.38750
C         -7.06710        0.41400       -2.04320
C         -6.08220       -0.22000       -2.80050
C         -2.42970        1.79710       -0.98070
H         -1.83300        2.58800       -1.46120
O         -3.77760        2.19590       -1.08650
C         -2.01270        1.67980        0.48920
H         -2.13890        2.68320        0.93640
O         -2.90200        0.75960        1.09620
C         -0.52810        1.30700        0.66280
H         -0.32700        1.25160        1.74580
O          0.29790        2.33120        0.16280
C         -0.81240       -1.28930        0.64750
O         -1.09620       -1.14020        2.03460
H         -3.33560        1.39620       -3.16450
H         -2.08360       -1.81340       -2.85230
H         -4.68690       -1.21090       -5.10350
H         -4.02250        0.39970       -5.47490
H         -5.51830        2.21240       -5.11510
H         -7.27500        3.34470       -3.77130
H         -8.26790        2.19930       -1.79170
H         -7.50030       -0.09560       -1.17870
H         -5.73200       -1.21840       -2.52500
H         -4.29730        1.60260       -0.52090
H         -2.43070        0.22960        1.76260
H          0.38230        2.17860       -0.79420
H         -0.18140       -2.17520        0.46060
H         -1.78270       -1.47930        0.17520
H         -0.26860       -1.10330        2.53280
