rmsd190.gzmat
 OpenBabel08211713423D

 41 42  0  0  1  0  0  0  0  0999 V2000
    0.0000    0.0000    0.0000 C   0  0  1  0  0  0  0  0  0  0  0  0
    1.1254    0.0000    0.0000 H   0  0  0  0  0  0  0  0  0  0  0  0
   -0.4562    0.0000   -1.7782 S   0  0  0  0  0  0  0  0  0  0  0  0
   -2.2883    0.3601   -1.6811 C   0  0  2  0  0  0  0  0  0  0  0  0
   -2.7910   -0.4698   -1.1164 H   0  0  0  0  0  0  0  0  0  0  0  0
   -2.8372    0.4728   -3.0149 N   0  0  0  0  0  0  0  0  0  0  0  0
   -3.0583   -0.7131   -3.7765 C   0  0  0  0  0  0  0  0  0  0  0  0
   -3.2114   -1.8993   -3.3213 N   0  0  0  0  0  0  0  0  0  0  0  0
   -3.2104   -0.4588   -5.2624 C   0  0  0  0  0  0  0  0  0  0  0  0
   -2.0329    0.2887   -5.8074 C   0  0  0  0  0  0  0  0  0  0  0  0
   -0.7455   -0.2256   -5.6319 C   0  0  0  0  0  0  0  0  0  0  0  0
    0.3566    0.4773   -6.1093 C   0  0  0  0  0  0  0  0  0  0  0  0
    0.1765    1.6880   -6.7778 C   0  0  0  0  0  0  0  0  0  0  0  0
   -1.1082    2.1920   -6.9690 C   0  0  0  0  0  0  0  0  0  0  0  0
   -2.2138    1.4964   -6.4827 C   0  0  0  0  0  0  0  0  0  0  0  0
   -2.4872    1.6798   -0.9120 C   0  0  1  0  0  0  0  0  0  0  0  0
   -2.0366    2.5580   -1.4262 H   0  0  0  0  0  0  0  0  0  0  0  0
   -3.8729    1.9434   -0.7751 O   0  0  0  0  0  0  0  0  0  0  0  0
   -2.0038    1.5593    0.5492 C   0  0  1  0  0  0  0  0  0  0  0  0
   -2.2637    2.4959    1.1005 H   0  0  0  0  0  0  0  0  0  0  0  0
   -2.6622    0.4735    1.1677 O   0  0  0  0  0  0  0  0  0  0  0  0
   -0.4955    1.2576    0.7162 C   0  0  2  0  0  0  0  0  0  0  0  0
   -0.2629    1.1929    1.8135 H   0  0  0  0  0  0  0  0  0  0  0  0
    0.2340    2.3950    0.3337 O   0  0  0  0  0  0  0  0  0  0  0  0
   -0.4789   -1.2639    0.7238 C   0  0  0  0  0  0  0  0  0  0  0  0
    0.2497   -2.3861    0.2834 O   0  0  0  0  0  0  0  0  0  0  0  0
   -2.5140    1.2842   -3.5460 H   0  0  0  0  0  0  0  0  0  0  0  0
   -3.1147   -2.1272   -2.3516 H   0  0  0  0  0  0  0  0  0  0  0  0
   -4.1709    0.0664   -5.4520 H   0  0  0  0  0  0  0  0  0  0  0  0
   -3.3167   -1.4392   -5.7927 H   0  0  0  0  0  0  0  0  0  0  0  0
   -0.6050   -1.1775   -5.1184 H   0  0  0  0  0  0  0  0  0  0  0  0
    1.3600    0.0820   -5.9569 H   0  0  0  0  0  0  0  0  0  0  0  0
    1.0384    2.2376   -7.1503 H   0  0  0  0  0  0  0  0  0  0  0  0
   -1.2491    3.1318   -7.4992 H   0  0  0  0  0  0  0  0  0  0  0  0
   -3.2142    1.8948   -6.6379 H   0  0  0  0  0  0  0  0  0  0  0  0
   -4.3530    1.6660   -1.5878 H   0  0  0  0  0  0  0  0  0  0  0  0
   -3.6372    0.6171    1.1187 H   0  0  0  0  0  0  0  0  0  0  0  0
    0.2568    2.5085   -0.6407 H   0  0  0  0  0  0  0  0  0  0  0  0
   -1.5638   -1.4478    0.6225 H   0  0  0  0  0  0  0  0  0  0  0  0
   -0.2344   -1.2228    1.8062 H   0  0  0  0  0  0  0  0  0  0  0  0
   -0.0190   -2.6410   -0.6241 H   0  0  0  0  0  0  0  0  0  0  0  0
  1  2  1  1  0  0  0
  1 22  1  0  0  0  0
  1 25  1  0  0  0  0
  3  4  1  0  0  0  0
  3  1  1  0  0  0  0
  4  5  1  1  0  0  0
  4 16  1  0  0  0  0
  6  4  1  0  0  0  0
  7  8  2  0  0  0  0
  7  6  1  0  0  0  0
  8 28  1  0  0  0  0
  9  7  1  0  0  0  0
 10 11  1  0  0  0  0
 10  9  1  0  0  0  0
 11 31  1  0  0  0  0
 12 32  1  0  0  0  0
 12 11  2  0  0  0  0
 13 12  1  0  0  0  0
 14 13  2  0  0  0  0
 14 15  1  0  0  0  0
 15 10  2  0  0  0  0
 16 18  1  0  0  0  0
 16 19  1  0  0  0  0
 16 17  1  6  0  0  0
 19 22  1  0  0  0  0
 19 20  1  1  0  0  0
 19 21  1  0  0  0  0
 22 23  1  1  0  0  0
 24 22  1  0  0  0  0
 25 40  1  0  0  0  0
 26 25  1  0  0  0  0
 27  6  1  0  0  0  0
 29  9  1  0  0  0  0
 30  9  1  0  0  0  0
 33 13  1  0  0  0  0
 34 14  1  0  0  0  0
 35 15  1  0  0  0  0
 36 18  1  0  0  0  0
 37 21  1  0  0  0  0
 38 24  1  0  0  0  0
 39 25  1  0  0  0  0
 41 26  1  0  0  0  0
M  END
$$$$
