rmsd84.gzmat
 OpenBabel08211713423D

 41 42  0  0  1  0  0  0  0  0999 V2000
    0.0000    0.0000    0.0000 C   0  0  1  0  0  0  0  0  0  0  0  0
    1.1217    0.0000    0.0000 H   0  0  0  0  0  0  0  0  0  0  0  0
   -0.4714    0.0000   -1.7740 S   0  0  0  0  0  0  0  0  0  0  0  0
   -2.2977    0.4708   -1.6687 C   0  0  2  0  0  0  0  0  0  0  0  0
   -2.8378   -0.3305   -1.0994 H   0  0  0  0  0  0  0  0  0  0  0  0
   -2.7909    0.5966   -3.0034 N   0  0  0  0  0  0  0  0  0  0  0  0
   -3.3068   -0.4951   -3.7236 C   0  0  0  0  0  0  0  0  0  0  0  0
   -3.3033   -1.7291   -3.3705 N   0  0  0  0  0  0  0  0  0  0  0  0
   -3.9338   -0.0965   -5.0461 C   0  0  0  0  0  0  0  0  0  0  0  0
   -2.9175    0.5385   -5.9437 C   0  0  0  0  0  0  0  0  0  0  0  0
   -1.9333   -0.2510   -6.5429 C   0  0  0  0  0  0  0  0  0  0  0  0
   -0.9853    0.3355   -7.3766 C   0  0  0  0  0  0  0  0  0  0  0  0
   -1.0158    1.7095   -7.6129 C   0  0  0  0  0  0  0  0  0  0  0  0
   -1.9959    2.4972   -7.0125 C   0  0  0  0  0  0  0  0  0  0  0  0
   -2.9473    1.9139   -6.1781 C   0  0  0  0  0  0  0  0  0  0  0  0
   -2.3832    1.8118   -0.9071 C   0  0  1  0  0  0  0  0  0  0  0  0
   -1.8140    2.6338   -1.4030 H   0  0  0  0  0  0  0  0  0  0  0  0
   -3.7028    2.2855   -0.9569 O   0  0  0  0  0  0  0  0  0  0  0  0
   -1.9515    1.6263    0.5610 C   0  0  1  0  0  0  0  0  0  0  0  0
   -2.1855    2.5542    1.1397 H   0  0  0  0  0  0  0  0  0  0  0  0
   -2.7925    0.6068    1.0597 O   0  0  0  0  0  0  0  0  0  0  0  0
   -0.4611    1.2616    0.7378 C   0  0  2  0  0  0  0  0  0  0  0  0
   -0.2350    1.1680    1.8350 H   0  0  0  0  0  0  0  0  0  0  0  0
    0.3232    2.3732    0.3864 O   0  0  0  0  0  0  0  0  0  0  0  0
   -0.5166   -1.2749    0.6770 C   0  0  0  0  0  0  0  0  0  0  0  0
   -0.4827   -1.1305    2.0829 O   0  0  0  0  0  0  0  0  0  0  0  0
   -2.7905    1.5180   -3.4225 H   0  0  0  0  0  0  0  0  0  0  0  0
   -2.8979   -2.0417   -2.5108 H   0  0  0  0  0  0  0  0  0  0  0  0
   -4.8046    0.5689   -4.8631 H   0  0  0  0  0  0  0  0  0  0  0  0
   -4.3676   -1.0053   -5.5319 H   0  0  0  0  0  0  0  0  0  0  0  0
   -1.9071   -1.3240   -6.3501 H   0  0  0  0  0  0  0  0  0  0  0  0
   -0.2193   -0.2801   -7.8446 H   0  0  0  0  0  0  0  0  0  0  0  0
   -0.2757    2.1644   -8.2670 H   0  0  0  0  0  0  0  0  0  0  0  0
   -2.0209    3.5693   -7.1968 H   0  0  0  0  0  0  0  0  0  0  0  0
   -3.7141    2.5323   -5.7173 H   0  0  0  0  0  0  0  0  0  0  0  0
   -4.2970    1.7166   -0.4128 H   0  0  0  0  0  0  0  0  0  0  0  0
   -2.3702    0.1279    1.8102 H   0  0  0  0  0  0  0  0  0  0  0  0
    0.3555    2.5100   -0.5853 H   0  0  0  0  0  0  0  0  0  0  0  0
    0.0639   -2.1696    0.3829 H   0  0  0  0  0  0  0  0  0  0  0  0
   -1.5931   -1.4705    0.4898 H   0  0  0  0  0  0  0  0  0  0  0  0
    0.4352   -1.1170    2.4181 H   0  0  0  0  0  0  0  0  0  0  0  0
  1  2  1  1  0  0  0
  1 25  1  0  0  0  0
  1 22  1  0  0  0  0
  3  4  1  0  0  0  0
  3  1  1  0  0  0  0
  4  5  1  1  0  0  0
  4 16  1  0  0  0  0
  6  4  1  0  0  0  0
  7  8  2  0  0  0  0
  7  6  1  0  0  0  0
  8 28  1  0  0  0  0
  9 29  1  0  0  0  0
  9  7  1  0  0  0  0
 10  9  1  0  0  0  0
 11 31  1  0  0  0  0
 11 10  2  0  0  0  0
 12 11  1  0  0  0  0
 13 12  2  0  0  0  0
 13 14  1  0  0  0  0
 14 15  2  0  0  0  0
 15 10  1  0  0  0  0
 15 35  1  0  0  0  0
 16 19  1  0  0  0  0
 16 17  1  6  0  0  0
 18 16  1  0  0  0  0
 18 36  1  0  0  0  0
 19 22  1  0  0  0  0
 19 21  1  0  0  0  0
 19 20  1  1  0  0  0
 21 37  1  0  0  0  0
 22 23  1  1  0  0  0
 24 22  1  0  0  0  0
 25 26  1  0  0  0  0
 26 41  1  0  0  0  0
 27  6  1  0  0  0  0
 30  9  1  0  0  0  0
 32 12  1  0  0  0  0
 33 13  1  0  0  0  0
 34 14  1  0  0  0  0
 38 24  1  0  0  0  0
 39 25  1  0  0  0  0
 40 25  1  0  0  0  0
M  END
$$$$
