
     RDKit          3D

 38 39  0  0  0  0  0  0  0  0999 V2000
   -0.1683    0.2381   -0.4349 Cl  0  0  0  0  0  0  0  0  0  0  0  0
    1.5651    0.1400   -0.2501 C   0  0  0  0  0  0  0  0  0  0  0  0
    2.1547    0.5359    0.9538 C   0  0  0  0  0  0  0  0  0  0  0  0
    3.5401    0.4609    1.0910 C   0  0  0  0  0  0  0  0  0  0  0  0
    4.3379   -0.0346    0.0515 C   0  0  0  0  0  0  0  0  0  0  0  0
    3.7283   -0.4149   -1.1528 C   0  0  0  0  0  0  0  0  0  0  0  0
    2.3456   -0.3254   -1.3123 C   0  0  0  0  0  0  0  0  0  0  0  0
    5.8340   -0.0060    0.2190 C   0  0  0  0  0  0  0  0  0  0  0  0
    6.3681    1.0331    0.5890 O   0  0  0  0  0  0  0  0  0  0  0  0
    6.5483   -1.1399   -0.0892 N   0  0  0  0  0  0  0  0  0  0  0  0
    8.0095   -1.0075   -0.1049 C   0  0  0  0  0  0  0  0  0  0  0  0
    8.7073   -1.4129    1.1773 C   0  0  0  0  0  0  0  0  0  0  0  0
    9.6048   -2.4873    1.1962 C   0  0  0  0  0  0  0  0  0  0  0  0
   10.2279   -2.8796    2.3853 C   0  0  0  0  0  0  0  0  0  0  0  0
    9.9570   -2.1959    3.5723 C   0  0  0  0  0  0  0  0  0  0  0  0
    9.0717   -1.1120    3.5598 C   0  0  0  0  0  0  0  0  0  0  0  0
    8.4542   -0.7193    2.3719 C   0  0  0  0  0  0  0  0  0  0  0  0
    5.9408   -2.4871   -0.0455 C   0  0  0  0  0  0  0  0  0  0  0  0
    6.5892   -3.4405   -1.0484 C   0  0  0  0  0  0  0  0  0  0  0  0
    5.9158   -3.0714    1.3732 C   0  0  0  0  0  0  0  0  0  0  0  0
    1.5293    0.9077    1.7666 H   0  0  0  0  0  0  0  0  0  0  0  0
    4.0183    0.7959    2.0133 H   0  0  0  0  0  0  0  0  0  0  0  0
    4.3432   -0.7702   -1.9829 H   0  0  0  0  0  0  0  0  0  0  0  0
    1.8691   -0.6099   -2.2513 H   0  0  0  0  0  0  0  0  0  0  0  0
    8.2139    0.0511   -0.3102 H   0  0  0  0  0  0  0  0  0  0  0  0
    8.4059   -1.5974   -0.9428 H   0  0  0  0  0  0  0  0  0  0  0  0
    9.8168   -3.0288    0.2698 H   0  0  0  0  0  0  0  0  0  0  0  0
   10.9236   -3.7224    2.3834 H   0  0  0  0  0  0  0  0  0  0  0  0
   10.4383   -2.5017    4.5044 H   0  0  0  0  0  0  0  0  0  0  0  0
    8.8659   -0.5655    4.4837 H   0  0  0  0  0  0  0  0  0  0  0  0
    7.7715    0.1322    2.3511 H   0  0  0  0  0  0  0  0  0  0  0  0
    4.8977   -2.3581   -0.3546 H   0  0  0  0  0  0  0  0  0  0  0  0
    7.6114   -3.7205   -0.7535 H   0  0  0  0  0  0  0  0  0  0  0  0
    6.6249   -2.9970   -2.0556 H   0  0  0  0  0  0  0  0  0  0  0  0
    6.0002   -4.3683   -1.1037 H   0  0  0  0  0  0  0  0  0  0  0  0
    6.9255   -3.2880    1.7473 H   0  0  0  0  0  0  0  0  0  0  0  0
    5.3355   -4.0080    1.3805 H   0  0  0  0  0  0  0  0  0  0  0  0
    5.4372   -2.3682    2.0715 H   0  0  0  0  0  0  0  0  0  0  0  0
  1  2  1  0
  2  3  2  0
  2  7  1  0
  3  4  1  0
  3 21  1  0
  4  5  2  0
  4 22  1  0
  5  6  1  0
  5  8  1  0
  6  7  2  0
  6 23  1  0
  7 24  1  0
  8  9  2  0
  8 10  1  0
 10 11  1  0
 10 18  1  0
 11 12  1  0
 11 25  1  0
 11 26  1  0
 12 13  2  0
 12 17  1  0
 13 14  1  0
 13 27  1  0
 14 15  2  0
 14 28  1  0
 15 16  1  0
 15 29  1  0
 16 17  2  0
 16 30  1  0
 17 31  1  0
 18 19  1  0
 18 20  1  0
 18 32  1  0
 19 33  1  0
 19 34  1  0
 19 35  1  0
 20 36  1  0
 20 37  1  0
 20 38  1  0
M  END

