38
rmsd20.gzmat
Cl         0.00000        0.00000        0.00000
C          1.71200        0.00000        0.00000
C          2.37390        0.00000        1.22160
C          3.76730       -0.01030        1.21630
C          4.45160       -0.02500        0.00110
C          3.76930       -0.00440       -1.21440
C          2.37500        0.00340       -1.22060
C          5.94350        0.00430       -0.00100
O          6.55150        1.04930       -0.13410
N          6.62010       -1.18230        0.23260
C          8.08850       -1.13820        0.13960
C          8.60220       -1.39840       -1.25330
C          9.30700       -2.56920       -1.53510
C          9.77430       -2.80580       -2.82650
C          9.54140       -1.87300       -3.83540
C          8.84860       -0.69710       -3.55010
C          8.38390       -0.45660       -2.26010
C          5.92590       -2.48300        0.13370
C          5.79550       -2.95490       -1.32240
C          6.62810       -3.55290        0.98150
H          1.82580        0.01170        2.16350
H          4.32040       -0.00220        2.15660
H          4.32200        0.01530       -2.15510
H          1.82710        0.01770       -2.16290
H          8.51510       -1.85940        0.87280
H          8.43470       -0.12440        0.47970
H          9.49490       -3.29960       -0.75180
H         10.32200       -3.71960       -3.04630
H          9.90340       -2.05990       -4.84390
H          8.67630        0.03750       -4.33450
H          7.85300        0.47100       -2.03000
H          4.89120       -2.33550        0.55750
H          6.77590       -3.11900       -1.78750
H          5.26810       -2.22030       -1.94030
H          5.24170       -3.89740       -1.38010
H          7.57590       -3.87520        0.53640
H          5.99540       -4.44390        1.07200
H          6.83260       -3.19000        1.99600
