rmsd39.gzmat
 OpenBabel08211713383D

 38 39  0  0  0  0  0  0  0  0999 V2000
    0.0000    0.0000    0.0000 Cl  0  0  0  0  0  0  0  0  0  0  0  0
    1.7122    0.0000    0.0000 C   0  0  0  0  0  0  0  0  0  0  0  0
    2.3763    0.0000    1.2202 C   0  0  0  0  0  0  0  0  0  0  0  0
    3.7704   -0.0045    1.2133 C   0  0  0  0  0  0  0  0  0  0  0  0
    4.4524   -0.0213   -0.0028 C   0  0  0  0  0  0  0  0  0  0  0  0
    3.7669   -0.0053   -1.2175 C   0  0  0  0  0  0  0  0  0  0  0  0
    2.3735    0.0021   -1.2220 C   0  0  0  0  0  0  0  0  0  0  0  0
    5.9444    0.0056    0.0078 C   0  0  0  0  0  0  0  0  0  0  0  0
    6.5531    1.0427    0.1874 O   0  0  0  0  0  0  0  0  0  0  0  0
    6.6207   -1.1734   -0.2635 N   0  0  0  0  0  0  0  0  0  0  0  0
    8.0879   -1.1381   -0.1500 C   0  0  0  0  0  0  0  0  0  0  0  0
    8.5848   -1.4658    1.2351 C   0  0  0  0  0  0  0  0  0  0  0  0
    9.2795   -2.6530    1.4690 C   0  0  0  0  0  0  0  0  0  0  0  0
    9.7305   -2.9536    2.7528 C   0  0  0  0  0  0  0  0  0  0  0  0
    9.4930   -2.0682    3.8022 C   0  0  0  0  0  0  0  0  0  0  0  0
    8.8110   -0.8753    3.5654 C   0  0  0  0  0  0  0  0  0  0  0  0
    8.3614   -0.5712    2.2833 C   0  0  0  0  0  0  0  0  0  0  0  0
    5.9206   -2.4742   -0.2185 C   0  0  0  0  0  0  0  0  0  0  0  0
    6.6259   -3.5173   -1.0960 C   0  0  0  0  0  0  0  0  0  0  0  0
    5.7731   -2.9949    1.2191 C   0  0  0  0  0  0  0  0  0  0  0  0
    1.8304    0.0084    2.1635 H   0  0  0  0  0  0  0  0  0  0  0  0
    4.3240    0.0141    2.1539 H   0  0  0  0  0  0  0  0  0  0  0  0
    4.3193    0.0055   -2.1583 H   0  0  0  0  0  0  0  0  0  0  0  0
    1.8243    0.0130   -2.1634 H   0  0  0  0  0  0  0  0  0  0  0  0
    8.4412   -0.1105   -0.4381 H   0  0  0  0  0  0  0  0  0  0  0  0
    8.5199   -1.8251   -0.9125 H   0  0  0  0  0  0  0  0  0  0  0  0
    9.4734   -3.3467    0.6545 H   0  0  0  0  0  0  0  0  0  0  0  0
   10.2701   -3.8810    2.9341 H   0  0  0  0  0  0  0  0  0  0  0  0
    9.8451   -2.3048    4.8040 H   0  0  0  0  0  0  0  0  0  0  0  0
    8.6340   -0.1779    4.3823 H   0  0  0  0  0  0  0  0  0  0  0  0
    7.8379    0.3691    2.0917 H   0  0  0  0  0  0  0  0  0  0  0  0
    4.8911   -2.3072   -0.6475 H   0  0  0  0  0  0  0  0  0  0  0  0
    7.5864   -3.8316   -0.6737 H   0  0  0  0  0  0  0  0  0  0  0  0
    6.8077   -3.1333   -2.1071 H   0  0  0  0  0  0  0  0  0  0  0  0
    6.0072   -4.4176   -1.1898 H   0  0  0  0  0  0  0  0  0  0  0  0
    6.7468   -3.2125    1.6763 H   0  0  0  0  0  0  0  0  0  0  0  0
    5.1846   -3.9175    1.2445 H   0  0  0  0  0  0  0  0  0  0  0  0
    5.2745   -2.2633    1.8640 H   0  0  0  0  0  0  0  0  0  0  0  0
  2  1  1  0  0  0  0
  2  3  2  0  0  0  0
  3 21  1  0  0  0  0
  4  3  1  0  0  0  0
  4 22  1  0  0  0  0
  5  8  1  0  0  0  0
  5  4  2  0  0  0  0
  6  5  1  0  0  0  0
  7  6  2  0  0  0  0
  7  2  1  0  0  0  0
  8  9  2  0  0  0  0
 10 18  1  0  0  0  0
 10 11  1  0  0  0  0
 10  8  1  0  0  0  0
 11 12  1  0  0  0  0
 12 13  2  0  0  0  0
 12 17  1  0  0  0  0
 13 14  1  0  0  0  0
 14 28  1  0  0  0  0
 14 15  2  0  0  0  0
 15 29  1  0  0  0  0
 16 15  1  0  0  0  0
 16 30  1  0  0  0  0
 17 16  2  0  0  0  0
 18 20  1  0  0  0  0
 19 33  1  0  0  0  0
 19 18  1  0  0  0  0
 20 37  1  0  0  0  0
 20 36  1  0  0  0  0
 20 38  1  0  0  0  0
 23  6  1  0  0  0  0
 24  7  1  0  0  0  0
 25 11  1  0  0  0  0
 26 11  1  0  0  0  0
 27 13  1  0  0  0  0
 31 17  1  0  0  0  0
 32 18  1  0  0  0  0
 34 19  1  0  0  0  0
 35 19  1  0  0  0  0
M  END
$$$$
