rmsd123.gzmat
 OpenBabel08211713383D

 38 39  0  0  0  0  0  0  0  0999 V2000
    0.0000    0.0000    0.0000 Cl  0  0  0  0  0  0  0  0  0  0  0  0
    1.7121    0.0000    0.0000 C   0  0  0  0  0  0  0  0  0  0  0  0
    2.3745    0.0000    1.2215 C   0  0  0  0  0  0  0  0  0  0  0  0
    3.7679   -0.0101    1.2160 C   0  0  0  0  0  0  0  0  0  0  0  0
    4.4531   -0.0240    0.0007 C   0  0  0  0  0  0  0  0  0  0  0  0
    3.7702   -0.0035   -1.2145 C   0  0  0  0  0  0  0  0  0  0  0  0
    2.3757    0.0032   -1.2202 C   0  0  0  0  0  0  0  0  0  0  0  0
    5.9449    0.0087   -0.0046 C   0  0  0  0  0  0  0  0  0  0  0  0
    6.5510    1.0375   -0.2341 O   0  0  0  0  0  0  0  0  0  0  0  0
    6.6231   -1.1487    0.3462 N   0  0  0  0  0  0  0  0  0  0  0  0
    8.0935   -1.0912    0.3227 C   0  0  0  0  0  0  0  0  0  0  0  0
    8.6958   -1.5637   -0.9750 C   0  0  0  0  0  0  0  0  0  0  0  0
    8.4459   -0.8637   -2.1566 C   0  0  0  0  0  0  0  0  0  0  0  0
    8.9985   -1.3041   -3.3561 C   0  0  0  0  0  0  0  0  0  0  0  0
    9.8112   -2.4370   -3.3773 C   0  0  0  0  0  0  0  0  0  0  0  0
   10.0758   -3.1247   -2.1948 C   0  0  0  0  0  0  0  0  0  0  0  0
    9.5185   -2.6900   -0.9939 C   0  0  0  0  0  0  0  0  0  0  0  0
    5.9502   -2.4636    0.2921 C   0  0  0  0  0  0  0  0  0  0  0  0
    5.8746   -3.0065   -1.1436 C   0  0  0  0  0  0  0  0  0  0  0  0
    6.6399   -3.4792    1.2124 C   0  0  0  0  0  0  0  0  0  0  0  0
    1.8268    0.0120    2.1635 H   0  0  0  0  0  0  0  0  0  0  0  0
    4.3201   -0.0026    2.1570 H   0  0  0  0  0  0  0  0  0  0  0  0
    4.3212    0.0179   -2.1562 H   0  0  0  0  0  0  0  0  0  0  0  0
    1.8289    0.0157   -2.1628 H   0  0  0  0  0  0  0  0  0  0  0  0
    8.4797   -1.6768    1.1885 H   0  0  0  0  0  0  0  0  0  0  0  0
    8.4123   -0.0292    0.5116 H   0  0  0  0  0  0  0  0  0  0  0  0
    7.8211    0.0319   -2.1316 H   0  0  0  0  0  0  0  0  0  0  0  0
    8.7996   -0.7601   -4.2777 H   0  0  0  0  0  0  0  0  0  0  0  0
   10.2430   -2.7812   -4.3147 H   0  0  0  0  0  0  0  0  0  0  0  0
   10.7211   -4.0008   -2.2073 H   0  0  0  0  0  0  0  0  0  0  0  0
    9.7313   -3.2296   -0.0743 H   0  0  0  0  0  0  0  0  0  0  0  0
    4.9006   -2.3106    0.6740 H   0  0  0  0  0  0  0  0  0  0  0  0
    6.8711   -3.2240   -1.5496 H   0  0  0  0  0  0  0  0  0  0  0  0
    5.4009   -2.2888   -1.8222 H   0  0  0  0  0  0  0  0  0  0  0  0
    5.2951   -3.9346   -1.1817 H   0  0  0  0  0  0  0  0  0  0  0  0
    7.6278   -3.7696    0.8375 H   0  0  0  0  0  0  0  0  0  0  0  0
    6.0427   -4.3954    1.2855 H   0  0  0  0  0  0  0  0  0  0  0  0
    6.7621   -3.0818    2.2269 H   0  0  0  0  0  0  0  0  0  0  0  0
  1  2  1  0  0  0  0
  2  3  2  0  0  0  0
  3 21  1  0  0  0  0
  4  3  1  0  0  0  0
  4 22  1  0  0  0  0
  5  4  2  0  0  0  0
  6  5  1  0  0  0  0
  7  6  2  0  0  0  0
  7  2  1  0  0  0  0
  8  5  1  0  0  0  0
  8 10  1  0  0  0  0
  9  8  2  0  0  0  0
 11 10  1  0  0  0  0
 11 26  1  0  0  0  0
 11 25  1  0  0  0  0
 12 11  1  0  0  0  0
 13 27  1  0  0  0  0
 13 12  2  0  0  0  0
 14 13  1  0  0  0  0
 15 14  2  0  0  0  0
 15 16  1  0  0  0  0
 16 17  2  0  0  0  0
 17 12  1  0  0  0  0
 17 31  1  0  0  0  0
 18 10  1  0  0  0  0
 18 32  1  0  0  0  0
 18 20  1  0  0  0  0
 19 18  1  0  0  0  0
 20 37  1  0  0  0  0
 20 38  1  0  0  0  0
 23  6  1  0  0  0  0
 24  7  1  0  0  0  0
 28 14  1  0  0  0  0
 29 15  1  0  0  0  0
 30 16  1  0  0  0  0
 33 19  1  0  0  0  0
 34 19  1  0  0  0  0
 35 19  1  0  0  0  0
 36 20  1  0  0  0  0
M  END
$$$$
