38
rmsd23.gzmat
Cl         0.00000        0.00000        0.00000
C          1.71220        0.00000        0.00000
C          2.37600        0.00000        1.22010
C          3.77020        0.00060        1.21400
C          4.45230       -0.00720       -0.00180
C          3.76710        0.00240       -1.21700
C          2.37400        0.00260       -1.22190
C          5.94350        0.04510       -0.00140
O          6.53510        1.09400        0.16700
N          6.63560       -1.12170       -0.28570
C          8.10530       -1.04950       -0.24550
C          8.67830       -1.35780        1.11380
C          9.43740       -2.51220        1.31020
C          9.95280       -2.79900        2.57270
C          9.71480       -1.93270        3.63800
C          8.96860       -0.77200        3.43780
C          8.45510       -0.48140        2.17690
C          5.97370       -2.43820       -0.17370
C          6.65890       -3.48090       -1.06750
C          5.91890       -2.93240        1.27990
H          1.82840        0.00500        2.16220
H          4.32280        0.01680        2.15490
H          4.31890        0.01540       -2.15850
H          1.82580        0.00960       -2.16380
H          8.41910       -0.01550       -0.55530
H          8.51460       -1.73090       -1.02600
H          9.62950       -3.19070        0.48240
H         10.54270       -3.70020        2.72540
H         10.11590       -2.15990        4.62330
H          8.78970       -0.08910        4.26630
H          7.88030        0.43390        2.01410
H          4.91730       -2.30760       -0.54620
H          7.62710       -3.79890       -0.66490
H          6.82210       -3.09520       -2.08100
H          6.03350       -4.37730       -1.15270
H          6.92220       -3.09670        1.69280
H          5.37570       -3.88010        1.35220
H          5.41920       -2.21040        1.93400
