rmsd37.gzmat
 OpenBabel08211713383D

 38 39  0  0  0  0  0  0  0  0999 V2000
    0.0000    0.0000    0.0000 Cl  0  0  0  0  0  0  0  0  0  0  0  0
    1.7121    0.0000    0.0000 C   0  0  0  0  0  0  0  0  0  0  0  0
    2.3751    0.0000    1.2211 C   0  0  0  0  0  0  0  0  0  0  0  0
    3.7686   -0.0199    1.2151 C   0  0  0  0  0  0  0  0  0  0  0  0
    4.4521   -0.0418   -0.0003 C   0  0  0  0  0  0  0  0  0  0  0  0
    3.7687   -0.0135   -1.2150 C   0  0  0  0  0  0  0  0  0  0  0  0
    2.3750   -0.0004   -1.2205 C   0  0  0  0  0  0  0  0  0  0  0  0
    5.9445   -0.0426   -0.0059 C   0  0  0  0  0  0  0  0  0  0  0  0
    6.5772    0.9918   -0.0956 O   0  0  0  0  0  0  0  0  0  0  0  0
    6.5926   -1.2546    0.1705 N   0  0  0  0  0  0  0  0  0  0  0  0
    8.0615   -1.2429    0.0840 C   0  0  0  0  0  0  0  0  0  0  0  0
    8.5790   -1.4820   -1.3115 C   0  0  0  0  0  0  0  0  0  0  0  0
    8.3669   -0.5242   -2.3045 C   0  0  0  0  0  0  0  0  0  0  0  0
    8.8444   -0.7413   -3.5941 C   0  0  0  0  0  0  0  0  0  0  0  0
    9.5457   -1.9088   -3.8923 C   0  0  0  0  0  0  0  0  0  0  0  0
    9.7678   -2.8597   -2.8983 C   0  0  0  0  0  0  0  0  0  0  0  0
    9.2853   -2.6480   -1.6083 C   0  0  0  0  0  0  0  0  0  0  0  0
    5.8672   -2.5325    0.0147 C   0  0  0  0  0  0  0  0  0  0  0  0
    5.7290   -2.9360   -1.4614 C   0  0  0  0  0  0  0  0  0  0  0  0
    6.5423   -3.6561    0.8133 C   0  0  0  0  0  0  0  0  0  0  0  0
    1.8278    0.0164    2.1632 H   0  0  0  0  0  0  0  0  0  0  0  0
    4.3216   -0.0148    2.1554 H   0  0  0  0  0  0  0  0  0  0  0  0
    4.3202    0.0048   -2.1565 H   0  0  0  0  0  0  0  0  0  0  0  0
    1.8283    0.0122   -2.1629 H   0  0  0  0  0  0  0  0  0  0  0  0
    8.4668   -1.9916    0.8016 H   0  0  0  0  0  0  0  0  0  0  0  0
    8.4308   -0.2460    0.4496 H   0  0  0  0  0  0  0  0  0  0  0  0
    7.8323    0.3980   -2.0626 H   0  0  0  0  0  0  0  0  0  0  0  0
    8.6743    0.0061   -4.3671 H   0  0  0  0  0  0  0  0  0  0  0  0
    9.9258   -2.0755   -4.8977 H   0  0  0  0  0  0  0  0  0  0  0  0
   10.3200   -3.7682   -3.1287 H   0  0  0  0  0  0  0  0  0  0  0  0
    9.4652   -3.3927   -0.8369 H   0  0  0  0  0  0  0  0  0  0  0  0
    4.8359   -2.3779    0.4444 H   0  0  0  0  0  0  0  0  0  0  0  0
    6.7058   -3.1266   -1.9240 H   0  0  0  0  0  0  0  0  0  0  0  0
    5.2440   -2.1515   -2.0517 H   0  0  0  0  0  0  0  0  0  0  0  0
    5.1313   -3.8470   -1.5651 H   0  0  0  0  0  0  0  0  0  0  0  0
    7.4773   -3.9881    0.3488 H   0  0  0  0  0  0  0  0  0  0  0  0
    5.8831   -4.5303    0.8725 H   0  0  0  0  0  0  0  0  0  0  0  0
    6.7647   -3.3412    1.8398 H   0  0  0  0  0  0  0  0  0  0  0  0
  1  2  1  0  0  0  0
  2  3  2  0  0  0  0
  3 21  1  0  0  0  0
  4  3  1  0  0  0  0
  4 22  1  0  0  0  0
  5  4  2  0  0  0  0
  6  5  1  0  0  0  0
  7  6  2  0  0  0  0
  7  2  1  0  0  0  0
  8  5  1  0  0  0  0
  8 10  1  0  0  0  0
  9  8  2  0  0  0  0
 11 10  1  0  0  0  0
 11 26  1  0  0  0  0
 11 25  1  0  0  0  0
 12 11  1  0  0  0  0
 13 27  1  0  0  0  0
 13 12  2  0  0  0  0
 14 13  1  0  0  0  0
 15 14  2  0  0  0  0
 15 16  1  0  0  0  0
 16 17  2  0  0  0  0
 17 12  1  0  0  0  0
 17 31  1  0  0  0  0
 18 10  1  0  0  0  0
 18 32  1  0  0  0  0
 18 20  1  0  0  0  0
 19 18  1  0  0  0  0
 20 37  1  0  0  0  0
 20 38  1  0  0  0  0
 23  6  1  0  0  0  0
 24  7  1  0  0  0  0
 28 14  1  0  0  0  0
 29 15  1  0  0  0  0
 30 16  1  0  0  0  0
 33 19  1  0  0  0  0
 34 19  1  0  0  0  0
 35 19  1  0  0  0  0
 36 20  1  0  0  0  0
M  END
$$$$
