rmsd105.gzmat
 OpenBabel08211713383D

 38 39  0  0  0  0  0  0  0  0999 V2000
    0.0000    0.0000    0.0000 Cl  0  0  0  0  0  0  0  0  0  0  0  0
    1.7121    0.0000    0.0000 C   0  0  0  0  0  0  0  0  0  0  0  0
    2.3756    0.0000    1.2204 C   0  0  0  0  0  0  0  0  0  0  0  0
    3.7698   -0.0036    1.2148 C   0  0  0  0  0  0  0  0  0  0  0  0
    4.4520   -0.0175   -0.0008 C   0  0  0  0  0  0  0  0  0  0  0  0
    3.7671   -0.0039   -1.2162 C   0  0  0  0  0  0  0  0  0  0  0  0
    2.3740    0.0024   -1.2217 C   0  0  0  0  0  0  0  0  0  0  0  0
    5.9437    0.0159   -0.0011 C   0  0  0  0  0  0  0  0  0  0  0  0
    6.5505    1.0566    0.1638 O   0  0  0  0  0  0  0  0  0  0  0  0
    6.6196   -1.1615   -0.2828 N   0  0  0  0  0  0  0  0  0  0  0  0
    8.0901   -1.1096   -0.2361 C   0  0  0  0  0  0  0  0  0  0  0  0
    8.6518   -1.4232    1.1266 C   0  0  0  0  0  0  0  0  0  0  0  0
    9.3941   -2.5872    1.3291 C   0  0  0  0  0  0  0  0  0  0  0  0
    9.8960   -2.8799    2.5957 C   0  0  0  0  0  0  0  0  0  0  0  0
    9.6586   -2.0113    3.6592 C   0  0  0  0  0  0  0  0  0  0  0  0
    8.9311   -0.8400    3.4524 C   0  0  0  0  0  0  0  0  0  0  0  0
    8.4348   -0.5414    2.1867 C   0  0  0  0  0  0  0  0  0  0  0  0
    5.9380   -2.4681   -0.1676 C   0  0  0  0  0  0  0  0  0  0  0  0
    6.6126   -3.5260   -1.0517 C   0  0  0  0  0  0  0  0  0  0  0  0
    5.8684   -2.9522    1.2890 C   0  0  0  0  0  0  0  0  0  0  0  0
    1.8276    0.0075    2.1624 H   0  0  0  0  0  0  0  0  0  0  0  0
    4.3224    0.0124    2.1557 H   0  0  0  0  0  0  0  0  0  0  0  0
    4.3210    0.0051   -2.1565 H   0  0  0  0  0  0  0  0  0  0  0  0
    1.8258    0.0126   -2.1633 H   0  0  0  0  0  0  0  0  0  0  0  0
    8.4202   -0.0807   -0.5458 H   0  0  0  0  0  0  0  0  0  0  0  0
    8.4928   -1.7974   -1.0140 H   0  0  0  0  0  0  0  0  0  0  0  0
    9.5840   -3.2691    0.5035 H   0  0  0  0  0  0  0  0  0  0  0  0
   10.4731   -3.7885    2.7535 H   0  0  0  0  0  0  0  0  0  0  0  0
   10.0461   -2.2441    4.6485 H   0  0  0  0  0  0  0  0  0  0  0  0
    8.7527   -0.1556    4.2797 H   0  0  0  0  0  0  0  0  0  0  0  0
    7.8789    0.3848    2.0171 H   0  0  0  0  0  0  0  0  0  0  0  0
    4.8862   -2.3238   -0.5480 H   0  0  0  0  0  0  0  0  0  0  0  0
    7.5823   -3.8408   -0.6509 H   0  0  0  0  0  0  0  0  0  0  0  0
    6.7687   -3.1549   -2.0719 H   0  0  0  0  0  0  0  0  0  0  0  0
    5.9848   -4.4223   -1.1197 H   0  0  0  0  0  0  0  0  0  0  0  0
    6.8668   -3.1386    1.7055 H   0  0  0  0  0  0  0  0  0  0  0  0
    5.3014   -3.8853    1.3658 H   0  0  0  0  0  0  0  0  0  0  0  0
    5.3855   -2.2140    1.9378 H   0  0  0  0  0  0  0  0  0  0  0  0
  1  2  1  0  0  0  0
  2  3  2  0  0  0  0
  3 21  1  0  0  0  0
  4  3  1  0  0  0  0
  4 22  1  0  0  0  0
  5  4  2  0  0  0  0
  6  5  1  0  0  0  0
  7  6  2  0  0  0  0
  7  2  1  0  0  0  0
  8  5  1  0  0  0  0
  8  9  2  0  0  0  0
 10 11  1  0  0  0  0
 10 18  1  0  0  0  0
 10  8  1  0  0  0  0
 11 12  1  0  0  0  0
 12 13  2  0  0  0  0
 12 17  1  0  0  0  0
 13 14  1  0  0  0  0
 14 28  1  0  0  0  0
 14 15  2  0  0  0  0
 15 29  1  0  0  0  0
 16 15  1  0  0  0  0
 16 30  1  0  0  0  0
 17 16  2  0  0  0  0
 18 20  1  0  0  0  0
 19 33  1  0  0  0  0
 19 18  1  0  0  0  0
 20 37  1  0  0  0  0
 20 36  1  0  0  0  0
 20 38  1  0  0  0  0
 23  6  1  0  0  0  0
 24  7  1  0  0  0  0
 25 11  1  0  0  0  0
 26 11  1  0  0  0  0
 27 13  1  0  0  0  0
 31 17  1  0  0  0  0
 32 18  1  0  0  0  0
 34 19  1  0  0  0  0
 35 19  1  0  0  0  0
M  END
$$$$
