38

Cl        -0.16830        0.23810       -0.43490
C          1.56510        0.14000       -0.25010
C          2.15470        0.53590        0.95380
C          3.54010        0.46090        1.09100
C          4.33790       -0.03460        0.05150
C          3.72830       -0.41490       -1.15280
C          2.34560       -0.32540       -1.31230
C          5.83400       -0.00600        0.21900
O          6.36810        1.03310        0.58900
N          6.54830       -1.13990       -0.08920
C          8.00950       -1.00750       -0.10490
C          8.70730       -1.41290        1.17730
C          9.60480       -2.48730        1.19620
C         10.22790       -2.87960        2.38530
C          9.95700       -2.19590        3.57230
C          9.07170       -1.11200        3.55980
C          8.45420       -0.71930        2.37190
C          5.94080       -2.48710       -0.04550
C          6.58920       -3.44050       -1.04840
C          5.91580       -3.07140        1.37320
H          1.52930        0.90770        1.76660
H          4.01830        0.79590        2.01330
H          4.34320       -0.77020       -1.98290
H          1.86910       -0.60990       -2.25130
H          8.21390        0.05110       -0.31020
H          8.40590       -1.59740       -0.94280
H          9.81680       -3.02880        0.26980
H         10.92360       -3.72240        2.38340
H         10.43830       -2.50170        4.50440
H          8.86590       -0.56550        4.48370
H          7.77150        0.13220        2.35110
H          4.89770       -2.35810       -0.35460
H          7.61140       -3.72050       -0.75350
H          6.62490       -2.99700       -2.05560
H          6.00020       -4.36830       -1.10370
H          6.92550       -3.28800        1.74730
H          5.33550       -4.00800        1.38050
H          5.43720       -2.36820        2.07150
