38
rmsd13.gzmat
Cl         0.00000        0.00000        0.00000
C          1.71230        0.00000        0.00000
C          2.37500        0.00000        1.22110
C          3.76890       -0.00360        1.21580
C          4.45280       -0.01240        0.00060
C          3.76910        0.00520       -1.21490
C          2.37500        0.00490       -1.22100
C          5.94430        0.03460       -0.01480
O          6.53640        1.09200       -0.12100
N          6.64280       -1.14900        0.15480
C          8.10370       -1.08870       -0.01610
C          8.53600       -1.30990       -1.44340
C          8.23120       -0.35530       -2.41550
C          8.60730       -0.56550       -3.73910
C          9.30290       -1.72110       -4.09250
C          9.63070       -2.66120       -3.11760
C          9.24860       -2.45740       -1.79300
C          5.96080       -2.45770        0.09250
C          5.78920       -2.95160       -1.35190
C          6.70630       -3.50650        0.93090
H          1.82700        0.00830        2.16320
H          4.32120        0.00740        2.15660
H          4.32150        0.03000       -2.15580
H          1.82670        0.01360       -2.16310
H          8.57710       -1.82360        0.67280
H          8.46170       -0.08070        0.32840
H          7.70140        0.55760       -2.13170
H          8.36230        0.17590       -4.49770
H          9.59360       -1.88600       -5.12760
H         10.18490       -3.55640       -3.39120
H          9.50830       -3.19400       -1.03660
H          4.93820       -2.31790        0.54690
H          6.75620       -3.12920       -1.83990
H          5.25090       -2.22250       -1.96720
H          5.22800       -3.89150       -1.37990
H          7.63710       -3.83210        0.45350
H          6.08420       -4.39850        1.06750
H          6.95280       -3.12050        1.92750
