rmsd20.gzmat
 OpenBabel08211713383D

 38 39  0  0  0  0  0  0  0  0999 V2000
    0.0000    0.0000    0.0000 Cl  0  0  0  0  0  0  0  0  0  0  0  0
    1.7120    0.0000    0.0000 C   0  0  0  0  0  0  0  0  0  0  0  0
    2.3739    0.0000    1.2216 C   0  0  0  0  0  0  0  0  0  0  0  0
    3.7673   -0.0103    1.2163 C   0  0  0  0  0  0  0  0  0  0  0  0
    4.4516   -0.0250    0.0011 C   0  0  0  0  0  0  0  0  0  0  0  0
    3.7693   -0.0044   -1.2144 C   0  0  0  0  0  0  0  0  0  0  0  0
    2.3750    0.0034   -1.2206 C   0  0  0  0  0  0  0  0  0  0  0  0
    5.9435    0.0043   -0.0010 C   0  0  0  0  0  0  0  0  0  0  0  0
    6.5515    1.0493   -0.1341 O   0  0  0  0  0  0  0  0  0  0  0  0
    6.6201   -1.1823    0.2326 N   0  0  0  0  0  0  0  0  0  0  0  0
    8.0885   -1.1382    0.1396 C   0  0  0  0  0  0  0  0  0  0  0  0
    8.6022   -1.3984   -1.2533 C   0  0  0  0  0  0  0  0  0  0  0  0
    9.3070   -2.5692   -1.5351 C   0  0  0  0  0  0  0  0  0  0  0  0
    9.7743   -2.8058   -2.8265 C   0  0  0  0  0  0  0  0  0  0  0  0
    9.5414   -1.8730   -3.8354 C   0  0  0  0  0  0  0  0  0  0  0  0
    8.8486   -0.6971   -3.5501 C   0  0  0  0  0  0  0  0  0  0  0  0
    8.3839   -0.4566   -2.2601 C   0  0  0  0  0  0  0  0  0  0  0  0
    5.9259   -2.4830    0.1337 C   0  0  0  0  0  0  0  0  0  0  0  0
    5.7955   -2.9549   -1.3224 C   0  0  0  0  0  0  0  0  0  0  0  0
    6.6281   -3.5529    0.9815 C   0  0  0  0  0  0  0  0  0  0  0  0
    1.8258    0.0117    2.1635 H   0  0  0  0  0  0  0  0  0  0  0  0
    4.3204   -0.0022    2.1566 H   0  0  0  0  0  0  0  0  0  0  0  0
    4.3220    0.0153   -2.1551 H   0  0  0  0  0  0  0  0  0  0  0  0
    1.8271    0.0177   -2.1629 H   0  0  0  0  0  0  0  0  0  0  0  0
    8.5151   -1.8594    0.8728 H   0  0  0  0  0  0  0  0  0  0  0  0
    8.4347   -0.1244    0.4797 H   0  0  0  0  0  0  0  0  0  0  0  0
    9.4949   -3.2996   -0.7518 H   0  0  0  0  0  0  0  0  0  0  0  0
   10.3220   -3.7196   -3.0463 H   0  0  0  0  0  0  0  0  0  0  0  0
    9.9034   -2.0599   -4.8439 H   0  0  0  0  0  0  0  0  0  0  0  0
    8.6763    0.0375   -4.3345 H   0  0  0  0  0  0  0  0  0  0  0  0
    7.8530    0.4710   -2.0300 H   0  0  0  0  0  0  0  0  0  0  0  0
    4.8912   -2.3355    0.5575 H   0  0  0  0  0  0  0  0  0  0  0  0
    6.7759   -3.1190   -1.7875 H   0  0  0  0  0  0  0  0  0  0  0  0
    5.2681   -2.2203   -1.9403 H   0  0  0  0  0  0  0  0  0  0  0  0
    5.2417   -3.8974   -1.3801 H   0  0  0  0  0  0  0  0  0  0  0  0
    7.5759   -3.8752    0.5364 H   0  0  0  0  0  0  0  0  0  0  0  0
    5.9954   -4.4439    1.0720 H   0  0  0  0  0  0  0  0  0  0  0  0
    6.8326   -3.1900    1.9960 H   0  0  0  0  0  0  0  0  0  0  0  0
  2  1  1  0  0  0  0
  2  3  2  0  0  0  0
  3 21  1  0  0  0  0
  4  3  1  0  0  0  0
  4 22  1  0  0  0  0
  5  4  2  0  0  0  0
  6  5  1  0  0  0  0
  7  6  2  0  0  0  0
  7  2  1  0  0  0  0
  8  5  1  0  0  0  0
  8 10  1  0  0  0  0
  9  8  2  0  0  0  0
 11 10  1  0  0  0  0
 11 26  1  0  0  0  0
 11 25  1  0  0  0  0
 12 11  1  0  0  0  0
 13 12  1  0  0  0  0
 13 27  1  0  0  0  0
 14 13  2  0  0  0  0
 15 16  2  0  0  0  0
 15 14  1  0  0  0  0
 16 17  1  0  0  0  0
 17 31  1  0  0  0  0
 17 12  2  0  0  0  0
 18 10  1  0  0  0  0
 18 32  1  0  0  0  0
 18 20  1  0  0  0  0
 19 18  1  0  0  0  0
 20 37  1  0  0  0  0
 20 38  1  0  0  0  0
 23  6  1  0  0  0  0
 24  7  1  0  0  0  0
 28 14  1  0  0  0  0
 29 15  1  0  0  0  0
 30 16  1  0  0  0  0
 33 19  1  0  0  0  0
 34 19  1  0  0  0  0
 35 19  1  0  0  0  0
 36 20  1  0  0  0  0
M  END
$$$$
