rmsd13.gzmat
 OpenBabel08211713383D

 38 39  0  0  0  0  0  0  0  0999 V2000
    0.0000    0.0000    0.0000 Cl  0  0  0  0  0  0  0  0  0  0  0  0
    1.7123    0.0000    0.0000 C   0  0  0  0  0  0  0  0  0  0  0  0
    2.3750    0.0000    1.2211 C   0  0  0  0  0  0  0  0  0  0  0  0
    3.7689   -0.0036    1.2158 C   0  0  0  0  0  0  0  0  0  0  0  0
    4.4528   -0.0124    0.0006 C   0  0  0  0  0  0  0  0  0  0  0  0
    3.7691    0.0052   -1.2149 C   0  0  0  0  0  0  0  0  0  0  0  0
    2.3750    0.0049   -1.2210 C   0  0  0  0  0  0  0  0  0  0  0  0
    5.9443    0.0346   -0.0148 C   0  0  0  0  0  0  0  0  0  0  0  0
    6.5364    1.0920   -0.1210 O   0  0  0  0  0  0  0  0  0  0  0  0
    6.6428   -1.1490    0.1548 N   0  0  0  0  0  0  0  0  0  0  0  0
    8.1037   -1.0887   -0.0161 C   0  0  0  0  0  0  0  0  0  0  0  0
    8.5360   -1.3099   -1.4434 C   0  0  0  0  0  0  0  0  0  0  0  0
    8.2312   -0.3553   -2.4155 C   0  0  0  0  0  0  0  0  0  0  0  0
    8.6073   -0.5655   -3.7391 C   0  0  0  0  0  0  0  0  0  0  0  0
    9.3029   -1.7211   -4.0925 C   0  0  0  0  0  0  0  0  0  0  0  0
    9.6307   -2.6612   -3.1176 C   0  0  0  0  0  0  0  0  0  0  0  0
    9.2486   -2.4574   -1.7930 C   0  0  0  0  0  0  0  0  0  0  0  0
    5.9608   -2.4577    0.0925 C   0  0  0  0  0  0  0  0  0  0  0  0
    5.7892   -2.9516   -1.3519 C   0  0  0  0  0  0  0  0  0  0  0  0
    6.7063   -3.5065    0.9309 C   0  0  0  0  0  0  0  0  0  0  0  0
    1.8270    0.0083    2.1632 H   0  0  0  0  0  0  0  0  0  0  0  0
    4.3212    0.0074    2.1566 H   0  0  0  0  0  0  0  0  0  0  0  0
    4.3215    0.0300   -2.1558 H   0  0  0  0  0  0  0  0  0  0  0  0
    1.8267    0.0136   -2.1631 H   0  0  0  0  0  0  0  0  0  0  0  0
    8.5771   -1.8236    0.6728 H   0  0  0  0  0  0  0  0  0  0  0  0
    8.4617   -0.0807    0.3284 H   0  0  0  0  0  0  0  0  0  0  0  0
    7.7014    0.5576   -2.1317 H   0  0  0  0  0  0  0  0  0  0  0  0
    8.3623    0.1759   -4.4977 H   0  0  0  0  0  0  0  0  0  0  0  0
    9.5936   -1.8860   -5.1276 H   0  0  0  0  0  0  0  0  0  0  0  0
   10.1849   -3.5564   -3.3912 H   0  0  0  0  0  0  0  0  0  0  0  0
    9.5083   -3.1940   -1.0366 H   0  0  0  0  0  0  0  0  0  0  0  0
    4.9382   -2.3179    0.5469 H   0  0  0  0  0  0  0  0  0  0  0  0
    6.7562   -3.1292   -1.8399 H   0  0  0  0  0  0  0  0  0  0  0  0
    5.2509   -2.2225   -1.9672 H   0  0  0  0  0  0  0  0  0  0  0  0
    5.2280   -3.8915   -1.3799 H   0  0  0  0  0  0  0  0  0  0  0  0
    7.6371   -3.8321    0.4535 H   0  0  0  0  0  0  0  0  0  0  0  0
    6.0842   -4.3985    1.0675 H   0  0  0  0  0  0  0  0  0  0  0  0
    6.9528   -3.1205    1.9275 H   0  0  0  0  0  0  0  0  0  0  0  0
  1  2  1  0  0  0  0
  2  3  2  0  0  0  0
  3 21  1  0  0  0  0
  4  3  1  0  0  0  0
  4 22  1  0  0  0  0
  5  4  2  0  0  0  0
  6  5  1  0  0  0  0
  7  6  2  0  0  0  0
  7  2  1  0  0  0  0
  8  5  1  0  0  0  0
  8 10  1  0  0  0  0
  9  8  2  0  0  0  0
 11 10  1  0  0  0  0
 11 26  1  0  0  0  0
 11 25  1  0  0  0  0
 12 11  1  0  0  0  0
 13 27  1  0  0  0  0
 13 12  2  0  0  0  0
 14 13  1  0  0  0  0
 15 14  2  0  0  0  0
 15 16  1  0  0  0  0
 16 17  2  0  0  0  0
 17 12  1  0  0  0  0
 17 31  1  0  0  0  0
 18 10  1  0  0  0  0
 18 32  1  0  0  0  0
 18 20  1  0  0  0  0
 19 18  1  0  0  0  0
 20 37  1  0  0  0  0
 20 38  1  0  0  0  0
 23  6  1  0  0  0  0
 24  7  1  0  0  0  0
 28 14  1  0  0  0  0
 29 15  1  0  0  0  0
 30 16  1  0  0  0  0
 33 19  1  0  0  0  0
 34 19  1  0  0  0  0
 35 19  1  0  0  0  0
 36 20  1  0  0  0  0
M  END
$$$$
