rmsd121.gzmat
 OpenBabel08211713383D

 38 39  0  0  0  0  0  0  0  0999 V2000
    0.0000    0.0000    0.0000 Cl  0  0  0  0  0  0  0  0  0  0  0  0
    1.7120    0.0000    0.0000 C   0  0  0  0  0  0  0  0  0  0  0  0
    2.3741    0.0000    1.2215 C   0  0  0  0  0  0  0  0  0  0  0  0
    3.7674   -0.0107    1.2162 C   0  0  0  0  0  0  0  0  0  0  0  0
    4.4517   -0.0253    0.0010 C   0  0  0  0  0  0  0  0  0  0  0  0
    3.7693   -0.0031   -1.2143 C   0  0  0  0  0  0  0  0  0  0  0  0
    2.3749    0.0028   -1.2205 C   0  0  0  0  0  0  0  0  0  0  0  0
    5.9439   -0.0035    0.0014 C   0  0  0  0  0  0  0  0  0  0  0  0
    6.5590    1.0413   -0.0938 O   0  0  0  0  0  0  0  0  0  0  0  0
    6.6124   -1.2018    0.1931 N   0  0  0  0  0  0  0  0  0  0  0  0
    8.0808   -1.1655    0.0986 C   0  0  0  0  0  0  0  0  0  0  0  0
    8.5887   -1.3643   -1.3068 C   0  0  0  0  0  0  0  0  0  0  0  0
    8.3963   -0.3657   -2.2624 C   0  0  0  0  0  0  0  0  0  0  0  0
    8.8561   -0.5500   -3.5635 C   0  0  0  0  0  0  0  0  0  0  0  0
    9.5187   -1.7264   -3.9105 C   0  0  0  0  0  0  0  0  0  0  0  0
    9.7256   -2.7167   -2.9526 C   0  0  0  0  0  0  0  0  0  0  0  0
    9.2622   -2.5369   -1.6508 C   0  0  0  0  0  0  0  0  0  0  0  0
    5.9082   -2.4943    0.0650 C   0  0  0  0  0  0  0  0  0  0  0  0
    5.7793   -2.9351   -1.4005 C   0  0  0  0  0  0  0  0  0  0  0  0
    6.5981   -3.5875    0.8930 C   0  0  0  0  0  0  0  0  0  0  0  0
    1.8262    0.0119    2.1633 H   0  0  0  0  0  0  0  0  0  0  0  0
    4.3203   -0.0015    2.1565 H   0  0  0  0  0  0  0  0  0  0  0  0
    4.3208    0.0181   -2.1557 H   0  0  0  0  0  0  0  0  0  0  0  0
    1.8274    0.0138   -2.1627 H   0  0  0  0  0  0  0  0  0  0  0  0
    8.5034   -1.9241    0.7953 H   0  0  0  0  0  0  0  0  0  0  0  0
    8.4366   -0.1723    0.4859 H   0  0  0  0  0  0  0  0  0  0  0  0
    7.8881    0.5612   -1.9839 H   0  0  0  0  0  0  0  0  0  0  0  0
    8.7015    0.2288   -4.3079 H   0  0  0  0  0  0  0  0  0  0  0  0
    9.8799   -1.8686   -4.9266 H   0  0  0  0  0  0  0  0  0  0  0  0
   10.2508   -3.6312   -3.2200 H   0  0  0  0  0  0  0  0  0  0  0  0
    9.4277   -3.3124   -0.9073 H   0  0  0  0  0  0  0  0  0  0  0  0
    4.8731   -2.3473    0.4881 H   0  0  0  0  0  0  0  0  0  0  0  0
    6.7600   -3.0802   -1.8705 H   0  0  0  0  0  0  0  0  0  0  0  0
    5.2451   -2.1912   -2.0006 H   0  0  0  0  0  0  0  0  0  0  0  0
    5.2332   -3.8805   -1.4792 H   0  0  0  0  0  0  0  0  0  0  0  0
    7.5480   -3.9049    0.4495 H   0  0  0  0  0  0  0  0  0  0  0  0
    5.9598   -4.4766    0.9583 H   0  0  0  0  0  0  0  0  0  0  0  0
    6.7962   -3.2481    1.9168 H   0  0  0  0  0  0  0  0  0  0  0  0
  1  2  1  0  0  0  0
  2  3  2  0  0  0  0
  3 21  1  0  0  0  0
  4  3  1  0  0  0  0
  4 22  1  0  0  0  0
  5  8  1  0  0  0  0
  5  4  2  0  0  0  0
  6  5  1  0  0  0  0
  7  6  2  0  0  0  0
  7  2  1  0  0  0  0
  8 10  1  0  0  0  0
  9  8  2  0  0  0  0
 11 10  1  0  0  0  0
 11 26  1  0  0  0  0
 11 25  1  0  0  0  0
 12 11  1  0  0  0  0
 13 27  1  0  0  0  0
 13 12  2  0  0  0  0
 14 13  1  0  0  0  0
 15 14  2  0  0  0  0
 15 16  1  0  0  0  0
 16 17  2  0  0  0  0
 17 12  1  0  0  0  0
 17 31  1  0  0  0  0
 18 10  1  0  0  0  0
 18 32  1  0  0  0  0
 18 20  1  0  0  0  0
 19 18  1  0  0  0  0
 20 37  1  0  0  0  0
 20 38  1  0  0  0  0
 23  6  1  0  0  0  0
 24  7  1  0  0  0  0
 28 14  1  0  0  0  0
 29 15  1  0  0  0  0
 30 16  1  0  0  0  0
 33 19  1  0  0  0  0
 34 19  1  0  0  0  0
 35 19  1  0  0  0  0
 36 20  1  0  0  0  0
M  END
$$$$
