rmsd38.gzmat
 OpenBabel08211713383D

 38 39  0  0  0  0  0  0  0  0999 V2000
    0.0000    0.0000    0.0000 Cl  0  0  0  0  0  0  0  0  0  0  0  0
    1.7121    0.0000    0.0000 C   0  0  0  0  0  0  0  0  0  0  0  0
    2.3751    0.0000    1.2211 C   0  0  0  0  0  0  0  0  0  0  0  0
    3.7684   -0.0090    1.2146 C   0  0  0  0  0  0  0  0  0  0  0  0
    4.4526   -0.0236   -0.0009 C   0  0  0  0  0  0  0  0  0  0  0  0
    3.7693   -0.0048   -1.2158 C   0  0  0  0  0  0  0  0  0  0  0  0
    2.3750    0.0021   -1.2205 C   0  0  0  0  0  0  0  0  0  0  0  0
    5.9446    0.0070   -0.0012 C   0  0  0  0  0  0  0  0  0  0  0  0
    6.5530    1.0499   -0.1469 O   0  0  0  0  0  0  0  0  0  0  0  0
    6.6212   -1.1755    0.2530 N   0  0  0  0  0  0  0  0  0  0  0  0
    8.0905   -1.1280    0.1824 C   0  0  0  0  0  0  0  0  0  0  0  0
    8.6307   -1.4283   -1.1923 C   0  0  0  0  0  0  0  0  0  0  0  0
    8.4105   -0.5303   -2.2382 C   0  0  0  0  0  0  0  0  0  0  0  0
    8.9025   -0.8103   -3.5103 C   0  0  0  0  0  0  0  0  0  0  0  0
    9.6251   -1.9806   -3.7388 C   0  0  0  0  0  0  0  0  0  0  0  0
    9.8610   -2.8685   -2.6908 C   0  0  0  0  0  0  0  0  0  0  0  0
    9.3641   -2.5943   -1.4181 C   0  0  0  0  0  0  0  0  0  0  0  0
    5.9336   -2.4795    0.1528 C   0  0  0  0  0  0  0  0  0  0  0  0
    5.8425   -2.9682   -1.3007 C   0  0  0  0  0  0  0  0  0  0  0  0
    6.6177   -3.5390    1.0279 C   0  0  0  0  0  0  0  0  0  0  0  0
    1.8279    0.0099    2.1635 H   0  0  0  0  0  0  0  0  0  0  0  0
    4.3226   -0.0006    2.1545 H   0  0  0  0  0  0  0  0  0  0  0  0
    4.3196    0.0138   -2.1578 H   0  0  0  0  0  0  0  0  0  0  0  0
    1.8275    0.0147   -2.1625 H   0  0  0  0  0  0  0  0  0  0  0  0
    8.5050   -1.8253    0.9454 H   0  0  0  0  0  0  0  0  0  0  0  0
    8.4288   -0.1033    0.4977 H   0  0  0  0  0  0  0  0  0  0  0  0
    7.8563    0.3935   -2.0532 H   0  0  0  0  0  0  0  0  0  0  0  0
    8.7263   -0.1113   -4.3261 H   0  0  0  0  0  0  0  0  0  0  0  0
   10.0091   -2.1977   -4.7330 H   0  0  0  0  0  0  0  0  0  0  0  0
   10.4345   -3.7766   -2.8650 H   0  0  0  0  0  0  0  0  0  0  0  0
    9.5518   -3.2912   -0.6045 H   0  0  0  0  0  0  0  0  0  0  0  0
    4.8888   -2.3307    0.5496 H   0  0  0  0  0  0  0  0  0  0  0  0
    6.8342   -3.1667   -1.7265 H   0  0  0  0  0  0  0  0  0  0  0  0
    5.3606   -2.2272   -1.9467 H   0  0  0  0  0  0  0  0  0  0  0  0
    5.2653   -3.8956   -1.3670 H   0  0  0  0  0  0  0  0  0  0  0  0
    7.5782   -3.8610    0.6110 H   0  0  0  0  0  0  0  0  0  0  0  0
    5.9860   -4.4316    1.1080 H   0  0  0  0  0  0  0  0  0  0  0  0
    6.7936   -3.1670    2.0440 H   0  0  0  0  0  0  0  0  0  0  0  0
  1  2  1  0  0  0  0
  2  3  2  0  0  0  0
  3 21  1  0  0  0  0
  4  3  1  0  0  0  0
  4 22  1  0  0  0  0
  5  4  2  0  0  0  0
  6  5  1  0  0  0  0
  7  6  2  0  0  0  0
  7  2  1  0  0  0  0
  8  5  1  0  0  0  0
  8 10  1  0  0  0  0
  9  8  2  0  0  0  0
 11 10  1  0  0  0  0
 11 26  1  0  0  0  0
 11 25  1  0  0  0  0
 12 11  1  0  0  0  0
 13 27  1  0  0  0  0
 13 12  2  0  0  0  0
 14 13  1  0  0  0  0
 15 14  2  0  0  0  0
 15 16  1  0  0  0  0
 16 17  2  0  0  0  0
 17 12  1  0  0  0  0
 17 31  1  0  0  0  0
 18 10  1  0  0  0  0
 18 32  1  0  0  0  0
 18 20  1  0  0  0  0
 19 18  1  0  0  0  0
 20 37  1  0  0  0  0
 20 38  1  0  0  0  0
 23  6  1  0  0  0  0
 24  7  1  0  0  0  0
 28 14  1  0  0  0  0
 29 15  1  0  0  0  0
 30 16  1  0  0  0  0
 33 19  1  0  0  0  0
 34 19  1  0  0  0  0
 35 19  1  0  0  0  0
 36 20  1  0  0  0  0
M  END
$$$$
