rmsd1.gzmat
 OpenBabel08211713433D

 33 36  0  0  0  0  0  0  0  0999 V2000
    0.0000    0.0000    0.0000 O   0  0  0  0  0  0  0  0  0  0  0  0
    1.4340    0.0000    0.0000 S   0  0  0  0  0  0  0  0  0  0  0  0
    2.1803    0.0000    1.2559 O   0  0  0  0  0  0  0  0  0  0  0  0
    2.0088   -1.4343   -0.7849 N   0  0  0  0  0  0  0  0  0  0  0  0
    2.6887   -2.3447   -0.1806 C   0  0  0  0  0  0  0  0  0  0  0  0
    3.0979   -2.4983    1.1749 N   0  0  0  0  0  0  0  0  0  0  0  0
    3.0568   -1.7873    1.9107 H   0  0  0  0  0  0  0  0  0  0  0  0
    3.8301   -3.6482    1.3026 N   0  0  0  0  0  0  0  0  0  0  0  0
    3.8745   -4.2556    0.1825 N   0  0  0  0  0  0  0  0  0  0  0  0
    3.2438   -3.4994   -0.7823 N   0  0  0  0  0  0  0  0  0  0  0  0
    3.0285   -3.8865   -1.6834 H   0  0  0  0  0  0  0  0  0  0  0  0
    2.0419    1.2796   -1.0186 C   0  0  0  0  0  0  0  0  0  0  0  0
    1.4754    1.5103   -2.2675 C   0  0  0  0  0  0  0  0  0  0  0  0
    1.9834    2.5279   -3.0824 C   0  0  0  0  0  0  0  0  0  0  0  0
    3.0520    3.2952   -2.6128 C   0  0  0  0  0  0  0  0  0  0  0  0
    3.6300    3.0776   -1.3536 C   0  0  0  0  0  0  0  0  0  0  0  0
    3.1134    2.0629   -0.5636 C   0  0  0  0  0  0  0  0  0  0  0  0
    3.6239    4.3093   -3.3187 O   0  0  0  0  0  0  0  0  0  0  0  0
    3.1217    4.5896   -4.5660 C   0  0  0  0  0  0  0  0  0  0  0  0
    3.7695    5.6444   -5.2159 C   0  0  0  0  0  0  0  0  0  0  0  0
    3.3210    5.9980   -6.4826 C   0  0  0  0  0  0  0  0  0  0  0  0
    2.2570    5.3145   -7.0830 C   0  0  0  0  0  0  0  0  0  0  0  0
    1.6309    4.2665   -6.4194 C   0  0  0  0  0  0  0  0  0  0  0  0
    2.0615    3.8913   -5.1415 C   0  0  0  0  0  0  0  0  0  0  0  0
    1.4154    2.7897   -4.4129 C   0  0  0  0  0  0  0  0  0  0  0  0
    0.4954    2.1527   -4.8704 O   0  0  0  0  0  0  0  0  0  0  0  0
    0.6283    0.9137   -2.6456 H   0  0  0  0  0  0  0  0  0  0  0  0
    4.4614    3.6941   -1.0210 H   0  0  0  0  0  0  0  0  0  0  0  0
    3.5543    1.8829    0.4287 H   0  0  0  0  0  0  0  0  0  0  0  0
    4.5955    6.1627   -4.7343 H   0  0  0  0  0  0  0  0  0  0  0  0
    3.8033    6.8190   -7.0163 H   0  0  0  0  0  0  0  0  0  0  0  0
    1.9201    5.6090   -8.0755 H   0  0  0  0  0  0  0  0  0  0  0  0
    0.7985    3.7229   -6.8788 H   0  0  0  0  0  0  0  0  0  0  0  0
  1  2  2  0  0  0  0
  2  3  2  0  0  0  0
  4  5  2  0  0  0  0
  4  2  1  0  0  0  0
  5  6  1  0  0  0  0
  6  8  1  0  0  0  0
  6  7  1  0  0  0  0
  9  8  2  0  0  0  0
 10  5  1  0  0  0  0
 10  9  1  0  0  0  0
 11 10  1  0  0  0  0
 12 17  1  0  0  0  0
 12  2  1  0  0  0  0
 13 12  2  0  0  0  0
 14 15  2  0  0  0  0
 14 13  1  0  0  0  0
 15 16  1  0  0  0  0
 16 28  1  0  0  0  0
 16 17  2  0  0  0  0
 17 29  1  0  0  0  0
 18 15  1  0  0  0  0
 19 18  1  0  0  0  0
 20 30  1  0  0  0  0
 20 19  2  0  0  0  0
 21 20  1  0  0  0  0
 22 21  2  0  0  0  0
 22 23  1  0  0  0  0
 23 24  2  0  0  0  0
 24 19  1  0  0  0  0
 24 25  1  0  0  0  0
 25 14  1  0  0  0  0
 26 25  2  0  0  0  0
 27 13  1  0  0  0  0
 31 21  1  0  0  0  0
 32 22  1  0  0  0  0
 33 23  1  0  0  0  0
M  END
$$$$
