rmsd13.gzmat
 OpenBabel08211713433D

 33 36  0  0  0  0  0  0  0  0999 V2000
    0.0000    0.0000    0.0000 O   0  0  0  0  0  0  0  0  0  0  0  0
    1.4345    0.0000    0.0000 S   0  0  0  0  0  0  0  0  0  0  0  0
    2.1817    0.0000    1.2554 O   0  0  0  0  0  0  0  0  0  0  0  0
    2.0104   -1.4374   -0.7798 N   0  0  0  0  0  0  0  0  0  0  0  0
    2.6866   -2.3472   -0.1700 C   0  0  0  0  0  0  0  0  0  0  0  0
    3.0883   -2.4948    1.1888 N   0  0  0  0  0  0  0  0  0  0  0  0
    3.0378   -1.7817    1.9223 H   0  0  0  0  0  0  0  0  0  0  0  0
    3.8225   -3.6423    1.3255 N   0  0  0  0  0  0  0  0  0  0  0  0
    3.8742   -4.2544    0.2086 N   0  0  0  0  0  0  0  0  0  0  0  0
    3.2504   -3.5019   -0.7650 N   0  0  0  0  0  0  0  0  0  0  0  0
    3.0221   -3.9052   -1.6565 H   0  0  0  0  0  0  0  0  0  0  0  0
    2.0360    1.2832   -1.0174 C   0  0  0  0  0  0  0  0  0  0  0  0
    1.3652    1.6241   -2.1869 C   0  0  0  0  0  0  0  0  0  0  0  0
    1.8601    2.6535   -2.9952 C   0  0  0  0  0  0  0  0  0  0  0  0
    3.0232    3.3189   -2.6003 C   0  0  0  0  0  0  0  0  0  0  0  0
    3.7064    2.9911   -1.4201 C   0  0  0  0  0  0  0  0  0  0  0  0
    3.2015    1.9659   -0.6364 C   0  0  0  0  0  0  0  0  0  0  0  0
    3.5943    4.3311   -3.3091 O   0  0  0  0  0  0  0  0  0  0  0  0
    2.9755    4.7373   -4.4661 C   0  0  0  0  0  0  0  0  0  0  0  0
    3.6188    5.7968   -5.1126 C   0  0  0  0  0  0  0  0  0  0  0  0
    3.0567    6.2743   -6.2903 C   0  0  0  0  0  0  0  0  0  0  0  0
    1.8852    5.7074   -6.8062 C   0  0  0  0  0  0  0  0  0  0  0  0
    1.2643    4.6536   -6.1467 C   0  0  0  0  0  0  0  0  0  0  0  0
    1.8101    4.1528   -4.9592 C   0  0  0  0  0  0  0  0  0  0  0  0
    1.1771    3.0377   -4.2393 C   0  0  0  0  0  0  0  0  0  0  0  0
    0.1788    2.4838   -4.6372 O   0  0  0  0  0  0  0  0  0  0  0  0
    0.4418    1.1096   -2.5037 H   0  0  0  0  0  0  0  0  0  0  0  0
    4.6045    3.5369   -1.1401 H   0  0  0  0  0  0  0  0  0  0  0  0
    3.7241    1.7001    0.2944 H   0  0  0  0  0  0  0  0  0  0  0  0
    4.5277    6.2247   -4.6962 H   0  0  0  0  0  0  0  0  0  0  0  0
    3.5340    7.1019   -6.8184 H   0  0  0  0  0  0  0  0  0  0  0  0
    1.4603    6.0968   -7.7300 H   0  0  0  0  0  0  0  0  0  0  0  0
    0.3473    4.2022   -6.5401 H   0  0  0  0  0  0  0  0  0  0  0  0
  1  2  2  0  0  0  0
  2  3  2  0  0  0  0
  4  5  2  0  0  0  0
  4  2  1  0  0  0  0
  5  6  1  0  0  0  0
  6  8  1  0  0  0  0
  6  7  1  0  0  0  0
  9  8  2  0  0  0  0
 10  5  1  0  0  0  0
 10  9  1  0  0  0  0
 11 10  1  0  0  0  0
 12 17  1  0  0  0  0
 12  2  1  0  0  0  0
 13 12  2  0  0  0  0
 14 15  2  0  0  0  0
 14 13  1  0  0  0  0
 15 16  1  0  0  0  0
 16 28  1  0  0  0  0
 16 17  2  0  0  0  0
 17 29  1  0  0  0  0
 18 15  1  0  0  0  0
 19 18  1  0  0  0  0
 20 30  1  0  0  0  0
 20 19  2  0  0  0  0
 21 20  1  0  0  0  0
 22 21  2  0  0  0  0
 22 23  1  0  0  0  0
 23 24  2  0  0  0  0
 24 19  1  0  0  0  0
 24 25  1  0  0  0  0
 25 14  1  0  0  0  0
 26 25  2  0  0  0  0
 27 13  1  0  0  0  0
 31 21  1  0  0  0  0
 32 22  1  0  0  0  0
 33 23  1  0  0  0  0
M  END
$$$$
