rmsd22.gzmat
 OpenBabel08211713433D

 33 36  0  0  0  0  0  0  0  0999 V2000
    0.0000    0.0000    0.0000 O   0  0  0  0  0  0  0  0  0  0  0  0
    1.4606    0.0000    0.0000 S   0  0  0  0  0  0  0  0  0  0  0  0
    2.1960    0.0000    1.2317 O   0  0  0  0  0  0  0  0  0  0  0  0
    1.8356   -1.4383   -0.8925 N   0  0  0  0  0  0  0  0  0  0  0  0
    0.9675   -2.3504   -1.1592 C   0  0  0  0  0  0  0  0  0  0  0  0
   -0.4090   -2.4941   -0.8226 N   0  0  0  0  0  0  0  0  0  0  0  0
   -1.0145   -1.7850   -0.3996 H   0  0  0  0  0  0  0  0  0  0  0  0
   -0.8945   -3.6506   -1.3699 N   0  0  0  0  0  0  0  0  0  0  0  0
    0.0440   -4.2668   -1.9741 N   0  0  0  0  0  0  0  0  0  0  0  0
    1.1976   -3.5129   -1.9332 N   0  0  0  0  0  0  0  0  0  0  0  0
    2.0810   -3.9100   -2.1983 H   0  0  0  0  0  0  0  0  0  0  0  0
    2.0315    1.2788   -1.0404 C   0  0  0  0  0  0  0  0  0  0  0  0
    3.3717    1.6496   -1.0216 C   0  0  0  0  0  0  0  0  0  0  0  0
    3.8243    2.6574   -1.8802 C   0  0  0  0  0  0  0  0  0  0  0  0
    2.9077    3.2754   -2.7342 C   0  0  0  0  0  0  0  0  0  0  0  0
    1.5498    2.9251   -2.7507 C   0  0  0  0  0  0  0  0  0  0  0  0
    1.1237    1.9211   -1.8962 C   0  0  0  0  0  0  0  0  0  0  0  0
    3.2371    4.2612   -3.6135 O   0  0  0  0  0  0  0  0  0  0  0  0
    4.5556    4.6368   -3.6964 C   0  0  0  0  0  0  0  0  0  0  0  0
    4.8087    5.6175   -4.6601 C   0  0  0  0  0  0  0  0  0  0  0  0
    6.1209    6.0454   -4.8203 C   0  0  0  0  0  0  0  0  0  0  0  0
    7.1496    5.5106   -4.0357 C   0  0  0  0  0  0  0  0  0  0  0  0
    6.8720    4.5447   -3.0762 C   0  0  0  0  0  0  0  0  0  0  0  0
    5.5598    4.0927   -2.8974 C   0  0  0  0  0  0  0  0  0  0  0  0
    5.2374    3.0630   -1.8980 C   0  0  0  0  0  0  0  0  0  0  0  0
    6.0660    2.5857   -1.1583 O   0  0  0  0  0  0  0  0  0  0  0  0
    4.1000    1.1751   -0.3414 H   0  0  0  0  0  0  0  0  0  0  0  0
    0.8631    3.4354   -3.4219 H   0  0  0  0  0  0  0  0  0  0  0  0
    0.0603    1.6403   -1.8934 H   0  0  0  0  0  0  0  0  0  0  0  0
    3.9966    6.0222   -5.2595 H   0  0  0  0  0  0  0  0  0  0  0  0
    6.3529    6.8062   -5.5680 H   0  0  0  0  0  0  0  0  0  0  0  0
    8.1722    5.8552   -4.1811 H   0  0  0  0  0  0  0  0  0  0  0  0
    7.6665    4.1249   -2.4503 H   0  0  0  0  0  0  0  0  0  0  0  0
  1  2  2  0  0  0  0
  2  3  2  0  0  0  0
  4  2  1  0  0  0  0
  5  4  2  0  0  0  0
  5  6  1  0  0  0  0
  6  7  1  0  0  0  0
  8  6  1  0  0  0  0
  9 10  1  0  0  0  0
  9  8  2  0  0  0  0
 10  5  1  0  0  0  0
 11 10  1  0  0  0  0
 12 13  1  0  0  0  0
 12  2  1  0  0  0  0
 13 27  1  0  0  0  0
 14 13  2  0  0  0  0
 15 14  1  0  0  0  0
 16 15  2  0  0  0  0
 16 17  1  0  0  0  0
 17 29  1  0  0  0  0
 17 12  2  0  0  0  0
 18 15  1  0  0  0  0
 19 18  1  0  0  0  0
 19 24  2  0  0  0  0
 20 19  1  0  0  0  0
 21 20  2  0  0  0  0
 21 22  1  0  0  0  0
 22 23  2  0  0  0  0
 23 24  1  0  0  0  0
 23 33  1  0  0  0  0
 24 25  1  0  0  0  0
 25 14  1  0  0  0  0
 25 26  2  0  0  0  0
 28 16  1  0  0  0  0
 30 20  1  0  0  0  0
 31 21  1  0  0  0  0
 32 22  1  0  0  0  0
M  END
$$$$
