
     RDKit          3D

 33 36  0  0  0  0  0  0  0  0999 V2000
    0.0603    0.0403    0.1715 O   0  0  0  0  0  0  0  0  0  0  0  0
    1.5315   -0.1024    0.0194 S   0  0  0  0  0  0  0  0  0  0  0  0
    2.3828   -0.0767    1.2025 O   0  0  0  0  0  0  0  0  0  0  0  0
    1.8824   -1.4699   -0.8647 N   0  0  0  0  0  0  0  0  0  0  0  0
    0.9306   -2.3105   -1.1293 C   0  0  0  0  0  0  0  0  0  0  0  0
   -0.4114   -2.3492   -0.8429 N   0  0  0  0  0  0  0  0  0  0  0  0
   -0.8981   -1.6107   -0.3320 H   0  0  0  0  0  0  0  0  0  0  0  0
   -0.9978   -3.4575   -1.3532 N   0  0  0  0  0  0  0  0  0  0  0  0
   -0.1132   -4.1392   -1.9449 N   0  0  0  0  0  0  0  0  0  0  0  0
    1.0679   -3.4790   -1.8322 N   0  0  0  0  0  0  0  0  0  0  0  0
    1.9223   -3.8526   -2.2288 H   0  0  0  0  0  0  0  0  0  0  0  0
    2.0735    1.1881   -1.0890 C   0  0  0  0  0  0  0  0  0  0  0  0
    3.3999    1.5906   -1.0608 C   0  0  0  0  0  0  0  0  0  0  0  0
    3.8372    2.5923   -1.9413 C   0  0  0  0  0  0  0  0  0  0  0  0
    2.9105    3.1737   -2.8271 C   0  0  0  0  0  0  0  0  0  0  0  0
    1.5664    2.7684   -2.8394 C   0  0  0  0  0  0  0  0  0  0  0  0
    1.1477    1.7740   -1.9685 C   0  0  0  0  0  0  0  0  0  0  0  0
    3.2594    4.1482   -3.7016 O   0  0  0  0  0  0  0  0  0  0  0  0
    4.5434    4.6070   -3.7501 C   0  0  0  0  0  0  0  0  0  0  0  0
    4.8159    5.6165   -4.6814 C   0  0  0  0  0  0  0  0  0  0  0  0
    6.1085    6.1206   -4.7729 C   0  0  0  0  0  0  0  0  0  0  0  0
    7.1328    5.6279   -3.9448 C   0  0  0  0  0  0  0  0  0  0  0  0
    6.8522    4.6271   -3.0252 C   0  0  0  0  0  0  0  0  0  0  0  0
    5.5527    4.1007   -2.9133 C   0  0  0  0  0  0  0  0  0  0  0  0
    5.2520    3.0341   -1.9338 C   0  0  0  0  0  0  0  0  0  0  0  0
    6.0900    2.5566   -1.1866 O   0  0  0  0  0  0  0  0  0  0  0  0
    4.1169    1.1527   -0.3649 H   0  0  0  0  0  0  0  0  0  0  0  0
    0.8768    3.2525   -3.5322 H   0  0  0  0  0  0  0  0  0  0  0  0
    0.1063    1.4503   -1.9438 H   0  0  0  0  0  0  0  0  0  0  0  0
    4.0062    5.9842   -5.3133 H   0  0  0  0  0  0  0  0  0  0  0  0
    6.3257    6.9086   -5.4977 H   0  0  0  0  0  0  0  0  0  0  0  0
    8.1433    6.0331   -4.0271 H   0  0  0  0  0  0  0  0  0  0  0  0
    7.6169    4.2164   -2.3634 H   0  0  0  0  0  0  0  0  0  0  0  0
  1  2  2  0
  2  3  2  0
  2  4  1  0
  2 12  1  0
  4  5  2  3
  5  6  1  0
  5 10  1  0
  6  7  1  0
  6  8  1  0
  8  9  2  0
  9 10  1  0
 10 11  1  0
 12 13  2  0
 12 17  1  0
 13 14  1  0
 13 27  1  0
 14 15  2  0
 14 25  1  0
 15 16  1  0
 15 18  1  0
 16 17  2  0
 16 28  1  0
 17 29  1  0
 18 19  1  0
 19 20  1  0
 19 24  2  0
 20 21  2  0
 20 30  1  0
 21 22  1  0
 21 31  1  0
 22 23  2  0
 22 32  1  0
 23 24  1  0
 23 33  1  0
 24 25  1  0
 25 26  2  0
M  END

