33

O         -0.11520       -0.10820       -0.09200
S          1.33930       -0.10170        0.00410
O          1.98550       -0.01410        1.33930
N          1.93830       -1.41090       -0.83360
C          2.68970       -2.26650       -0.21240
N          3.16010       -2.36210        1.07370
H          2.96580       -1.66660        1.79610
N          3.93290       -3.46100        1.24090
N          3.98280       -4.08330        0.14210
N          3.24330       -3.39280       -0.76320
H          3.13580       -3.71850       -1.71670
C          1.95900        1.25960       -0.97100
C          1.22420        1.69980       -2.06110
C          1.71390        2.75730       -2.84330
C          2.93920        3.35450       -2.49240
C          3.66990        2.91040       -1.37890
C          3.17840        1.86110       -0.61720
O          3.47130        4.38170       -3.19800
C          2.82240        4.88070       -4.28960
C          3.44170        5.94370       -4.95820
C          2.82340        6.49030       -6.07730
C          1.59310        5.98740       -6.53670
C          0.98770        4.93340       -5.86690
C          1.59300        4.36330       -4.73240
C          0.94890        3.24030       -4.01740
O         -0.11490        2.75120       -4.36040
H          0.26680        1.24910       -2.32660
H          4.60890        3.40790       -1.13270
H          3.71570        1.50560        0.26300
H          4.39560        6.31840       -4.58430
H          3.30260        7.32010       -6.60190
H          1.11860        6.42640       -7.41650
H          0.03330        4.51300       -6.18910
