rmsd20.gzmat
 OpenBabel08211713433D

 33 36  0  0  0  0  0  0  0  0999 V2000
    0.0000    0.0000    0.0000 O   0  0  0  0  0  0  0  0  0  0  0  0
    1.4339    0.0000    0.0000 S   0  0  0  0  0  0  0  0  0  0  0  0
    2.1780    0.0000    1.2577 O   0  0  0  0  0  0  0  0  0  0  0  0
    2.0083   -1.4322   -0.7880 N   0  0  0  0  0  0  0  0  0  0  0  0
    2.7109   -2.3326   -0.1937 C   0  0  0  0  0  0  0  0  0  0  0  0
    3.1702   -2.4626    1.1476 N   0  0  0  0  0  0  0  0  0  0  0  0
    3.1130   -1.7577    1.8881 H   0  0  0  0  0  0  0  0  0  0  0  0
    3.9172   -3.6029    1.2669 N   0  0  0  0  0  0  0  0  0  0  0  0
    3.9354   -4.2221    0.1520 N   0  0  0  0  0  0  0  0  0  0  0  0
    3.2554   -3.4901   -0.7973 N   0  0  0  0  0  0  0  0  0  0  0  0
    3.0330   -3.8833   -1.6932 H   0  0  0  0  0  0  0  0  0  0  0  0
    2.0458    1.2845   -1.0115 C   0  0  0  0  0  0  0  0  0  0  0  0
    1.5460    1.4705   -2.2958 C   0  0  0  0  0  0  0  0  0  0  0  0
    2.0579    2.4975   -3.0968 C   0  0  0  0  0  0  0  0  0  0  0  0
    3.0671    3.3140   -2.5808 C   0  0  0  0  0  0  0  0  0  0  0  0
    3.5747    3.1442   -1.2846 C   0  0  0  0  0  0  0  0  0  0  0  0
    3.0539    2.1215   -0.5081 C   0  0  0  0  0  0  0  0  0  0  0  0
    3.6429    4.3355   -3.2728 O   0  0  0  0  0  0  0  0  0  0  0  0
    3.2153    4.5659   -4.5573 C   0  0  0  0  0  0  0  0  0  0  0  0
    3.8731    5.6221   -5.1947 C   0  0  0  0  0  0  0  0  0  0  0  0
    3.5056    5.9208   -6.5009 C   0  0  0  0  0  0  0  0  0  0  0  0
    2.5080    5.1842   -7.1505 C   0  0  0  0  0  0  0  0  0  0  0  0
    1.8628    4.1431   -6.4940 C   0  0  0  0  0  0  0  0  0  0  0  0
    2.2145    3.8205   -5.1783 C   0  0  0  0  0  0  0  0  0  0  0  0
    1.5498    2.7248   -4.4577 C   0  0  0  0  0  0  0  0  0  0  0  0
    0.6583    2.0679   -4.9432 O   0  0  0  0  0  0  0  0  0  0  0  0
    0.7506    0.8309   -2.7143 H   0  0  0  0  0  0  0  0  0  0  0  0
    4.3553    3.8040   -0.9132 H   0  0  0  0  0  0  0  0  0  0  0  0
    3.4422    1.9764    0.5117 H   0  0  0  0  0  0  0  0  0  0  0  0
    4.6445    6.1845   -4.6739 H   0  0  0  0  0  0  0  0  0  0  0  0
    4.0007    6.7399   -7.0260 H   0  0  0  0  0  0  0  0  0  0  0  0
    2.2373    5.4314   -8.1756 H   0  0  0  0  0  0  0  0  0  0  0  0
    1.0767    3.5636   -6.9891 H   0  0  0  0  0  0  0  0  0  0  0  0
  1  2  2  0  0  0  0
  2  3  2  0  0  0  0
  4  5  2  0  0  0  0
  4  2  1  0  0  0  0
  5  6  1  0  0  0  0
  6  8  1  0  0  0  0
  6  7  1  0  0  0  0
  9  8  2  0  0  0  0
 10  5  1  0  0  0  0
 10  9  1  0  0  0  0
 11 10  1  0  0  0  0
 12 17  1  0  0  0  0
 12  2  1  0  0  0  0
 13 12  2  0  0  0  0
 14 15  2  0  0  0  0
 14 13  1  0  0  0  0
 15 16  1  0  0  0  0
 16 28  1  0  0  0  0
 16 17  2  0  0  0  0
 17 29  1  0  0  0  0
 18 15  1  0  0  0  0
 19 18  1  0  0  0  0
 20 30  1  0  0  0  0
 20 19  2  0  0  0  0
 21 20  1  0  0  0  0
 22 21  2  0  0  0  0
 22 23  1  0  0  0  0
 23 24  2  0  0  0  0
 24 19  1  0  0  0  0
 24 25  1  0  0  0  0
 25 14  1  0  0  0  0
 26 25  2  0  0  0  0
 27 13  1  0  0  0  0
 31 21  1  0  0  0  0
 32 22  1  0  0  0  0
 33 23  1  0  0  0  0
M  END
$$$$
