rmsd2.gzmat
 OpenBabel08211713433D

 33 36  0  0  0  0  0  0  0  0999 V2000
    0.0000    0.0000    0.0000 O   0  0  0  0  0  0  0  0  0  0  0  0
    1.4615    0.0000    0.0000 S   0  0  0  0  0  0  0  0  0  0  0  0
    2.1910    0.0000    1.2346 O   0  0  0  0  0  0  0  0  0  0  0  0
    1.8470   -1.4313   -0.8961 N   0  0  0  0  0  0  0  0  0  0  0  0
    0.9811   -2.3427   -1.1761 C   0  0  0  0  0  0  0  0  0  0  0  0
   -0.4053   -2.4759   -0.8821 N   0  0  0  0  0  0  0  0  0  0  0  0
   -1.0187   -1.7642   -0.4755 H   0  0  0  0  0  0  0  0  0  0  0  0
   -0.8802   -3.6357   -1.4317 N   0  0  0  0  0  0  0  0  0  0  0  0
    0.0740   -4.2614   -2.0034 N   0  0  0  0  0  0  0  0  0  0  0  0
    1.2331   -3.5257   -1.9063 N   0  0  0  0  0  0  0  0  0  0  0  0
    2.1090   -3.8824   -2.2380 H   0  0  0  0  0  0  0  0  0  0  0  0
    2.0198    1.2870   -1.0392 C   0  0  0  0  0  0  0  0  0  0  0  0
    3.3783    1.4600   -1.2810 C   0  0  0  0  0  0  0  0  0  0  0  0
    3.8072    2.4962   -2.1182 C   0  0  0  0  0  0  0  0  0  0  0  0
    2.8506    3.3382   -2.6902 C   0  0  0  0  0  0  0  0  0  0  0  0
    1.4776    3.1747   -2.4571 C   0  0  0  0  0  0  0  0  0  0  0  0
    1.0743    2.1407   -1.6274 C   0  0  0  0  0  0  0  0  0  0  0  0
    3.1532    4.3802   -3.5129 O   0  0  0  0  0  0  0  0  0  0  0  0
    4.4757    4.6100   -3.8021 C   0  0  0  0  0  0  0  0  0  0  0  0
    4.6906    5.6988   -4.6522 C   0  0  0  0  0  0  0  0  0  0  0  0
    6.0015    5.9997   -5.0009 C   0  0  0  0  0  0  0  0  0  0  0  0
    7.0666    5.2323   -4.5141 C   0  0  0  0  0  0  0  0  0  0  0  0
    6.8287    4.1564   -3.6676 C   0  0  0  0  0  0  0  0  0  0  0  0
    5.5180    3.8327   -3.2992 C   0  0  0  0  0  0  0  0  0  0  0  0
    5.2350    2.7027   -2.4012 C   0  0  0  0  0  0  0  0  0  0  0  0
    6.1041    2.0019   -1.9366 O   0  0  0  0  0  0  0  0  0  0  0  0
    4.1421    0.8034   -0.8321 H   0  0  0  0  0  0  0  0  0  0  0  0
    0.7616    3.8484   -2.9220 H   0  0  0  0  0  0  0  0  0  0  0  0
   -0.0004    2.0000   -1.4349 H   0  0  0  0  0  0  0  0  0  0  0  0
    3.8502    6.2821   -5.0218 H   0  0  0  0  0  0  0  0  0  0  0  0
    6.2025    6.8447   -5.6621 H   0  0  0  0  0  0  0  0  0  0  0  0
    8.0865    5.4827   -4.8013 H   0  0  0  0  0  0  0  0  0  0  0  0
    7.6535    3.5503   -3.2782 H   0  0  0  0  0  0  0  0  0  0  0  0
  1  2  2  0  0  0  0
  2  3  2  0  0  0  0
  4  2  1  0  0  0  0
  5  4  2  0  0  0  0
  5  6  1  0  0  0  0
  6  7  1  0  0  0  0
  8  6  1  0  0  0  0
  9 10  1  0  0  0  0
  9  8  2  0  0  0  0
 10  5  1  0  0  0  0
 11 10  1  0  0  0  0
 12  2  1  0  0  0  0
 13 12  1  0  0  0  0
 13 27  1  0  0  0  0
 14 13  2  0  0  0  0
 15 16  2  0  0  0  0
 15 14  1  0  0  0  0
 16 17  1  0  0  0  0
 17 29  1  0  0  0  0
 17 12  2  0  0  0  0
 18 15  1  0  0  0  0
 19 18  1  0  0  0  0
 19 24  2  0  0  0  0
 20 19  1  0  0  0  0
 21 20  2  0  0  0  0
 21 22  1  0  0  0  0
 22 23  2  0  0  0  0
 23 24  1  0  0  0  0
 23 33  1  0  0  0  0
 24 25  1  0  0  0  0
 25 14  1  0  0  0  0
 25 26  2  0  0  0  0
 28 16  1  0  0  0  0
 30 20  1  0  0  0  0
 31 21  1  0  0  0  0
 32 22  1  0  0  0  0
M  END
$$$$
