33
rmsd75.gzmat
O          0.00000        0.00000        0.00000
S          1.43490        0.00000        0.00000
O          2.18220        0.00000        1.25560
N          2.00980       -1.43790       -0.77710
C          2.65560       -2.36270       -0.15500
N          3.09970       -2.48470        1.19180
H          3.05910       -1.76730        1.92120
N          3.77010       -3.66650        1.34850
N          3.76660       -4.31050        0.24640
N          3.10500       -3.57980       -0.71350
H          3.00300       -3.91600       -1.65130
C          2.02480        1.29500       -1.00990
C          1.31420        1.67450       -2.14340
C          1.77130        2.74250       -2.92310
C          2.94350        3.40080       -2.54370
C          3.68190        3.01570       -1.41520
C          3.20580        1.96200       -0.65110
O          3.46710        4.46210       -3.21730
C          2.78180        4.93330       -4.31080
C          3.36600        6.05320       -4.91010
C          2.73550        6.59580       -6.02310
C          1.55420        6.03460       -6.52240
C          0.99250        4.92030       -5.91120
C          1.60750        4.35410       -4.78880
C          1.03550        3.17660       -4.11980
O          0.04290        2.61360       -4.51900
H          0.38560        1.16310       -2.45010
H          4.59720        3.54250       -1.15580
H          3.76240        1.66330        0.24910
H          4.28350        6.47640       -4.50810
H          3.16660        7.46980       -6.51510
H          1.07590        6.47510       -7.39560
H          0.06950        4.47120       -6.29290
