42
rmsd2.gzmat
Br         0.00000        0.00000        0.00000
C          1.89840        0.00000        0.00000
C          2.56870        0.00000        1.21770
C          3.96290       -0.00320        1.21580
C          4.65060       -0.00440        0.00080
C          6.12340       -0.00400       -0.03980
O          6.83550        0.31910       -0.95430
O          6.61300       -0.46960        1.14500
C          8.02060       -0.46430        1.31610
H          8.50460        0.28980        0.65910
C          8.59420       -1.89560        1.14920
C          8.70970       -2.43200        2.61050
N          8.61480       -1.24720        3.48910
C          8.19200       -0.11110        2.80590
O          8.00790        0.97360        3.29190
C          8.85290       -1.35130        4.87300
C          9.00300       -0.19680        5.66020
C          9.24710       -0.31880        7.02280
C          9.35100       -1.57540        7.61820
C          9.20340       -2.71870        6.83790
C          8.95420       -2.61860        5.47240
C          7.67870       -2.78540        0.31900
C          9.97840       -1.81040        0.50590
C          3.96220        0.00510       -1.21490
C          2.56900        0.00550       -1.21890
H          2.02970        0.00550        2.16610
H          4.51260        0.00120        2.16290
H          7.88860       -3.14460        2.84100
H          9.67260       -2.95740        2.77470
H          8.92800        0.79730        5.21510
H          9.35960        0.58000        7.62960
H          9.54560       -1.66060        8.68370
H          9.28020       -3.70340        7.29780
H          8.83280       -3.52590        4.89020
H          6.68250       -2.88640        0.77020
H          8.09290       -3.79280        0.20160
H          7.53420       -2.37330       -0.68940
H         10.66390       -1.18220        1.08850
H          9.92320       -1.38780       -0.50650
H         10.44150       -2.79970        0.41220
H          4.51820        0.01890       -2.15680
H          2.02950        0.01420       -2.16640
