rmsd188.gzmat
 OpenBabel08211713413D

 42 44  0  0  1  0  0  0  0  0999 V2000
    0.0000    0.0000    0.0000 Br  0  0  0  0  0  0  0  0  0  0  0  0
    1.8982    0.0000    0.0000 C   0  0  0  0  0  0  0  0  0  0  0  0
    2.5666    0.0000    1.2198 C   0  0  0  0  0  0  0  0  0  0  0  0
    3.9591   -0.0011    1.2171 C   0  0  0  0  0  0  0  0  0  0  0  0
    4.6516    0.0004    0.0025 C   0  0  0  0  0  0  0  0  0  0  0  0
    6.1235   -0.0104    0.0598 C   0  0  0  0  0  0  0  0  0  0  0  0
    6.8147   -0.1892    1.0290 O   0  0  0  0  0  0  0  0  0  0  0  0
    6.6461    0.2423   -1.1746 O   0  0  0  0  0  0  0  0  0  0  0  0
    8.0576    0.1859   -1.3005 C   0  0  2  0  0  0  0  0  0  0  0  0
    8.5155   -0.4029   -0.4750 H   0  0  0  0  0  0  0  0  0  0  0  0
    8.6474    1.6130   -1.4418 C   0  0  0  0  0  0  0  0  0  0  0  0
    8.8671    1.7860   -2.9776 C   0  0  0  0  0  0  0  0  0  0  0  0
    8.7681    0.4330   -3.5654 N   0  0  0  0  0  0  0  0  0  0  0  0
    8.2768   -0.5032   -2.6600 C   0  0  0  0  0  0  0  0  0  0  0  0
    8.0767   -1.6665   -2.8896 O   0  0  0  0  0  0  0  0  0  0  0  0
    9.1207    0.1994   -4.9083 C   0  0  0  0  0  0  0  0  0  0  0  0
    9.1771   -1.1092   -5.4181 C   0  0  0  0  0  0  0  0  0  0  0  0
    9.5449   -1.3197   -6.7416 C   0  0  0  0  0  0  0  0  0  0  0  0
    9.8663   -0.2462   -7.5710 C   0  0  0  0  0  0  0  0  0  0  0  0
    9.8051    1.0506   -7.0681 C   0  0  0  0  0  0  0  0  0  0  0  0
    9.4307    1.2836   -5.7481 C   0  0  0  0  0  0  0  0  0  0  0  0
    7.7015    2.6815   -0.9091 C   0  0  0  0  0  0  0  0  0  0  0  0
    9.9877    1.6755   -0.7080 C   0  0  0  0  0  0  0  0  0  0  0  0
    3.9653   -0.0035   -1.2130 C   0  0  0  0  0  0  0  0  0  0  0  0
    2.5707   -0.0034   -1.2168 C   0  0  0  0  0  0  0  0  0  0  0  0
    2.0258   -0.0047    2.1667 H   0  0  0  0  0  0  0  0  0  0  0  0
    4.5141   -0.0085    2.1602 H   0  0  0  0  0  0  0  0  0  0  0  0
    8.0930    2.4480   -3.4219 H   0  0  0  0  0  0  0  0  0  0  0  0
    9.8602    2.2310   -3.1937 H   0  0  0  0  0  0  0  0  0  0  0  0
    8.9352   -1.9681   -4.7886 H   0  0  0  0  0  0  0  0  0  0  0  0
    9.5836   -2.3375   -7.1315 H   0  0  0  0  0  0  0  0  0  0  0  0
   10.1629   -0.4212   -8.6012 H   0  0  0  0  0  0  0  0  0  0  0  0
   10.0514    1.8935   -7.7124 H   0  0  0  0  0  0  0  0  0  0  0  0
    9.3779    2.3055   -5.3883 H   0  0  0  0  0  0  0  0  0  0  0  0
    6.7244    2.6549   -1.4099 H   0  0  0  0  0  0  0  0  0  0  0  0
    8.1129    3.6885   -1.0422 H   0  0  0  0  0  0  0  0  0  0  0  0
    7.5141    2.5450    0.1649 H   0  0  0  0  0  0  0  0  0  0  0  0
   10.7018    0.9381   -1.0955 H   0  0  0  0  0  0  0  0  0  0  0  0
    9.8662    1.4816    0.3665 H   0  0  0  0  0  0  0  0  0  0  0  0
   10.4538    2.6632   -0.8014 H   0  0  0  0  0  0  0  0  0  0  0  0
    4.5152   -0.0127   -2.1597 H   0  0  0  0  0  0  0  0  0  0  0  0
    2.0330   -0.0098   -2.1658 H   0  0  0  0  0  0  0  0  0  0  0  0
  1  2  1  0  0  0  0
  2  3  2  0  0  0  0
  3 26  1  0  0  0  0
  4  3  1  0  0  0  0
  4 27  1  0  0  0  0
  5  6  1  0  0  0  0
  5  4  2  0  0  0  0
  6  7  2  0  0  0  0
  8  6  1  0  0  0  0
  9  8  1  0  0  0  0
  9 10  1  1  0  0  0
 11  9  1  0  0  0  0
 11 22  1  0  0  0  0
 11 23  1  0  0  0  0
 12 11  1  0  0  0  0
 13 12  1  0  0  0  0
 13 14  1  0  0  0  0
 14  9  1  0  0  0  0
 15 14  2  0  0  0  0
 16 13  1  0  0  0  0
 17 16  1  0  0  0  0
 17 30  1  0  0  0  0
 18 17  2  0  0  0  0
 19 20  2  0  0  0  0
 19 18  1  0  0  0  0
 20 21  1  0  0  0  0
 21 34  1  0  0  0  0
 21 16  2  0  0  0  0
 22 37  1  0  0  0  0
 23 39  1  0  0  0  0
 24  5  1  0  0  0  0
 25 24  2  0  0  0  0
 25  2  1  0  0  0  0
 28 12  1  0  0  0  0
 29 12  1  0  0  0  0
 31 18  1  0  0  0  0
 32 19  1  0  0  0  0
 33 20  1  0  0  0  0
 35 22  1  0  0  0  0
 36 22  1  0  0  0  0
 38 23  1  0  0  0  0
 40 23  1  0  0  0  0
 41 24  1  0  0  0  0
 42 25  1  0  0  0  0
M  END
$$$$
