rmsd34.gzmat
 OpenBabel08211713413D

 42 44  0  0  1  0  0  0  0  0999 V2000
    0.0000    0.0000    0.0000 Br  0  0  0  0  0  0  0  0  0  0  0  0
    1.8982    0.0000    0.0000 C   0  0  0  0  0  0  0  0  0  0  0  0
    2.5683    0.0000    1.2189 C   0  0  0  0  0  0  0  0  0  0  0  0
    3.9612    0.0049    1.2151 C   0  0  0  0  0  0  0  0  0  0  0  0
    4.6498    0.0156   -0.0005 C   0  0  0  0  0  0  0  0  0  0  0  0
    6.1232    0.0228    0.0389 C   0  0  0  0  0  0  0  0  0  0  0  0
    6.8401   -0.3281    0.9388 O   0  0  0  0  0  0  0  0  0  0  0  0
    6.6046    0.5331   -1.1302 O   0  0  0  0  0  0  0  0  0  0  0  0
    8.0124    0.5706   -1.3001 C   0  0  2  0  0  0  0  0  0  0  0  0
    8.5136   -0.2202   -0.7054 H   0  0  0  0  0  0  0  0  0  0  0  0
    8.5512    2.0001   -1.0316 C   0  0  0  0  0  0  0  0  0  0  0  0
    8.4801    2.6857   -2.4315 C   0  0  0  0  0  0  0  0  0  0  0  0
    8.4557    1.5803   -3.4132 N   0  0  0  0  0  0  0  0  0  0  0  0
    8.1764    0.3528   -2.8191 C   0  0  0  0  0  0  0  0  0  0  0  0
    8.0962   -0.7023   -3.3895 O   0  0  0  0  0  0  0  0  0  0  0  0
    8.5837    1.8324   -4.7922 C   0  0  0  0  0  0  0  0  0  0  0  0
    8.4603    3.1457   -5.2778 C   0  0  0  0  0  0  0  0  0  0  0  0
    8.5927    3.3916   -6.6410 C   0  0  0  0  0  0  0  0  0  0  0  0
    8.8445    2.3490   -7.5290 C   0  0  0  0  0  0  0  0  0  0  0  0
    8.9681    1.0472   -7.0449 C   0  0  0  0  0  0  0  0  0  0  0  0
    8.8438    0.7802   -5.6867 C   0  0  0  0  0  0  0  0  0  0  0  0
    7.7097    2.7567   -0.0146 C   0  0  0  0  0  0  0  0  0  0  0  0
   10.0023    1.9046   -0.5604 C   0  0  0  0  0  0  0  0  0  0  0  0
    3.9627    0.0096   -1.2156 C   0  0  0  0  0  0  0  0  0  0  0  0
    2.5685   -0.0002   -1.2177 C   0  0  0  0  0  0  0  0  0  0  0  0
    2.0284   -0.0071    2.1660 H   0  0  0  0  0  0  0  0  0  0  0  0
    4.5167   -0.0050    2.1572 H   0  0  0  0  0  0  0  0  0  0  0  0
    7.5604    3.3021   -2.5259 H   0  0  0  0  0  0  0  0  0  0  0  0
    9.3544    3.3428   -2.6101 H   0  0  0  0  0  0  0  0  0  0  0  0
    8.2518    3.9736   -4.6082 H   0  0  0  0  0  0  0  0  0  0  0  0
    8.4936    4.4105   -7.0139 H   0  0  0  0  0  0  0  0  0  0  0  0
    8.9431    2.5475   -8.5925 H   0  0  0  0  0  0  0  0  0  0  0  0
    9.1643    0.2275   -7.7363 H   0  0  0  0  0  0  0  0  0  0  0  0
    8.9457   -0.2456   -5.3268 H   0  0  0  0  0  0  0  0  0  0  0  0
    6.6580    2.8297   -0.3212 H   0  0  0  0  0  0  0  0  0  0  0  0
    8.0796    3.7775    0.1357 H   0  0  0  0  0  0  0  0  0  0  0  0
    7.7256    2.2550    0.9637 H   0  0  0  0  0  0  0  0  0  0  0  0
   10.6317    1.3638   -1.2786 H   0  0  0  0  0  0  0  0  0  0  0  0
   10.0781    1.3832    0.4028 H   0  0  0  0  0  0  0  0  0  0  0  0
   10.4468    2.8969   -0.4212 H   0  0  0  0  0  0  0  0  0  0  0  0
    4.5129    0.0092   -2.1623 H   0  0  0  0  0  0  0  0  0  0  0  0
    2.0292   -0.0093   -2.1659 H   0  0  0  0  0  0  0  0  0  0  0  0
  1  2  1  0  0  0  0
  2  3  2  0  0  0  0
  3 26  1  0  0  0  0
  4  3  1  0  0  0  0
  4 27  1  0  0  0  0
  5  6  1  0  0  0  0
  5  4  2  0  0  0  0
  6  7  2  0  0  0  0
  8  6  1  0  0  0  0
  9  8  1  0  0  0  0
  9 11  1  0  0  0  0
  9 10  1  1  0  0  0
 11 23  1  0  0  0  0
 11 22  1  0  0  0  0
 12 11  1  0  0  0  0
 13 14  1  0  0  0  0
 13 12  1  0  0  0  0
 14  9  1  0  0  0  0
 15 14  2  0  0  0  0
 16 13  1  0  0  0  0
 17 16  1  0  0  0  0
 17 30  1  0  0  0  0
 18 17  2  0  0  0  0
 19 20  2  0  0  0  0
 19 18  1  0  0  0  0
 20 21  1  0  0  0  0
 21 34  1  0  0  0  0
 21 16  2  0  0  0  0
 22 36  1  0  0  0  0
 22 37  1  0  0  0  0
 23 40  1  0  0  0  0
 23 39  1  0  0  0  0
 24  5  1  0  0  0  0
 25 24  2  0  0  0  0
 25  2  1  0  0  0  0
 28 12  1  0  0  0  0
 29 12  1  0  0  0  0
 31 18  1  0  0  0  0
 32 19  1  0  0  0  0
 33 20  1  0  0  0  0
 35 22  1  0  0  0  0
 38 23  1  0  0  0  0
 41 24  1  0  0  0  0
 42 25  1  0  0  0  0
M  END
$$$$
