rmsd206.gzmat
 OpenBabel08211713413D

 42 44  0  0  1  0  0  0  0  0999 V2000
    0.0000    0.0000    0.0000 Br  0  0  0  0  0  0  0  0  0  0  0  0
    1.8982    0.0000    0.0000 C   0  0  0  0  0  0  0  0  0  0  0  0
    2.5691    0.0000    1.2183 C   0  0  0  0  0  0  0  0  0  0  0  0
    3.9617    0.0038    1.2129 C   0  0  0  0  0  0  0  0  0  0  0  0
    4.6506    0.0131   -0.0028 C   0  0  0  0  0  0  0  0  0  0  0  0
    6.1232    0.0284    0.0461 C   0  0  0  0  0  0  0  0  0  0  0  0
    6.8284   -0.1991    0.9942 O   0  0  0  0  0  0  0  0  0  0  0  0
    6.6216    0.3835   -1.1728 O   0  0  0  0  0  0  0  0  0  0  0  0
    8.0313    0.4182   -1.3177 C   0  0  2  0  0  0  0  0  0  0  0  0
    8.5430   -0.1314   -0.4977 H   0  0  0  0  0  0  0  0  0  0  0  0
    8.5056    1.8870   -1.4747 C   0  0  0  0  0  0  0  0  0  0  0  0
    8.6366    2.0800   -3.0181 C   0  0  0  0  0  0  0  0  0  0  0  0
    8.6532    0.7216   -3.6003 N   0  0  0  0  0  0  0  0  0  0  0  0
    8.2746   -0.2536   -2.6820 C   0  0  0  0  0  0  0  0  0  0  0  0
    8.1719   -1.4297   -2.9096 O   0  0  0  0  0  0  0  0  0  0  0  0
    8.9566    0.5211   -4.9604 C   0  0  0  0  0  0  0  0  0  0  0  0
    9.1983   -0.7713   -5.4561 C   0  0  0  0  0  0  0  0  0  0  0  0
    9.5182   -0.9463   -6.7970 C   0  0  0  0  0  0  0  0  0  0  0  0
    9.6054    0.1476   -7.6571 C   0  0  0  0  0  0  0  0  0  0  0  0
    9.3602    1.4273   -7.1673 C   0  0  0  0  0  0  0  0  0  0  0  0
    9.0338    1.6239   -5.8289 C   0  0  0  0  0  0  0  0  0  0  0  0
    7.5053    2.8784   -0.8945 C   0  0  0  0  0  0  0  0  0  0  0  0
    9.8689    2.0493   -0.8026 C   0  0  0  0  0  0  0  0  0  0  0  0
    3.9621    0.0027   -1.2169 C   0  0  0  0  0  0  0  0  0  0  0  0
    2.5680   -0.0036   -1.2179 C   0  0  0  0  0  0  0  0  0  0  0  0
    2.0308   -0.0068    2.1663 H   0  0  0  0  0  0  0  0  0  0  0  0
    4.5189   -0.0063    2.1547 H   0  0  0  0  0  0  0  0  0  0  0  0
    7.7769    2.6554   -3.4236 H   0  0  0  0  0  0  0  0  0  0  0  0
    9.5656    2.6257   -3.2804 H   0  0  0  0  0  0  0  0  0  0  0  0
    9.1378   -1.6426   -4.8008 H   0  0  0  0  0  0  0  0  0  0  0  0
    9.7041   -1.9514   -7.1764 H   0  0  0  0  0  0  0  0  0  0  0  0
    9.8631    0.0008   -8.7019 H   0  0  0  0  0  0  0  0  0  0  0  0
    9.4223    2.2860   -7.8346 H   0  0  0  0  0  0  0  0  0  0  0  0
    8.8358    2.6304   -5.4767 H   0  0  0  0  0  0  0  0  0  0  0  0
    6.5132    2.7778   -1.3555 H   0  0  0  0  0  0  0  0  0  0  0  0
    7.8330    3.9141   -1.0392 H   0  0  0  0  0  0  0  0  0  0  0  0
    7.3730    2.7257    0.1848 H   0  0  0  0  0  0  0  0  0  0  0  0
   10.6201    1.3733   -1.2298 H   0  0  0  0  0  0  0  0  0  0  0  0
    9.8130    1.8400    0.2738 H   0  0  0  0  0  0  0  0  0  0  0  0
   10.2520    3.0711   -0.9073 H   0  0  0  0  0  0  0  0  0  0  0  0
    4.5106   -0.0060   -2.1640 H   0  0  0  0  0  0  0  0  0  0  0  0
    2.0278   -0.0132   -2.1652 H   0  0  0  0  0  0  0  0  0  0  0  0
  1  2  1  0  0  0  0
  2  3  2  0  0  0  0
  3 26  1  0  0  0  0
  4  3  1  0  0  0  0
  4 27  1  0  0  0  0
  5  6  1  0  0  0  0
  5  4  2  0  0  0  0
  6  7  2  0  0  0  0
  8  6  1  0  0  0  0
  9  8  1  0  0  0  0
  9 10  1  1  0  0  0
 11  9  1  0  0  0  0
 11 22  1  0  0  0  0
 11 23  1  0  0  0  0
 12 11  1  0  0  0  0
 13 12  1  0  0  0  0
 13 14  1  0  0  0  0
 14  9  1  0  0  0  0
 15 14  2  0  0  0  0
 16 13  1  0  0  0  0
 17 16  1  0  0  0  0
 17 30  1  0  0  0  0
 18 17  2  0  0  0  0
 19 20  2  0  0  0  0
 19 18  1  0  0  0  0
 20 21  1  0  0  0  0
 21 34  1  0  0  0  0
 21 16  2  0  0  0  0
 22 37  1  0  0  0  0
 23 39  1  0  0  0  0
 24  5  1  0  0  0  0
 25 24  2  0  0  0  0
 25  2  1  0  0  0  0
 28 12  1  0  0  0  0
 29 12  1  0  0  0  0
 31 18  1  0  0  0  0
 32 19  1  0  0  0  0
 33 20  1  0  0  0  0
 35 22  1  0  0  0  0
 36 22  1  0  0  0  0
 38 23  1  0  0  0  0
 40 23  1  0  0  0  0
 41 24  1  0  0  0  0
 42 25  1  0  0  0  0
M  END
$$$$
