42

Br        -0.09940       -0.15650        0.11210
C          1.79970       -0.07050        0.06420
C          2.53150       -0.41110        1.20700
C          3.92190       -0.34520        1.16470
C          4.58040        0.05870       -0.00610
C          6.06730        0.11090        0.01070
O          6.75490       -0.20680        0.95220
O          6.56960        0.57250       -1.15660
C          7.99580        0.64640       -1.28000
H          8.45090       -0.10230       -0.62110
C          8.53400        2.07060       -1.05700
C          8.34210        2.69610       -2.45610
N          8.46120        1.57420       -3.38690
C          8.28920        0.35510       -2.75600
O          8.32210       -0.75020       -3.25170
C          8.62570        1.77940       -4.77480
C          8.50260        3.07920       -5.30090
C          8.67090        3.30830       -6.66740
C          8.96040        2.25370       -7.53420
C          9.07710        0.96190       -7.01370
C          8.91360        0.71440       -5.65120
C          7.80060        2.85460        0.02980
C         10.03220        1.96500       -0.73060
C          3.83120        0.39440       -1.14390
C          2.43900        0.33100       -1.11300
H          2.01510       -0.72390        2.11530
H          4.52110       -0.60660        2.03850
H          7.35270        3.17670       -2.55150
H          9.10940        3.45520       -2.66880
H          8.26530        3.92090       -4.65140
H          8.56990        4.32570       -7.05310
H          9.09170        2.43540       -8.60310
H          9.30140        0.12380       -7.67820
H          8.99520       -0.29360       -5.25470
H          6.72510        2.92960       -0.18630
H          8.20500        3.87700        0.10040
H          7.92000        2.36800        1.00850
H         10.58140        1.41620       -1.51190
H         10.18350        1.43950        0.22440
H         10.47950        2.96740       -0.64510
H          4.34560        0.70110       -2.05460
H          1.85120        0.58850       -1.99480
