
     RDKit          3D

 42 44  0  0  0  0  0  0  0  0999 V2000
   -0.0994   -0.1565    0.1121 Br  0  0  0  0  0  0  0  0  0  0  0  0
    1.7997   -0.0705    0.0642 C   0  0  0  0  0  0  0  0  0  0  0  0
    2.5315   -0.4111    1.2070 C   0  0  0  0  0  0  0  0  0  0  0  0
    3.9219   -0.3452    1.1647 C   0  0  0  0  0  0  0  0  0  0  0  0
    4.5804    0.0587   -0.0061 C   0  0  0  0  0  0  0  0  0  0  0  0
    6.0673    0.1109    0.0107 C   0  0  0  0  0  0  0  0  0  0  0  0
    6.7549   -0.2068    0.9522 O   0  0  0  0  0  0  0  0  0  0  0  0
    6.5696    0.5725   -1.1566 O   0  0  0  0  0  0  0  0  0  0  0  0
    7.9958    0.6464   -1.2800 C   0  0  2  0  0  0  0  0  0  0  0  0
    8.4509   -0.1023   -0.6211 H   0  0  0  0  0  0  0  0  0  0  0  0
    8.5340    2.0706   -1.0570 C   0  0  0  0  0  0  0  0  0  0  0  0
    8.3421    2.6961   -2.4561 C   0  0  0  0  0  0  0  0  0  0  0  0
    8.4612    1.5742   -3.3869 N   0  0  0  0  0  0  0  0  0  0  0  0
    8.2892    0.3551   -2.7560 C   0  0  0  0  0  0  0  0  0  0  0  0
    8.3221   -0.7502   -3.2517 O   0  0  0  0  0  0  0  0  0  0  0  0
    8.6257    1.7794   -4.7748 C   0  0  0  0  0  0  0  0  0  0  0  0
    8.5026    3.0792   -5.3009 C   0  0  0  0  0  0  0  0  0  0  0  0
    8.6709    3.3083   -6.6674 C   0  0  0  0  0  0  0  0  0  0  0  0
    8.9604    2.2537   -7.5342 C   0  0  0  0  0  0  0  0  0  0  0  0
    9.0771    0.9619   -7.0137 C   0  0  0  0  0  0  0  0  0  0  0  0
    8.9136    0.7144   -5.6512 C   0  0  0  0  0  0  0  0  0  0  0  0
    7.8006    2.8546    0.0298 C   0  0  0  0  0  0  0  0  0  0  0  0
   10.0322    1.9650   -0.7306 C   0  0  0  0  0  0  0  0  0  0  0  0
    3.8312    0.3944   -1.1439 C   0  0  0  0  0  0  0  0  0  0  0  0
    2.4390    0.3310   -1.1130 C   0  0  0  0  0  0  0  0  0  0  0  0
    2.0151   -0.7239    2.1153 H   0  0  0  0  0  0  0  0  0  0  0  0
    4.5211   -0.6066    2.0385 H   0  0  0  0  0  0  0  0  0  0  0  0
    7.3527    3.1767   -2.5515 H   0  0  0  0  0  0  0  0  0  0  0  0
    9.1094    3.4552   -2.6688 H   0  0  0  0  0  0  0  0  0  0  0  0
    8.2653    3.9209   -4.6514 H   0  0  0  0  0  0  0  0  0  0  0  0
    8.5699    4.3257   -7.0531 H   0  0  0  0  0  0  0  0  0  0  0  0
    9.0917    2.4354   -8.6031 H   0  0  0  0  0  0  0  0  0  0  0  0
    9.3014    0.1238   -7.6782 H   0  0  0  0  0  0  0  0  0  0  0  0
    8.9952   -0.2936   -5.2547 H   0  0  0  0  0  0  0  0  0  0  0  0
    6.7251    2.9296   -0.1863 H   0  0  0  0  0  0  0  0  0  0  0  0
    8.2050    3.8770    0.1004 H   0  0  0  0  0  0  0  0  0  0  0  0
    7.9200    2.3680    1.0085 H   0  0  0  0  0  0  0  0  0  0  0  0
   10.5814    1.4162   -1.5119 H   0  0  0  0  0  0  0  0  0  0  0  0
   10.1835    1.4395    0.2244 H   0  0  0  0  0  0  0  0  0  0  0  0
   10.4795    2.9674   -0.6451 H   0  0  0  0  0  0  0  0  0  0  0  0
    4.3456    0.7011   -2.0546 H   0  0  0  0  0  0  0  0  0  0  0  0
    1.8512    0.5885   -1.9948 H   0  0  0  0  0  0  0  0  0  0  0  0
  1  2  1  0
  2  3  2  0
  2 25  1  0
  3  4  1  0
  3 26  1  0
  4  5  2  0
  4 27  1  0
  5  6  1  0
  5 24  1  0
  6  7  2  0
  6  8  1  0
  8  9  1  0
  9 10  1  1
  9 11  1  0
  9 14  1  0
 11 12  1  0
 11 22  1  0
 11 23  1  0
 12 13  1  0
 12 28  1  0
 12 29  1  0
 13 14  1  0
 13 16  1  0
 14 15  2  0
 16 17  2  0
 16 21  1  0
 17 18  1  0
 17 30  1  0
 18 19  2  0
 18 31  1  0
 19 20  1  0
 19 32  1  0
 20 21  2  0
 20 33  1  0
 21 34  1  0
 22 35  1  0
 22 36  1  0
 22 37  1  0
 23 38  1  0
 23 39  1  0
 23 40  1  0
 24 25  2  0
 24 41  1  0
 25 42  1  0
M  END

