42
rmsd217.gzmat
Br         0.00000        0.00000        0.00000
C          1.89820        0.00000        0.00000
C          2.56910        0.00000        1.21790
C          3.96310        0.00190        1.21570
C          4.65150       -0.00170        0.00100
C          6.12390       -0.00290       -0.05120
O          6.82080        0.10960       -1.02650
O          6.63730       -0.18040        1.20000
C          8.04950       -0.16530        1.32960
H          8.52980        0.36420        0.47790
C          8.58340       -1.60480        1.54810
C          8.75980       -1.71550        3.09460
N          8.71670       -0.33240        3.61480
C          8.28390        0.58080        2.65690
O          8.13860        1.76250        2.82580
C          9.03060       -0.05710        4.95920
C          9.12780        1.26830        5.41720
C          9.44940        1.51800        6.74580
C          9.68170        0.46750        7.63270
C          9.58530       -0.84540        7.17950
C          9.26000       -1.11720        5.85400
C          7.60870       -2.65910        1.04010
C          9.93650       -1.75150        0.85200
C          3.96090        0.00280       -1.21430
C          2.56800        0.00230       -1.21890
H          2.02990        0.00130        2.16610
H          4.51140        0.01220        2.16340
H          7.94380       -2.31670        3.55010
H          9.72400       -2.19810        3.35600
H          8.95280        2.10900        4.74270
H          9.52080        2.54860        7.09530
H          9.93430        0.67240        8.66920
H          9.76410       -1.67130        7.86700
H          9.18250       -2.15060        5.53380
H          6.63120       -2.58880        1.53590
H          7.99020       -3.67350        1.20160
H          7.42990       -2.54620       -0.03810
H         10.66870       -1.02240        1.22110
H          9.84670       -1.60770       -0.23300
H         10.36340       -2.74960        1.00560
H          4.51690        0.01060       -2.15710
H          2.02860        0.00590       -2.16650
