rmsd123.gzmat
 OpenBabel08211713413D

 42 44  0  0  1  0  0  0  0  0999 V2000
    0.0000    0.0000    0.0000 Br  0  0  0  0  0  0  0  0  0  0  0  0
    1.8983    0.0000    0.0000 C   0  0  0  0  0  0  0  0  0  0  0  0
    2.5682    0.0000    1.2191 C   0  0  0  0  0  0  0  0  0  0  0  0
    3.9611    0.0068    1.2155 C   0  0  0  0  0  0  0  0  0  0  0  0
    4.6507    0.0215    0.0002 C   0  0  0  0  0  0  0  0  0  0  0  0
    6.1236    0.0403    0.0427 C   0  0  0  0  0  0  0  0  0  0  0  0
    6.8379   -0.2214    0.9749 O   0  0  0  0  0  0  0  0  0  0  0  0
    6.6095    0.4440   -1.1659 O   0  0  0  0  0  0  0  0  0  0  0  0
    8.0174    0.4673   -1.3329 C   0  0  2  0  0  0  0  0  0  0  0  0
    8.5241   -0.2146   -0.6180 H   0  0  0  0  0  0  0  0  0  0  0  0
    8.5371    1.9281   -1.2835 C   0  0  0  0  0  0  0  0  0  0  0  0
    8.5508    2.3698   -2.7805 C   0  0  0  0  0  0  0  0  0  0  0  0
    8.5299    1.1191   -3.5680 N   0  0  0  0  0  0  0  0  0  0  0  0
    8.2036    0.0097   -2.7936 C   0  0  0  0  0  0  0  0  0  0  0  0
    8.1011   -1.1195   -3.1932 O   0  0  0  0  0  0  0  0  0  0  0  0
    8.7416    1.1347   -4.9596 C   0  0  0  0  0  0  0  0  0  0  0  0
    8.6943    2.3521   -5.6606 C   0  0  0  0  0  0  0  0  0  0  0  0
    8.9144    2.3651   -7.0345 C   0  0  0  0  0  0  0  0  0  0  0  0
    9.1771    1.1836   -7.7226 C   0  0  0  0  0  0  0  0  0  0  0  0
    9.2221   -0.0232   -7.0256 C   0  0  0  0  0  0  0  0  0  0  0  0
    9.0106   -0.0578   -5.6525 C   0  0  0  0  0  0  0  0  0  0  0  0
    7.6310    2.8329   -0.4601 C   0  0  0  0  0  0  0  0  0  0  0  0
    9.9569    1.9372   -0.7168 C   0  0  0  0  0  0  0  0  0  0  0  0
    3.9630    0.0088   -1.2147 C   0  0  0  0  0  0  0  0  0  0  0  0
    2.5691   -0.0021   -1.2176 C   0  0  0  0  0  0  0  0  0  0  0  0
    2.0286   -0.0096    2.1666 H   0  0  0  0  0  0  0  0  0  0  0  0
    4.5169   -0.0047    2.1581 H   0  0  0  0  0  0  0  0  0  0  0  0
    7.6598    2.9883   -3.0216 H   0  0  0  0  0  0  0  0  0  0  0  0
    9.4551    2.9637   -3.0223 H   0  0  0  0  0  0  0  0  0  0  0  0
    8.4778    3.2851   -5.1508 H   0  0  0  0  0  0  0  0  0  0  0  0
    8.8770    3.3107   -7.5738 H   0  0  0  0  0  0  0  0  0  0  0  0
    9.3457    1.2011   -8.7957 H   0  0  0  0  0  0  0  0  0  0  0  0
    9.4267   -0.9514   -7.5599 H   0  0  0  0  0  0  0  0  0  0  0  0
    9.0531   -1.0126   -5.1247 H   0  0  0  0  0  0  0  0  0  0  0  0
    6.6057    2.8582   -0.8532 H   0  0  0  0  0  0  0  0  0  0  0  0
    8.0018    3.8639   -0.4391 H   0  0  0  0  0  0  0  0  0  0  0  0
    7.5673    2.4874    0.5814 H   0  0  0  0  0  0  0  0  0  0  0  0
   10.6334    1.2944   -1.2940 H   0  0  0  0  0  0  0  0  0  0  0  0
    9.9760    1.5865    0.3236 H   0  0  0  0  0  0  0  0  0  0  0  0
   10.3847    2.9468   -0.7203 H   0  0  0  0  0  0  0  0  0  0  0  0
    4.5130    0.0024   -2.1616 H   0  0  0  0  0  0  0  0  0  0  0  0
    2.0302   -0.0142   -2.1660 H   0  0  0  0  0  0  0  0  0  0  0  0
  1  2  1  0  0  0  0
  2  3  2  0  0  0  0
  3 26  1  0  0  0  0
  4  3  1  0  0  0  0
  4 27  1  0  0  0  0
  5  6  1  0  0  0  0
  5  4  2  0  0  0  0
  6  7  2  0  0  0  0
  8  6  1  0  0  0  0
  9 11  1  0  0  0  0
  9  8  1  0  0  0  0
  9 10  1  1  0  0  0
 11 23  1  0  0  0  0
 11 22  1  0  0  0  0
 12 11  1  0  0  0  0
 13 14  1  0  0  0  0
 13 12  1  0  0  0  0
 14  9  1  0  0  0  0
 15 14  2  0  0  0  0
 16 13  1  0  0  0  0
 17 30  1  0  0  0  0
 17 16  2  0  0  0  0
 18 17  1  0  0  0  0
 19 18  2  0  0  0  0
 19 20  1  0  0  0  0
 20 21  2  0  0  0  0
 21 34  1  0  0  0  0
 21 16  1  0  0  0  0
 22 36  1  0  0  0  0
 22 37  1  0  0  0  0
 23 39  1  0  0  0  0
 24  5  1  0  0  0  0
 25 24  2  0  0  0  0
 25  2  1  0  0  0  0
 28 12  1  0  0  0  0
 29 12  1  0  0  0  0
 31 18  1  0  0  0  0
 32 19  1  0  0  0  0
 33 20  1  0  0  0  0
 35 22  1  0  0  0  0
 38 23  1  0  0  0  0
 40 23  1  0  0  0  0
 41 24  1  0  0  0  0
 42 25  1  0  0  0  0
M  END
$$$$
