42
rmsd233.gzmat
Br         0.00000        0.00000        0.00000
C          1.89840        0.00000        0.00000
C          2.56790        0.00000        1.21930
C          3.96060        0.00170        1.21590
C          4.65070        0.00660        0.00060
C          6.12320        0.00450        0.04840
O          6.82520       -0.25960        0.98970
O          6.62840        0.38450       -1.16030
C          8.03880        0.37590       -1.30310
H          8.51350       -0.31070       -0.56680
C          8.60380        1.81940       -1.25130
C          8.91950        2.16860       -2.73970
N          8.80530        0.90690       -3.49950
C          8.25910       -0.12450       -2.74170
O          8.01910       -1.23460       -3.13740
C          9.18200        0.84490       -4.85490
C          9.25790       -0.39020       -5.52170
C          9.64200       -0.43110       -6.85680
C          9.95900        0.74020       -7.54340
C          9.88530        1.96350       -6.88290
C          9.49970        2.02690       -5.54720
C          7.59630        2.80730       -0.67600
C          9.88870        1.83140       -0.42320
C          3.96350       -0.00050       -1.21420
C          2.56930       -0.00300       -1.21740
H          2.02710       -0.00620        2.16580
H          4.51640       -0.00750        2.15830
H          8.19960        2.91610       -3.13710
H          9.94020        2.59120       -2.84630
H          9.01700       -1.32160       -5.00560
H          9.69380       -1.39130       -7.37060
H         10.25880        0.69810       -8.58690
H         10.12850        2.88300       -7.41440
H          9.44360        2.99500       -5.06100
H          6.65470        2.80960       -1.24190
H          7.98860        3.83040       -0.67890
H          7.34470        2.55940        0.36420
H         10.64620        1.14890       -0.82720
H          9.69670        1.52930        0.61550
H         10.33510        2.83190       -0.38590
H          4.51450       -0.01000       -2.16010
H          2.03040       -0.00950       -2.16570
