rmsd2.gzmat
 OpenBabel08211713413D

 42 44  0  0  1  0  0  0  0  0999 V2000
    0.0000    0.0000    0.0000 Br  0  0  0  0  0  0  0  0  0  0  0  0
    1.8984    0.0000    0.0000 C   0  0  0  0  0  0  0  0  0  0  0  0
    2.5687    0.0000    1.2177 C   0  0  0  0  0  0  0  0  0  0  0  0
    3.9629   -0.0032    1.2158 C   0  0  0  0  0  0  0  0  0  0  0  0
    4.6506   -0.0044    0.0008 C   0  0  0  0  0  0  0  0  0  0  0  0
    6.1234   -0.0040   -0.0398 C   0  0  0  0  0  0  0  0  0  0  0  0
    6.8355    0.3191   -0.9543 O   0  0  0  0  0  0  0  0  0  0  0  0
    6.6130   -0.4696    1.1450 O   0  0  0  0  0  0  0  0  0  0  0  0
    8.0206   -0.4643    1.3161 C   0  0  2  0  0  0  0  0  0  0  0  0
    8.5046    0.2898    0.6591 H   0  0  0  0  0  0  0  0  0  0  0  0
    8.5942   -1.8956    1.1492 C   0  0  0  0  0  0  0  0  0  0  0  0
    8.7097   -2.4320    2.6105 C   0  0  0  0  0  0  0  0  0  0  0  0
    8.6148   -1.2472    3.4891 N   0  0  0  0  0  0  0  0  0  0  0  0
    8.1920   -0.1111    2.8059 C   0  0  0  0  0  0  0  0  0  0  0  0
    8.0079    0.9736    3.2919 O   0  0  0  0  0  0  0  0  0  0  0  0
    8.8529   -1.3513    4.8730 C   0  0  0  0  0  0  0  0  0  0  0  0
    9.0030   -0.1968    5.6602 C   0  0  0  0  0  0  0  0  0  0  0  0
    9.2471   -0.3188    7.0228 C   0  0  0  0  0  0  0  0  0  0  0  0
    9.3510   -1.5754    7.6182 C   0  0  0  0  0  0  0  0  0  0  0  0
    9.2034   -2.7187    6.8379 C   0  0  0  0  0  0  0  0  0  0  0  0
    8.9542   -2.6186    5.4724 C   0  0  0  0  0  0  0  0  0  0  0  0
    7.6787   -2.7854    0.3190 C   0  0  0  0  0  0  0  0  0  0  0  0
    9.9784   -1.8104    0.5059 C   0  0  0  0  0  0  0  0  0  0  0  0
    3.9622    0.0051   -1.2149 C   0  0  0  0  0  0  0  0  0  0  0  0
    2.5690    0.0055   -1.2189 C   0  0  0  0  0  0  0  0  0  0  0  0
    2.0297    0.0055    2.1661 H   0  0  0  0  0  0  0  0  0  0  0  0
    4.5126    0.0012    2.1629 H   0  0  0  0  0  0  0  0  0  0  0  0
    7.8886   -3.1446    2.8410 H   0  0  0  0  0  0  0  0  0  0  0  0
    9.6726   -2.9574    2.7747 H   0  0  0  0  0  0  0  0  0  0  0  0
    8.9280    0.7973    5.2151 H   0  0  0  0  0  0  0  0  0  0  0  0
    9.3596    0.5800    7.6296 H   0  0  0  0  0  0  0  0  0  0  0  0
    9.5456   -1.6606    8.6837 H   0  0  0  0  0  0  0  0  0  0  0  0
    9.2802   -3.7034    7.2978 H   0  0  0  0  0  0  0  0  0  0  0  0
    8.8328   -3.5259    4.8902 H   0  0  0  0  0  0  0  0  0  0  0  0
    6.6825   -2.8864    0.7702 H   0  0  0  0  0  0  0  0  0  0  0  0
    8.0929   -3.7928    0.2016 H   0  0  0  0  0  0  0  0  0  0  0  0
    7.5342   -2.3733   -0.6894 H   0  0  0  0  0  0  0  0  0  0  0  0
   10.6639   -1.1822    1.0885 H   0  0  0  0  0  0  0  0  0  0  0  0
    9.9232   -1.3878   -0.5065 H   0  0  0  0  0  0  0  0  0  0  0  0
   10.4415   -2.7997    0.4122 H   0  0  0  0  0  0  0  0  0  0  0  0
    4.5182    0.0189   -2.1568 H   0  0  0  0  0  0  0  0  0  0  0  0
    2.0295    0.0142   -2.1664 H   0  0  0  0  0  0  0  0  0  0  0  0
  1  2  1  0  0  0  0
  2  3  2  0  0  0  0
  3 26  1  0  0  0  0
  4  3  1  0  0  0  0
  4 27  1  0  0  0  0
  5  4  2  0  0  0  0
  6  5  1  0  0  0  0
  6  8  1  0  0  0  0
  7  6  2  0  0  0  0
  8  9  1  0  0  0  0
  9 10  1  6  0  0  0
  9 14  1  0  0  0  0
 11  9  1  0  0  0  0
 11 12  1  0  0  0  0
 12 29  1  0  0  0  0
 12 28  1  0  0  0  0
 12 13  1  0  0  0  0
 13 16  1  0  0  0  0
 14 15  2  0  0  0  0
 14 13  1  0  0  0  0
 16 21  2  0  0  0  0
 16 17  1  0  0  0  0
 17 18  2  0  0  0  0
 18 19  1  0  0  0  0
 18 31  1  0  0  0  0
 19 32  1  0  0  0  0
 20 33  1  0  0  0  0
 20 19  2  0  0  0  0
 21 20  1  0  0  0  0
 22 35  1  0  0  0  0
 22 11  1  0  0  0  0
 23 38  1  0  0  0  0
 23 11  1  0  0  0  0
 24  5  1  0  0  0  0
 25 24  2  0  0  0  0
 25  2  1  0  0  0  0
 30 17  1  0  0  0  0
 34 21  1  0  0  0  0
 36 22  1  0  0  0  0
 37 22  1  0  0  0  0
 39 23  1  0  0  0  0
 40 23  1  0  0  0  0
 41 24  1  0  0  0  0
 42 25  1  0  0  0  0
M  END
$$$$
