42
rmsd34.gzmat
Br         0.00000        0.00000        0.00000
C          1.89820        0.00000        0.00000
C          2.56830        0.00000        1.21890
C          3.96120        0.00490        1.21510
C          4.64980        0.01560       -0.00050
C          6.12320        0.02280        0.03890
O          6.84010       -0.32810        0.93880
O          6.60460        0.53310       -1.13020
C          8.01240        0.57060       -1.30010
H          8.51360       -0.22020       -0.70540
C          8.55120        2.00010       -1.03160
C          8.48010        2.68570       -2.43150
N          8.45570        1.58030       -3.41320
C          8.17640        0.35280       -2.81910
O          8.09620       -0.70230       -3.38950
C          8.58370        1.83240       -4.79220
C          8.46030        3.14570       -5.27780
C          8.59270        3.39160       -6.64100
C          8.84450        2.34900       -7.52900
C          8.96810        1.04720       -7.04490
C          8.84380        0.78020       -5.68670
C          7.70970        2.75670       -0.01460
C         10.00230        1.90460       -0.56040
C          3.96270        0.00960       -1.21560
C          2.56850       -0.00020       -1.21770
H          2.02840       -0.00710        2.16600
H          4.51670       -0.00500        2.15720
H          7.56040        3.30210       -2.52590
H          9.35440        3.34280       -2.61010
H          8.25180        3.97360       -4.60820
H          8.49360        4.41050       -7.01390
H          8.94310        2.54750       -8.59250
H          9.16430        0.22750       -7.73630
H          8.94570       -0.24560       -5.32680
H          6.65800        2.82970       -0.32120
H          8.07960        3.77750        0.13570
H          7.72560        2.25500        0.96370
H         10.63170        1.36380       -1.27860
H         10.07810        1.38320        0.40280
H         10.44680        2.89690       -0.42120
H          4.51290        0.00920       -2.16230
H          2.02920       -0.00930       -2.16590
