rmsd172.gzmat
 OpenBabel08211713413D

 42 44  0  0  1  0  0  0  0  0999 V2000
    0.0000    0.0000    0.0000 Br  0  0  0  0  0  0  0  0  0  0  0  0
    1.8982    0.0000    0.0000 C   0  0  0  0  0  0  0  0  0  0  0  0
    2.5686    0.0000    1.2185 C   0  0  0  0  0  0  0  0  0  0  0  0
    3.9614   -0.0026    1.2141 C   0  0  0  0  0  0  0  0  0  0  0  0
    4.6513    0.0002   -0.0013 C   0  0  0  0  0  0  0  0  0  0  0  0
    6.1240   -0.0026    0.0458 C   0  0  0  0  0  0  0  0  0  0  0  0
    6.8284   -0.1896    1.0032 O   0  0  0  0  0  0  0  0  0  0  0  0
    6.6251    0.2742   -1.1918 O   0  0  0  0  0  0  0  0  0  0  0  0
    8.0337    0.2421   -1.3508 C   0  0  2  0  0  0  0  0  0  0  0  0
    8.5207   -0.3629   -0.5572 H   0  0  0  0  0  0  0  0  0  0  0  0
    8.5885    1.6857   -1.4700 C   0  0  0  0  0  0  0  0  0  0  0  0
    8.6004    1.9527   -3.0079 C   0  0  0  0  0  0  0  0  0  0  0  0
    8.5602    0.6191   -3.6446 N   0  0  0  0  0  0  0  0  0  0  0  0
    8.2162   -0.3871   -2.7463 C   0  0  0  0  0  0  0  0  0  0  0  0
    8.0982   -1.5542   -3.0104 O   0  0  0  0  0  0  0  0  0  0  0  0
    8.7923    0.4645   -5.0244 C   0  0  0  0  0  0  0  0  0  0  0  0
    8.7705    1.5880   -5.8685 C   0  0  0  0  0  0  0  0  0  0  0  0
    9.0144    1.4323   -7.2298 C   0  0  0  0  0  0  0  0  0  0  0  0
    9.2805    0.1742   -7.7639 C   0  0  0  0  0  0  0  0  0  0  0  0
    9.2977   -0.9393   -6.9255 C   0  0  0  0  0  0  0  0  0  0  0  0
    9.0582   -0.8058   -5.5632 C   0  0  0  0  0  0  0  0  0  0  0  0
    7.7119    2.6977   -0.7462 C   0  0  0  0  0  0  0  0  0  0  0  0
   10.0132    1.7203   -0.9168 C   0  0  0  0  0  0  0  0  0  0  0  0
    3.9630   -0.0049   -1.2158 C   0  0  0  0  0  0  0  0  0  0  0  0
    2.5685   -0.0043   -1.2178 C   0  0  0  0  0  0  0  0  0  0  0  0
    2.0290   -0.0029    2.1657 H   0  0  0  0  0  0  0  0  0  0  0  0
    4.5181   -0.0133    2.1561 H   0  0  0  0  0  0  0  0  0  0  0  0
    7.7159    2.5499   -3.3170 H   0  0  0  0  0  0  0  0  0  0  0  0
    9.5103    2.5040   -3.3191 H   0  0  0  0  0  0  0  0  0  0  0  0
    8.5562    2.5772   -5.4784 H   0  0  0  0  0  0  0  0  0  0  0  0
    8.9945    2.3050   -7.8817 H   0  0  0  0  0  0  0  0  0  0  0  0
    9.4718    0.0600   -8.8273 H   0  0  0  0  0  0  0  0  0  0  0  0
    9.5019   -1.9270   -7.3389 H   0  0  0  0  0  0  0  0  0  0  0  0
    9.0771   -1.6910   -4.9245 H   0  0  0  0  0  0  0  0  0  0  0  0
    6.6927    2.7269   -1.1538 H   0  0  0  0  0  0  0  0  0  0  0  0
    8.1244    3.7108   -0.8117 H   0  0  0  0  0  0  0  0  0  0  0  0
    7.6230    2.4512    0.3213 H   0  0  0  0  0  0  0  0  0  0  0  0
   10.6641    0.9906   -1.4148 H   0  0  0  0  0  0  0  0  0  0  0  0
   10.0312    1.4988    0.1585 H   0  0  0  0  0  0  0  0  0  0  0  0
   10.4719    2.7075   -1.0463 H   0  0  0  0  0  0  0  0  0  0  0  0
    4.5113   -0.0152   -2.1634 H   0  0  0  0  0  0  0  0  0  0  0  0
    2.0291   -0.0103   -2.1654 H   0  0  0  0  0  0  0  0  0  0  0  0
  1  2  1  0  0  0  0
  2  3  2  0  0  0  0
  3 26  1  0  0  0  0
  4  3  1  0  0  0  0
  4 27  1  0  0  0  0
  5  6  1  0  0  0  0
  5  4  2  0  0  0  0
  6  7  2  0  0  0  0
  8  6  1  0  0  0  0
  9  8  1  0  0  0  0
  9 10  1  1  0  0  0
 11  9  1  0  0  0  0
 11 23  1  0  0  0  0
 11 22  1  0  0  0  0
 12 11  1  0  0  0  0
 13 12  1  0  0  0  0
 13 14  1  0  0  0  0
 14  9  1  0  0  0  0
 15 14  2  0  0  0  0
 16 13  1  0  0  0  0
 17 30  1  0  0  0  0
 17 16  2  0  0  0  0
 18 17  1  0  0  0  0
 19 18  2  0  0  0  0
 19 20  1  0  0  0  0
 20 21  2  0  0  0  0
 21 16  1  0  0  0  0
 21 34  1  0  0  0  0
 22 37  1  0  0  0  0
 23 39  1  0  0  0  0
 24  5  1  0  0  0  0
 25 24  2  0  0  0  0
 25  2  1  0  0  0  0
 28 12  1  0  0  0  0
 29 12  1  0  0  0  0
 31 18  1  0  0  0  0
 32 19  1  0  0  0  0
 33 20  1  0  0  0  0
 35 22  1  0  0  0  0
 36 22  1  0  0  0  0
 38 23  1  0  0  0  0
 40 23  1  0  0  0  0
 41 24  1  0  0  0  0
 42 25  1  0  0  0  0
M  END
$$$$
