42
rmsd188.gzmat
Br         0.00000        0.00000        0.00000
C          1.89820        0.00000        0.00000
C          2.56660        0.00000        1.21980
C          3.95910       -0.00110        1.21710
C          4.65160        0.00040        0.00250
C          6.12350       -0.01040        0.05980
O          6.81470       -0.18920        1.02900
O          6.64610        0.24230       -1.17460
C          8.05760        0.18590       -1.30050
H          8.51550       -0.40290       -0.47500
C          8.64740        1.61300       -1.44180
C          8.86710        1.78600       -2.97760
N          8.76810        0.43300       -3.56540
C          8.27680       -0.50320       -2.66000
O          8.07670       -1.66650       -2.88960
C          9.12070        0.19940       -4.90830
C          9.17710       -1.10920       -5.41810
C          9.54490       -1.31970       -6.74160
C          9.86630       -0.24620       -7.57100
C          9.80510        1.05060       -7.06810
C          9.43070        1.28360       -5.74810
C          7.70150        2.68150       -0.90910
C          9.98770        1.67550       -0.70800
C          3.96530       -0.00350       -1.21300
C          2.57070       -0.00340       -1.21680
H          2.02580       -0.00470        2.16670
H          4.51410       -0.00850        2.16020
H          8.09300        2.44800       -3.42190
H          9.86020        2.23100       -3.19370
H          8.93520       -1.96810       -4.78860
H          9.58360       -2.33750       -7.13150
H         10.16290       -0.42120       -8.60120
H         10.05140        1.89350       -7.71240
H          9.37790        2.30550       -5.38830
H          6.72440        2.65490       -1.40990
H          8.11290        3.68850       -1.04220
H          7.51410        2.54500        0.16490
H         10.70180        0.93810       -1.09550
H          9.86620        1.48160        0.36650
H         10.45380        2.66320       -0.80140
H          4.51520       -0.01270       -2.15970
H          2.03300       -0.00980       -2.16580
