68
rmsd248.gzmat
C          0.00000        0.00000        0.00000
O          1.20870        0.00000        0.00000
C         -0.68860        0.00000       -1.34560
C         -2.03270        0.04770       -1.51260
C         -2.88730        0.02010       -0.32330
O         -4.09520       -0.05850       -0.33500
C         -2.20090        0.07070        1.01550
C         -0.85700        0.02550        1.18880
C         -0.25100        0.03460        2.49070
C         -0.71770        0.75610        3.58810
N          0.11270        0.53830        4.68210
H          0.00770        0.93490        5.58540
C          1.12500       -0.34790        4.29910
C          2.18920       -0.86820        5.04530
C          3.04530       -1.74000        4.40170
C          2.85050       -2.10310        3.04880
C          1.79350       -1.59220        2.31420
C          0.91900       -0.68850        2.92510
C          3.83220       -3.03570        2.39990
C          4.08090       -4.25030        3.23460
C          5.25360       -4.89430        3.29970
C          6.46580       -4.46930        2.53800
C          5.42450       -6.11010        4.15100
O         -3.00320        0.15710        2.09110
C         -2.67910        0.11190       -2.79350
C         -3.86320       -0.53150       -3.14430
N         -4.17510       -0.25250       -4.47130
H         -4.97070       -0.57870       -4.96590
C         -3.19050        0.59580       -4.98880
C         -2.23830        0.84950       -3.95130
C         -1.16570        1.70610       -4.20980
C         -1.04050        2.25860       -5.47440
C         -1.97690        1.97580       -6.49350
C         -3.06320        1.15150       -6.26680
C          0.11850        3.16340       -5.77560
C          1.34610        2.37370       -6.10260
C          2.51690        2.93460       -6.43350
C          2.71510        4.41260       -6.50580
C          3.71640        2.10460       -6.75380
O          0.11770       -0.04440       -2.41570
H         -1.57710        1.40060        3.65420
H          2.33170       -0.59370        6.08390
H          3.89210       -2.16810        4.93860
H          1.64150       -1.87840        1.27600
H          4.77460       -2.47640        2.20160
H          3.47470       -3.35590        1.39510
H          3.21300       -4.59470        3.79510
H          6.75540       -3.43810        2.78900
H          6.28620       -4.50450        1.45370
H          7.33820       -5.10340        2.73960
H          4.53050       -6.34500        4.74300
H          6.25490       -5.98690        4.86020
H          5.64590       -6.99280        3.53440
H         -3.96930        0.09550        1.81690
H         -4.49720       -1.15500       -2.53700
H         -0.44310        1.92920       -3.42760
H         -1.83010        2.41960       -7.47720
H         -3.78810        0.94050       -7.04450
H          0.31900        3.83340       -4.90910
H         -0.12770        3.85140       -6.61420
H          1.22730        1.29310       -6.05400
H          2.65770        4.86670       -5.50530
H          1.94540        4.89360       -7.12610
H          3.68810        4.68950       -6.92990
H          3.55170        1.03340       -6.57700
H          4.58300        2.40240       -6.14720
H          4.00020        2.21690       -7.81000
H          1.08560       -0.06570       -2.13340
