rmsd122.gzmat
 OpenBabel08211713383D

 68 72  0  0  0  0  0  0  0  0999 V2000
    0.0000    0.0000    0.0000 C   0  0  0  0  0  0  0  0  0  0  0  0
    1.2097    0.0000    0.0000 O   0  0  0  0  0  0  0  0  0  0  0  0
   -0.7065    0.0000   -1.3337 C   0  0  0  0  0  0  0  0  0  0  0  0
   -2.0412   -0.1834   -1.4744 C   0  0  0  0  0  0  0  0  0  0  0  0
   -2.8461   -0.4342   -0.2739 C   0  0  0  0  0  0  0  0  0  0  0  0
   -4.0015   -0.7928   -0.2746 O   0  0  0  0  0  0  0  0  0  0  0  0
   -2.1717   -0.2276    1.0588 C   0  0  0  0  0  0  0  0  0  0  0  0
   -0.8433   -0.0014    1.1989 C   0  0  0  0  0  0  0  0  0  0  0  0
   -0.2046    0.2407    2.4617 C   0  0  0  0  0  0  0  0  0  0  0  0
    1.0245   -0.2660    2.8727 C   0  0  0  0  0  0  0  0  0  0  0  0
    1.3113    0.1834    4.1583 N   0  0  0  0  0  0  0  0  0  0  0  0
    2.1312   -0.0191    4.6786 H   0  0  0  0  0  0  0  0  0  0  0  0
    0.2648    1.0095    4.5829 C   0  0  0  0  0  0  0  0  0  0  0  0
    0.0995    1.7088    5.7831 C   0  0  0  0  0  0  0  0  0  0  0  0
   -1.0395    2.4823    5.9152 C   0  0  0  0  0  0  0  0  0  0  0  0
   -1.9996    2.5623    4.8831 C   0  0  0  0  0  0  0  0  0  0  0  0
   -1.8424    1.8575    3.6992 C   0  0  0  0  0  0  0  0  0  0  0  0
   -0.7054    1.0651    3.5327 C   0  0  0  0  0  0  0  0  0  0  0  0
   -3.2114    3.4311    5.0615 C   0  0  0  0  0  0  0  0  0  0  0  0
   -3.2418    4.5221    4.0390 C   0  0  0  0  0  0  0  0  0  0  0  0
   -4.3468    5.1685    3.6463 C   0  0  0  0  0  0  0  0  0  0  0  0
   -5.7131    4.8938    4.1805 C   0  0  0  0  0  0  0  0  0  0  0  0
   -4.2802    6.2563    2.6225 C   0  0  0  0  0  0  0  0  0  0  0  0
   -2.9615   -0.2857    2.1409 O   0  0  0  0  0  0  0  0  0  0  0  0
   -2.7384   -0.1460   -2.7292 C   0  0  0  0  0  0  0  0  0  0  0  0
   -3.7783   -0.9908   -3.1091 C   0  0  0  0  0  0  0  0  0  0  0  0
   -4.2251   -0.6435   -4.3799 N   0  0  0  0  0  0  0  0  0  0  0  0
   -4.9653   -1.0765   -4.8786 H   0  0  0  0  0  0  0  0  0  0  0  0
   -3.4811    0.4537   -4.8259 C   0  0  0  0  0  0  0  0  0  0  0  0
   -2.5328    0.7869   -3.8080 C   0  0  0  0  0  0  0  0  0  0  0  0
   -1.6800    1.8768   -4.0030 C   0  0  0  0  0  0  0  0  0  0  0  0
   -1.7775    2.5965   -5.1821 C   0  0  0  0  0  0  0  0  0  0  0  0
   -2.7151    2.2463   -6.1808 C   0  0  0  0  0  0  0  0  0  0  0  0
   -3.5757    1.1776   -6.0200 C   0  0  0  0  0  0  0  0  0  0  0  0
   -0.9008    3.7950   -5.4058 C   0  0  0  0  0  0  0  0  0  0  0  0
   -1.6366    5.0518   -5.0615 C   0  0  0  0  0  0  0  0  0  0  0  0
   -1.1598    6.2888   -5.2472 C   0  0  0  0  0  0  0  0  0  0  0  0
    0.1778    6.5995   -5.8308 C   0  0  0  0  0  0  0  0  0  0  0  0
   -1.9701    7.4900   -4.8744 C   0  0  0  0  0  0  0  0  0  0  0  0
    0.0669    0.1887   -2.4133 O   0  0  0  0  0  0  0  0  0  0  0  0
    1.7046   -0.9025    2.3328 H   0  0  0  0  0  0  0  0  0  0  0  0
    0.8379    1.6468    6.5740 H   0  0  0  0  0  0  0  0  0  0  0  0
   -1.2003    3.0498    6.8304 H   0  0  0  0  0  0  0  0  0  0  0  0
   -2.5860    1.9238    2.9067 H   0  0  0  0  0  0  0  0  0  0  0  0
   -3.2402    3.8818    6.0779 H   0  0  0  0  0  0  0  0  0  0  0  0
   -4.1259    2.7989    5.0023 H   0  0  0  0  0  0  0  0  0  0  0  0
   -2.2668    4.7735    3.6213 H   0  0  0  0  0  0  0  0  0  0  0  0
   -5.8264    3.8635    4.5446 H   0  0  0  0  0  0  0  0  0  0  0  0
   -6.4910    5.0502    3.4212 H   0  0  0  0  0  0  0  0  0  0  0  0
   -5.9429    5.5630    5.0225 H   0  0  0  0  0  0  0  0  0  0  0  0
   -3.2511    6.5004    2.3276 H   0  0  0  0  0  0  0  0  0  0  0  0
   -4.7369    7.1830    2.9950 H   0  0  0  0  0  0  0  0  0  0  0  0
   -4.8167    5.9694    1.7068 H   0  0  0  0  0  0  0  0  0  0  0  0
   -3.9068   -0.5145    1.8781 H   0  0  0  0  0  0  0  0  0  0  0  0
   -4.2265   -1.7985   -2.5556 H   0  0  0  0  0  0  0  0  0  0  0  0
   -0.9619    2.1494   -3.2323 H   0  0  0  0  0  0  0  0  0  0  0  0
   -2.7586    2.8451   -7.0897 H   0  0  0  0  0  0  0  0  0  0  0  0
   -4.2992    0.9107   -6.7816 H   0  0  0  0  0  0  0  0  0  0  0  0
   -0.5533    3.8244   -6.4618 H   0  0  0  0  0  0  0  0  0  0  0  0
    0.0286    3.7211   -4.7986 H   0  0  0  0  0  0  0  0  0  0  0  0
   -2.6251    4.8929   -4.6302 H   0  0  0  0  0  0  0  0  0  0  0  0
    0.8066    5.7106   -5.9651 H   0  0  0  0  0  0  0  0  0  0  0  0
    0.7409    7.2947   -5.1921 H   0  0  0  0  0  0  0  0  0  0  0  0
    0.0740    7.0752   -6.8167 H   0  0  0  0  0  0  0  0  0  0  0  0
   -2.9651    7.2278   -4.4913 H   0  0  0  0  0  0  0  0  0  0  0  0
   -2.1217    8.1517   -5.7382 H   0  0  0  0  0  0  0  0  0  0  0  0
   -1.4700    8.0795   -4.0934 H   0  0  0  0  0  0  0  0  0  0  0  0
    1.0374    0.2408   -2.1477 H   0  0  0  0  0  0  0  0  0  0  0  0
  1  2  2  0  0  0  0
  1  8  1  0  0  0  0
  3  1  1  0  0  0  0
  4  3  2  0  0  0  0
  4  5  1  0  0  0  0
  5  7  1  0  0  0  0
  6  5  2  0  0  0  0
  7  8  2  0  0  0  0
  7 24  1  0  0  0  0
  8  9  1  0  0  0  0
  9 10  2  0  0  0  0
  9 18  1  0  0  0  0
 10 11  1  0  0  0  0
 11 13  1  0  0  0  0
 11 12  1  0  0  0  0
 13 14  2  0  0  0  0
 14 15  1  0  0  0  0
 14 42  1  0  0  0  0
 15 43  1  0  0  0  0
 16 19  1  0  0  0  0
 16 15  2  0  0  0  0
 17 16  1  0  0  0  0
 18 17  2  0  0  0  0
 18 13  1  0  0  0  0
 19 45  1  0  0  0  0
 20 19  1  0  0  0  0
 21 20  2  0  0  0  0
 21 22  1  0  0  0  0
 22 48  1  0  0  0  0
 22 50  1  0  0  0  0
 23 52  1  0  0  0  0
 23 21  1  0  0  0  0
 25  4  1  0  0  0  0
 26 25  2  0  0  0  0
 26 55  1  0  0  0  0
 27 26  1  0  0  0  0
 28 27  1  0  0  0  0
 29 27  1  0  0  0  0
 29 30  2  0  0  0  0
 30 25  1  0  0  0  0
 31 30  1  0  0  0  0
 31 56  1  0  0  0  0
 32 31  2  0  0  0  0
 33 34  2  0  0  0  0
 33 32  1  0  0  0  0
 34 29  1  0  0  0  0
 35 32  1  0  0  0  0
 35 36  1  0  0  0  0
 35 60  1  0  0  0  0
 36 61  1  0  0  0  0
 37 36  2  0  0  0  0
 37 39  1  0  0  0  0
 38 37  1  0  0  0  0
 38 63  1  0  0  0  0
 39 65  1  0  0  0  0
 39 67  1  0  0  0  0
 40 68  1  0  0  0  0
 40  3  1  0  0  0  0
 41 10  1  0  0  0  0
 44 17  1  0  0  0  0
 46 19  1  0  0  0  0
 47 20  1  0  0  0  0
 49 22  1  0  0  0  0
 51 23  1  0  0  0  0
 53 23  1  0  0  0  0
 54 24  1  0  0  0  0
 57 33  1  0  0  0  0
 58 34  1  0  0  0  0
 59 35  1  0  0  0  0
 62 38  1  0  0  0  0
 64 38  1  0  0  0  0
 66 39  1  0  0  0  0
M  END
$$$$
