
     RDKit          3D

 68 72  0  0  0  0  0  0  0  0999 V2000
   -0.2435    0.5564    0.3363 C   0  0  0  0  0  0  0  0  0  0  0  0
    0.9845    0.4979    0.2676 O   0  0  0  0  0  0  0  0  0  0  0  0
   -0.9499    0.6534   -0.9966 C   0  0  0  0  0  0  0  0  0  0  0  0
   -2.3095    0.7178   -1.1416 C   0  0  0  0  0  0  0  0  0  0  0  0
   -3.0693    0.5610    0.1001 C   0  0  0  0  0  0  0  0  0  0  0  0
   -4.2979    0.4938    0.1642 O   0  0  0  0  0  0  0  0  0  0  0  0
   -2.3623    0.4416    1.4296 C   0  0  0  0  0  0  0  0  0  0  0  0
   -1.0047    0.5190    1.5846 C   0  0  0  0  0  0  0  0  0  0  0  0
   -0.3103    0.5295    2.8693 C   0  0  0  0  0  0  0  0  0  0  0  0
    0.9344   -0.0238    3.1315 C   0  0  0  0  0  0  0  0  0  0  0  0
    1.2702    0.1864    4.4450 N   0  0  0  0  0  0  0  0  0  0  0  0
    2.1315   -0.1175    4.8776 H   0  0  0  0  0  0  0  0  0  0  0  0
    0.2689    0.9030    5.0743 C   0  0  0  0  0  0  0  0  0  0  0  0
    0.1729    1.3824    6.3850 C   0  0  0  0  0  0  0  0  0  0  0  0
   -0.9586    2.1212    6.7225 C   0  0  0  0  0  0  0  0  0  0  0  0
   -1.9774    2.3984    5.7812 C   0  0  0  0  0  0  0  0  0  0  0  0
   -1.8577    1.9208    4.4772 C   0  0  0  0  0  0  0  0  0  0  0  0
   -0.7471    1.1459    4.1091 C   0  0  0  0  0  0  0  0  0  0  0  0
   -3.2234    3.1722    6.1947 C   0  0  0  0  0  0  0  0  0  0  0  0
   -3.7077    4.1494    5.1567 C   0  0  0  0  0  0  0  0  0  0  0  0
   -4.6549    3.9458    4.2243 C   0  0  0  0  0  0  0  0  0  0  0  0
   -5.4254    2.6609    4.0613 C   0  0  0  0  0  0  0  0  0  0  0  0
   -5.0042    5.0162    3.2225 C   0  0  0  0  0  0  0  0  0  0  0  0
   -3.2182    0.2672    2.4301 O   0  0  0  0  0  0  0  0  0  0  0  0
   -3.0140    0.8885   -2.4109 C   0  0  0  0  0  0  0  0  0  0  0  0
   -4.2591    0.3507   -2.7075 C   0  0  0  0  0  0  0  0  0  0  0  0
   -4.6334    0.7118   -3.9746 N   0  0  0  0  0  0  0  0  0  0  0  0
   -5.5039    0.4526   -4.4177 H   0  0  0  0  0  0  0  0  0  0  0  0
   -3.6611    1.5161   -4.5366 C   0  0  0  0  0  0  0  0  0  0  0  0
   -2.6162    1.6554   -3.5806 C   0  0  0  0  0  0  0  0  0  0  0  0
   -1.5235    2.4840   -3.9015 C   0  0  0  0  0  0  0  0  0  0  0  0
   -1.4705    3.1237   -5.1384 C   0  0  0  0  0  0  0  0  0  0  0  0
   -2.5245    2.9510   -6.0679 C   0  0  0  0  0  0  0  0  0  0  0  0
   -3.6248    2.1521   -5.7830 C   0  0  0  0  0  0  0  0  0  0  0  0
   -0.2896    4.0062   -5.5076 C   0  0  0  0  0  0  0  0  0  0  0  0
   -0.7024    5.4021   -5.8876 C   0  0  0  0  0  0  0  0  0  0  0  0
   -0.5893    6.0051   -7.0841 C   0  0  0  0  0  0  0  0  0  0  0  0
    0.0129    5.3703   -8.3108 C   0  0  0  0  0  0  0  0  0  0  0  0
   -1.0801    7.4158   -7.2888 C   0  0  0  0  0  0  0  0  0  0  0  0
   -0.0913    0.6645   -2.0091 O   0  0  0  0  0  0  0  0  0  0  0  0
    1.6014   -0.5495    2.4552 H   0  0  0  0  0  0  0  0  0  0  0  0
    0.9610    1.1947    7.1181 H   0  0  0  0  0  0  0  0  0  0  0  0
   -1.0597    2.5046    7.7415 H   0  0  0  0  0  0  0  0  0  0  0  0
   -2.6292    2.1515    3.7481 H   0  0  0  0  0  0  0  0  0  0  0  0
   -3.0105    3.7120    7.1318 H   0  0  0  0  0  0  0  0  0  0  0  0
   -4.0211    2.4501    6.4400 H   0  0  0  0  0  0  0  0  0  0  0  0
   -3.1854    5.1135    5.1437 H   0  0  0  0  0  0  0  0  0  0  0  0
   -5.1442    1.8896    4.7900 H   0  0  0  0  0  0  0  0  0  0  0  0
   -5.2550    2.2445    3.0527 H   0  0  0  0  0  0  0  0  0  0  0  0
   -6.5119    2.8397    4.1439 H   0  0  0  0  0  0  0  0  0  0  0  0
   -4.4155    5.9324    3.3761 H   0  0  0  0  0  0  0  0  0  0  0  0
   -6.0754    5.2799    3.2812 H   0  0  0  0  0  0  0  0  0  0  0  0
   -4.8281    4.6623    2.1909 H   0  0  0  0  0  0  0  0  0  0  0  0
   -4.1017    0.2583    1.9894 H   0  0  0  0  0  0  0  0  0  0  0  0
   -4.9009   -0.2617   -2.0823 H   0  0  0  0  0  0  0  0  0  0  0  0
   -0.7097    2.6166   -3.1900 H   0  0  0  0  0  0  0  0  0  0  0  0
   -2.4719    3.4737   -7.0260 H   0  0  0  0  0  0  0  0  0  0  0  0
   -4.4385    2.0341   -6.5027 H   0  0  0  0  0  0  0  0  0  0  0  0
    0.2786    3.5331   -6.3244 H   0  0  0  0  0  0  0  0  0  0  0  0
    0.3956    4.0509   -4.6441 H   0  0  0  0  0  0  0  0  0  0  0  0
   -1.1792    5.9688   -5.0785 H   0  0  0  0  0  0  0  0  0  0  0  0
    0.3414    4.3353   -8.1503 H   0  0  0  0  0  0  0  0  0  0  0  0
    0.8831    5.9522   -8.6633 H   0  0  0  0  0  0  0  0  0  0  0  0
   -0.7149    5.3698   -9.1416 H   0  0  0  0  0  0  0  0  0  0  0  0
   -1.5111    7.8393   -6.3699 H   0  0  0  0  0  0  0  0  0  0  0  0
   -1.8497    7.4557   -8.0805 H   0  0  0  0  0  0  0  0  0  0  0  0
   -0.2592    8.0765   -7.6210 H   0  0  0  0  0  0  0  0  0  0  0  0
    0.7921    0.6021   -1.5715 H   0  0  0  0  0  0  0  0  0  0  0  0
  1  2  2  0
  1  3  1  0
  1  8  1  0
  3  4  2  0
  3 40  1  0
  4  5  1  0
  4 25  1  0
  5  6  2  0
  5  7  1  0
  7  8  2  0
  7 24  1  0
  8  9  1  0
  9 10  2  0
  9 18  1  0
 10 11  1  0
 10 41  1  0
 11 12  1  0
 11 13  1  0
 13 14  1  0
 13 18  2  0
 14 15  2  0
 14 42  1  0
 15 16  1  0
 15 43  1  0
 16 17  2  0
 16 19  1  0
 17 18  1  0
 17 44  1  0
 19 20  1  0
 19 45  1  0
 19 46  1  0
 20 21  2  3
 20 47  1  0
 21 22  1  0
 21 23  1  0
 22 48  1  0
 22 49  1  0
 22 50  1  0
 23 51  1  0
 23 52  1  0
 23 53  1  0
 24 54  1  0
 25 26  2  0
 25 30  1  0
 26 27  1  0
 26 55  1  0
 27 28  1  0
 27 29  1  0
 29 30  2  0
 29 34  1  0
 30 31  1  0
 31 32  2  0
 31 56  1  0
 32 33  1  0
 32 35  1  0
 33 34  2  0
 33 57  1  0
 34 58  1  0
 35 36  1  0
 35 59  1  0
 35 60  1  0
 36 37  2  3
 36 61  1  0
 37 38  1  0
 37 39  1  0
 38 62  1  0
 38 63  1  0
 38 64  1  0
 39 65  1  0
 39 66  1  0
 39 67  1  0
 40 68  1  0
M  END

