
     RDKit          3D

 68 72  0  0  0  0  0  0  0  0999 V2000
    0.1888   -0.9410    0.1652 C   0  0  0  0  0  0  0  0  0  0  0  0
    1.3048   -1.4164   -0.0496 O   0  0  0  0  0  0  0  0  0  0  0  0
   -0.6119   -0.6183   -1.0745 C   0  0  0  0  0  0  0  0  0  0  0  0
   -1.8836   -0.1120   -1.0537 C   0  0  0  0  0  0  0  0  0  0  0  0
   -2.3762    0.2684    0.2701 C   0  0  0  0  0  0  0  0  0  0  0  0
   -3.4485    0.8383    0.4776 O   0  0  0  0  0  0  0  0  0  0  0  0
   -1.5545   -0.0098    1.5067 C   0  0  0  0  0  0  0  0  0  0  0  0
   -0.3561   -0.6736    1.4962 C   0  0  0  0  0  0  0  0  0  0  0  0
    0.3796   -1.0912    2.6871 C   0  0  0  0  0  0  0  0  0  0  0  0
    1.7586   -1.1800    2.8131 C   0  0  0  0  0  0  0  0  0  0  0  0
    2.0836   -1.6335    4.0668 N   0  0  0  0  0  0  0  0  0  0  0  0
    3.0254   -1.7855    4.4002 H   0  0  0  0  0  0  0  0  0  0  0  0
    0.9298   -1.8798    4.7885 C   0  0  0  0  0  0  0  0  0  0  0  0
    0.7459   -2.3721    6.0859 C   0  0  0  0  0  0  0  0  0  0  0  0
   -0.5612   -2.5456    6.5346 C   0  0  0  0  0  0  0  0  0  0  0  0
   -1.6768   -2.2528    5.7147 C   0  0  0  0  0  0  0  0  0  0  0  0
   -1.4715   -1.7629    4.4270 C   0  0  0  0  0  0  0  0  0  0  0  0
   -0.1694   -1.5531    3.9489 C   0  0  0  0  0  0  0  0  0  0  0  0
   -3.0967   -2.4950    6.2195 C   0  0  0  0  0  0  0  0  0  0  0  0
   -4.1014   -1.5335    5.6423 C   0  0  0  0  0  0  0  0  0  0  0  0
   -4.8393   -1.7055    4.5317 C   0  0  0  0  0  0  0  0  0  0  0  0
   -4.8253   -2.9573    3.6936 C   0  0  0  0  0  0  0  0  0  0  0  0
   -5.7100   -0.5998    3.9933 C   0  0  0  0  0  0  0  0  0  0  0  0
   -2.1448    0.4453    2.6050 O   0  0  0  0  0  0  0  0  0  0  0  0
   -2.7240    0.0804   -2.2324 C   0  0  0  0  0  0  0  0  0  0  0  0
   -3.6512    1.0947   -2.4203 C   0  0  0  0  0  0  0  0  0  0  0  0
   -4.2593    0.9494   -3.6416 N   0  0  0  0  0  0  0  0  0  0  0  0
   -4.9759    1.5610   -4.0074 H   0  0  0  0  0  0  0  0  0  0  0  0
   -3.7670   -0.1755   -4.2777 C   0  0  0  0  0  0  0  0  0  0  0  0
   -2.7973   -0.7576   -3.4154 C   0  0  0  0  0  0  0  0  0  0  0  0
   -2.1875   -1.9619   -3.7988 C   0  0  0  0  0  0  0  0  0  0  0  0
   -2.4978   -2.5442   -5.0266 C   0  0  0  0  0  0  0  0  0  0  0  0
   -3.4517   -1.9282   -5.8701 C   0  0  0  0  0  0  0  0  0  0  0  0
   -4.1001   -0.7495   -5.5092 C   0  0  0  0  0  0  0  0  0  0  0  0
   -1.7746   -3.8101   -5.4705 C   0  0  0  0  0  0  0  0  0  0  0  0
   -1.5715   -4.8155   -4.3683 C   0  0  0  0  0  0  0  0  0  0  0  0
   -0.4833   -4.9669   -3.5931 C   0  0  0  0  0  0  0  0  0  0  0  0
    0.7653   -4.1308   -3.7075 C   0  0  0  0  0  0  0  0  0  0  0  0
   -0.4458   -6.0008   -2.4972 C   0  0  0  0  0  0  0  0  0  0  0  0
    0.0611   -0.8991   -2.1846 O   0  0  0  0  0  0  0  0  0  0  0  0
    2.5252   -0.9544    2.0782 H   0  0  0  0  0  0  0  0  0  0  0  0
    1.5966   -2.6129    6.7280 H   0  0  0  0  0  0  0  0  0  0  0  0
   -0.7305   -2.9226    7.5471 H   0  0  0  0  0  0  0  0  0  0  0  0
   -2.3264   -1.5184    3.8052 H   0  0  0  0  0  0  0  0  0  0  0  0
   -3.0995   -2.4195    7.3192 H   0  0  0  0  0  0  0  0  0  0  0  0
   -3.3832   -3.5363    5.9913 H   0  0  0  0  0  0  0  0  0  0  0  0
   -4.1595   -0.5598    6.1429 H   0  0  0  0  0  0  0  0  0  0  0  0
   -4.1754   -3.7436    4.0988 H   0  0  0  0  0  0  0  0  0  0  0  0
   -4.4759   -2.7295    2.6706 H   0  0  0  0  0  0  0  0  0  0  0  0
   -5.8438   -3.3703    3.5874 H   0  0  0  0  0  0  0  0  0  0  0  0
   -5.7061    0.2840    4.6481 H   0  0  0  0  0  0  0  0  0  0  0  0
   -6.7551   -0.9333    3.8663 H   0  0  0  0  0  0  0  0  0  0  0  0
   -5.3611   -0.2882    2.9912 H   0  0  0  0  0  0  0  0  0  0  0  0
   -2.9856    0.8473    2.2800 H   0  0  0  0  0  0  0  0  0  0  0  0
   -3.9165    1.9071   -1.7507 H   0  0  0  0  0  0  0  0  0  0  0  0
   -1.4712   -2.4459   -3.1411 H   0  0  0  0  0  0  0  0  0  0  0  0
   -3.6916   -2.3955   -6.8291 H   0  0  0  0  0  0  0  0  0  0  0  0
   -4.8500   -0.2975   -6.1629 H   0  0  0  0  0  0  0  0  0  0  0  0
   -0.8033   -3.5249   -5.9101 H   0  0  0  0  0  0  0  0  0  0  0  0
   -2.3471   -4.2769   -6.2884 H   0  0  0  0  0  0  0  0  0  0  0  0
   -2.4356   -5.4564   -4.1562 H   0  0  0  0  0  0  0  0  0  0  0  0
    0.7104   -3.3726   -4.4994 H   0  0  0  0  0  0  0  0  0  0  0  0
    1.6492   -4.7661   -3.8931 H   0  0  0  0  0  0  0  0  0  0  0  0
    0.9554   -3.6050   -2.7551 H   0  0  0  0  0  0  0  0  0  0  0  0
   -1.3774   -6.5832   -2.4480 H   0  0  0  0  0  0  0  0  0  0  0  0
   -0.2840   -5.5255   -1.5132 H   0  0  0  0  0  0  0  0  0  0  0  0
    0.3937   -6.7037   -2.6438 H   0  0  0  0  0  0  0  0  0  0  0  0
    0.9270   -1.2435   -1.8586 H   0  0  0  0  0  0  0  0  0  0  0  0
  1  2  2  0
  1  3  1  0
  1  8  1  0
  3  4  2  0
  3 40  1  0
  4  5  1  0
  4 25  1  0
  5  6  2  0
  5  7  1  0
  7  8  2  0
  7 24  1  0
  8  9  1  0
  9 10  2  0
  9 18  1  0
 10 11  1  0
 10 41  1  0
 11 12  1  0
 11 13  1  0
 13 14  1  0
 13 18  2  0
 14 15  2  0
 14 42  1  0
 15 16  1  0
 15 43  1  0
 16 17  2  0
 16 19  1  0
 17 18  1  0
 17 44  1  0
 19 20  1  0
 19 45  1  0
 19 46  1  0
 20 21  2  3
 20 47  1  0
 21 22  1  0
 21 23  1  0
 22 48  1  0
 22 49  1  0
 22 50  1  0
 23 51  1  0
 23 52  1  0
 23 53  1  0
 24 54  1  0
 25 26  2  0
 25 30  1  0
 26 27  1  0
 26 55  1  0
 27 28  1  0
 27 29  1  0
 29 30  2  0
 29 34  1  0
 30 31  1  0
 31 32  2  0
 31 56  1  0
 32 33  1  0
 32 35  1  0
 33 34  2  0
 33 57  1  0
 34 58  1  0
 35 36  1  0
 35 59  1  0
 35 60  1  0
 36 37  2  3
 36 61  1  0
 37 38  1  0
 37 39  1  0
 38 62  1  0
 38 63  1  0
 38 64  1  0
 39 65  1  0
 39 66  1  0
 39 67  1  0
 40 68  1  0
M  END

