68

C          0.23870        0.29720        0.40240
O          1.43750        0.55900        0.29830
C         -0.50720        0.21120       -0.91000
C         -1.84180       -0.07330       -1.01700
C         -2.50020       -0.42030        0.24370
O         -3.67180       -0.78930        0.34180
C         -1.74470       -0.36750        1.55100
C         -0.45020        0.06320        1.67100
C          0.25230        0.26430        2.93600
C          1.61060        0.08840        3.15870
N          1.91270        0.39560        4.46160
H          2.83750        0.34980        4.86650
C          0.76940        0.80610        5.12230
C          0.57670        1.24260        6.43830
C         -0.70870        1.62660        6.81270
C         -1.79140        1.59660        5.90190
C         -1.57810        1.15810        4.59710
C         -0.30180        0.74110        4.19020
C         -3.17940        2.06500        6.33000
C         -4.29230        1.33950        5.62150
C         -4.90410        1.71090        4.48350
C         -4.60750        2.98890        3.74290
C         -5.91430        0.81700        3.81190
O         -2.49550       -0.76410        2.57110
C         -2.60360       -0.08400       -2.26440
C         -3.67850       -0.92070       -2.53200
N         -4.16950       -0.66340       -3.78460
H         -4.95660       -1.13620       -4.20690
C         -3.45110        0.36370       -4.36500
C         -2.44930        0.76280       -3.43640
C         -1.61240        1.84250       -3.77960
C         -1.76090        2.47810       -5.01060
C         -2.75250        2.03470       -5.91910
C         -3.60880        0.98570       -5.60910
C         -0.86580        3.64300       -5.39870
C         -0.08180        3.37400       -6.65460
C         -0.16990        4.00250       -7.83990
C         -1.09670        5.15350       -8.13410
C          0.68750        3.57850       -9.00540
O          0.29060        0.44320       -1.94530
H          2.37910       -0.22980        2.46110
H          1.40430        1.28130        7.15070
H         -0.88580        1.96480        7.83750
H         -2.41200        1.11510        3.90430
H         -3.25720        3.15270        6.15910
H         -3.28000        1.92660        7.41890
H         -4.55820        0.36310        6.04370
H         -3.86150        3.61850        4.24480
H         -5.52670        3.58490        3.60430
H         -4.22840        2.76520        2.72970
H         -6.11400       -0.09230        4.39770
H         -5.55360        0.51100        2.81240
H         -6.87220        1.34140        3.64720
H         -3.36570       -0.98410        2.16010
H         -4.12510       -1.67790       -1.89550
H         -0.84080        2.17820       -3.08840
H         -2.83940        2.53310       -6.88760
H         -4.38080        0.66070       -6.31090
H         -0.16720        3.83880       -4.56760
H         -1.47590        4.55360       -5.50870
H          0.62140        2.53580       -6.57670
H         -1.72890        5.43390       -7.28170
H         -1.76040        4.90750       -8.98190
H         -0.52350        6.04670       -8.44010
H          1.34670        2.73700       -8.74690
H          1.31770        4.41450       -9.35860
H          0.06360        3.27580       -9.86550
H          1.17250        0.60960       -1.53220
