68
rmsd65.gzmat
C          0.00000        0.00000        0.00000
O          1.21020        0.00000        0.00000
C         -0.70270        0.00000       -1.33450
C         -2.04060       -0.15870       -1.47920
C         -2.85580       -0.37330       -0.28000
O         -4.02620       -0.68010       -0.28180
C         -2.17450       -0.20710        1.05590
C         -0.84130       -0.01150        1.20040
C         -0.18720        0.17500        2.46510
C          1.05600       -0.34030        2.82310
N          1.36500        0.03880        4.12550
H          2.19640       -0.18560        4.61760
C          0.31860        0.82600        4.61770
C          0.16860        1.44630        5.86300
C         -0.98010        2.18780        6.06710
C         -1.95860        2.32460        5.05750
C         -1.81320        1.70360        3.82700
C         -0.67270        0.93250        3.59140
C         -3.18320        3.14880        5.32950
C         -4.34170        2.28250        5.71050
C         -5.54490        2.76660        6.04560
C         -5.85020        4.22780        6.07950
C         -6.67400        1.86400        6.42060
O         -2.96490       -0.27610        2.13660
C         -2.71730       -0.14420       -2.74580
C         -3.76430       -0.98140       -3.12220
N         -4.15630       -0.68810       -4.42430
H         -4.88600       -1.13090       -4.92950
C         -3.36620        0.36490       -4.89820
C         -2.45270        0.73230       -3.86000
C         -1.57040        1.79290       -4.07520
C         -1.59310        2.44520       -5.29870
C         -2.48490        2.04990       -6.32050
C         -3.38280        1.01450       -6.13650
C         -0.66430        3.60230       -5.53920
C         -1.00690        4.73630       -4.62250
C         -2.04310        5.56560       -4.80820
C         -2.98190        5.45380       -5.96290
C         -2.33960        6.66520       -3.84130
O          0.07700        0.15080       -2.41520
H          1.73210       -0.93780        2.23520
H          0.92440        1.34690        6.63360
H         -1.14320        2.67820        7.02570
H         -2.57140        1.80730        3.05320
H         -3.44280        3.75510        4.43200
H         -2.98710        3.89780        6.12750
H         -4.14200        1.21260        5.69580
H         -5.34080        4.71500        6.92410
H         -6.92260        4.43350        6.18650
H         -5.51730        4.73370        5.16180
H         -6.38010        0.80640        6.45200
H         -7.50210        1.94790        5.70240
H         -7.07290        2.11950        7.41240
H         -3.91710       -0.46910        1.86920
H         -4.25240       -1.75090       -2.54860
H         -0.88610        2.10200       -3.28790
H         -2.46220        2.57750       -7.27260
H         -4.07220        0.71600       -6.91760
H         -0.70080        3.93520       -6.59820
H          0.38730        3.27780       -5.38180
H         -0.35210        4.83510       -3.76110
H         -2.44580        5.46210       -6.92210
H         -3.71990        6.26340       -5.99630
H         -3.54130        4.50420       -5.91360
H         -1.62110        6.70850       -3.01270
H         -3.33690        6.53830       -3.39520
H         -2.32330        7.64570       -4.33680
H          1.04740        0.19740       -2.14840
