68

C          0.18880       -0.94100        0.16520
O          1.30480       -1.41640       -0.04960
C         -0.61190       -0.61830       -1.07450
C         -1.88360       -0.11200       -1.05370
C         -2.37620        0.26840        0.27010
O         -3.44850        0.83830        0.47760
C         -1.55450       -0.00980        1.50670
C         -0.35610       -0.67360        1.49620
C          0.37960       -1.09120        2.68710
C          1.75860       -1.18000        2.81310
N          2.08360       -1.63350        4.06680
H          3.02540       -1.78550        4.40020
C          0.92980       -1.87980        4.78850
C          0.74590       -2.37210        6.08590
C         -0.56120       -2.54560        6.53460
C         -1.67680       -2.25280        5.71470
C         -1.47150       -1.76290        4.42700
C         -0.16940       -1.55310        3.94890
C         -3.09670       -2.49500        6.21950
C         -4.10140       -1.53350        5.64230
C         -4.83930       -1.70550        4.53170
C         -4.82530       -2.95730        3.69360
C         -5.71000       -0.59980        3.99330
O         -2.14480        0.44530        2.60500
C         -2.72400        0.08040       -2.23240
C         -3.65120        1.09470       -2.42030
N         -4.25930        0.94940       -3.64160
H         -4.97590        1.56100       -4.00740
C         -3.76700       -0.17550       -4.27770
C         -2.79730       -0.75760       -3.41540
C         -2.18750       -1.96190       -3.79880
C         -2.49780       -2.54420       -5.02660
C         -3.45170       -1.92820       -5.87010
C         -4.10010       -0.74950       -5.50920
C         -1.77460       -3.81010       -5.47050
C         -1.57150       -4.81550       -4.36830
C         -0.48330       -4.96690       -3.59310
C          0.76530       -4.13080       -3.70750
C         -0.44580       -6.00080       -2.49720
O          0.06110       -0.89910       -2.18460
H          2.52520       -0.95440        2.07820
H          1.59660       -2.61290        6.72800
H         -0.73050       -2.92260        7.54710
H         -2.32640       -1.51840        3.80520
H         -3.09950       -2.41950        7.31920
H         -3.38320       -3.53630        5.99130
H         -4.15950       -0.55980        6.14290
H         -4.17540       -3.74360        4.09880
H         -4.47590       -2.72950        2.67060
H         -5.84380       -3.37030        3.58740
H         -5.70610        0.28400        4.64810
H         -6.75510       -0.93330        3.86630
H         -5.36110       -0.28820        2.99120
H         -2.98560        0.84730        2.28000
H         -3.91650        1.90710       -1.75070
H         -1.47120       -2.44590       -3.14110
H         -3.69160       -2.39550       -6.82910
H         -4.85000       -0.29750       -6.16290
H         -0.80330       -3.52490       -5.91010
H         -2.34710       -4.27690       -6.28840
H         -2.43560       -5.45640       -4.15620
H          0.71040       -3.37260       -4.49940
H          1.64920       -4.76610       -3.89310
H          0.95540       -3.60500       -2.75510
H         -1.37740       -6.58320       -2.44800
H         -0.28400       -5.52550       -1.51320
H          0.39370       -6.70370       -2.64380
H          0.92700       -1.24350       -1.85860
