
     RDKit          3D

 68 72  0  0  0  0  0  0  0  0999 V2000
   -0.4704   -1.2338   -0.3923 C   0  0  0  0  0  0  0  0  0  0  0  0
    0.6414   -1.7627   -0.4387 O   0  0  0  0  0  0  0  0  0  0  0  0
   -1.0209   -0.8076   -1.7330 C   0  0  0  0  0  0  0  0  0  0  0  0
   -2.2485   -0.2281   -1.9075 C   0  0  0  0  0  0  0  0  0  0  0  0
   -2.9471    0.1190   -0.6704 C   0  0  0  0  0  0  0  0  0  0  0  0
   -3.9984    0.7579   -0.6201 O   0  0  0  0  0  0  0  0  0  0  0  0
   -2.3864   -0.2871    0.6735 C   0  0  0  0  0  0  0  0  0  0  0  0
   -1.2250   -0.9923    0.8389 C   0  0  0  0  0  0  0  0  0  0  0  0
   -0.7006   -1.4626    2.1197 C   0  0  0  0  0  0  0  0  0  0  0  0
    0.6469   -1.5809    2.4319 C   0  0  0  0  0  0  0  0  0  0  0  0
    0.7898   -2.0602    3.7071 N   0  0  0  0  0  0  0  0  0  0  0  0
    1.6737   -2.2405    4.1628 H   0  0  0  0  0  0  0  0  0  0  0  0
   -0.4544   -2.2945    4.2594 C   0  0  0  0  0  0  0  0  0  0  0  0
   -0.8037   -2.8108    5.5128 C   0  0  0  0  0  0  0  0  0  0  0  0
   -2.1551   -2.9762    5.7885 C   0  0  0  0  0  0  0  0  0  0  0  0
   -3.1529   -2.6517    4.8377 C   0  0  0  0  0  0  0  0  0  0  0  0
   -2.7880   -2.1311    3.5978 C   0  0  0  0  0  0  0  0  0  0  0  0
   -1.4286   -1.9312    3.2879 C   0  0  0  0  0  0  0  0  0  0  0  0
   -4.6144   -2.8736    5.1896 C   0  0  0  0  0  0  0  0  0  0  0  0
   -5.0372   -2.1028    6.4108 C   0  0  0  0  0  0  0  0  0  0  0  0
   -5.4383   -2.5850    7.6001 C   0  0  0  0  0  0  0  0  0  0  0  0
   -5.5609   -4.0489    7.9353 C   0  0  0  0  0  0  0  0  0  0  0  0
   -5.8061   -1.6541    8.7276 C   0  0  0  0  0  0  0  0  0  0  0  0
   -3.1555    0.1271    1.6732 O   0  0  0  0  0  0  0  0  0  0  0  0
   -2.8507    0.0787   -3.2021 C   0  0  0  0  0  0  0  0  0  0  0  0
   -3.6770    1.1563   -3.4854 C   0  0  0  0  0  0  0  0  0  0  0  0
   -4.0601    1.1160   -4.8021 N   0  0  0  0  0  0  0  0  0  0  0  0
   -4.6674    1.7891   -5.2487 H   0  0  0  0  0  0  0  0  0  0  0  0
   -3.5173    0.0003   -5.4127 C   0  0  0  0  0  0  0  0  0  0  0  0
   -2.7498   -0.6865   -4.4317 C   0  0  0  0  0  0  0  0  0  0  0  0
   -2.1410   -1.9022   -4.7795 C   0  0  0  0  0  0  0  0  0  0  0  0
   -2.2521   -2.3949   -6.0786 C   0  0  0  0  0  0  0  0  0  0  0  0
   -3.0061   -1.6764   -7.0357 C   0  0  0  0  0  0  0  0  0  0  0  0
   -3.6500   -0.4828   -6.7188 C   0  0  0  0  0  0  0  0  0  0  0  0
   -1.5231   -3.6748   -6.4698 C   0  0  0  0  0  0  0  0  0  0  0  0
   -1.5727   -4.7517   -5.4187 C   0  0  0  0  0  0  0  0  0  0  0  0
   -0.6511   -5.0132   -4.4752 C   0  0  0  0  0  0  0  0  0  0  0  0
    0.6376   -4.2494   -4.3105 C   0  0  0  0  0  0  0  0  0  0  0  0
   -0.8635   -6.1083   -3.4618 C   0  0  0  0  0  0  0  0  0  0  0  0
   -0.1761   -1.0767   -2.7218 O   0  0  0  0  0  0  0  0  0  0  0  0
    1.5099   -1.3585    1.8126 H   0  0  0  0  0  0  0  0  0  0  0  0
   -0.0405   -3.0784    6.2476 H   0  0  0  0  0  0  0  0  0  0  0  0
   -2.4628   -3.3640    6.7626 H   0  0  0  0  0  0  0  0  0  0  0  0
   -3.5586   -1.8712    2.8736 H   0  0  0  0  0  0  0  0  0  0  0  0
   -4.7990   -3.9509    5.3266 H   0  0  0  0  0  0  0  0  0  0  0  0
   -5.2319   -2.5622    4.3300 H   0  0  0  0  0  0  0  0  0  0  0  0
   -4.9723   -1.0133    6.3018 H   0  0  0  0  0  0  0  0  0  0  0  0
   -4.9342   -4.2983    8.8100 H   0  0  0  0  0  0  0  0  0  0  0  0
   -5.2676   -4.7118    7.1109 H   0  0  0  0  0  0  0  0  0  0  0  0
   -6.5990   -4.2981    8.2185 H   0  0  0  0  0  0  0  0  0  0  0  0
   -5.7017   -0.5978    8.4401 H   0  0  0  0  0  0  0  0  0  0  0  0
   -5.1698   -1.8347    9.6126 H   0  0  0  0  0  0  0  0  0  0  0  0
   -6.8478   -1.8211    9.0556 H   0  0  0  0  0  0  0  0  0  0  0  0
   -3.8968    0.5991    1.2221 H   0  0  0  0  0  0  0  0  0  0  0  0
   -4.0182    1.9450   -2.8219 H   0  0  0  0  0  0  0  0  0  0  0  0
   -1.5802   -2.4644   -4.0384 H   0  0  0  0  0  0  0  0  0  0  0  0
   -3.0911   -2.0741   -8.0507 H   0  0  0  0  0  0  0  0  0  0  0  0
   -4.2460    0.0496   -7.4640 H   0  0  0  0  0  0  0  0  0  0  0  0
   -0.4754   -3.4240   -6.7094 H   0  0  0  0  0  0  0  0  0  0  0  0
   -1.9598   -4.0592   -7.4059 H   0  0  0  0  0  0  0  0  0  0  0  0
   -2.4918   -5.3495   -5.4062 H   0  0  0  0  0  0  0  0  0  0  0  0
    0.7643   -3.4457   -5.0473 H   0  0  0  0  0  0  0  0  0  0  0  0
    1.5079   -4.9257   -4.3783 H   0  0  0  0  0  0  0  0  0  0  0  0
    0.6782   -3.7908   -3.3067 H   0  0  0  0  0  0  0  0  0  0  0  0
   -1.8165   -6.6346   -3.6174 H   0  0  0  0  0  0  0  0  0  0  0  0
   -0.8584   -5.7008   -2.4350 H   0  0  0  0  0  0  0  0  0  0  0  0
   -0.0473   -6.8516   -3.5045 H   0  0  0  0  0  0  0  0  0  0  0  0
    0.5996   -1.4858   -2.2680 H   0  0  0  0  0  0  0  0  0  0  0  0
  1  2  2  0
  1  3  1  0
  1  8  1  0
  3  4  2  0
  3 40  1  0
  4  5  1  0
  4 25  1  0
  5  6  2  0
  5  7  1  0
  7  8  2  0
  7 24  1  0
  8  9  1  0
  9 10  2  0
  9 18  1  0
 10 11  1  0
 10 41  1  0
 11 12  1  0
 11 13  1  0
 13 14  1  0
 13 18  2  0
 14 15  2  0
 14 42  1  0
 15 16  1  0
 15 43  1  0
 16 17  2  0
 16 19  1  0
 17 18  1  0
 17 44  1  0
 19 20  1  0
 19 45  1  0
 19 46  1  0
 20 21  2  3
 20 47  1  0
 21 22  1  0
 21 23  1  0
 22 48  1  0
 22 49  1  0
 22 50  1  0
 23 51  1  0
 23 52  1  0
 23 53  1  0
 24 54  1  0
 25 26  2  0
 25 30  1  0
 26 27  1  0
 26 55  1  0
 27 28  1  0
 27 29  1  0
 29 30  2  0
 29 34  1  0
 30 31  1  0
 31 32  2  0
 31 56  1  0
 32 33  1  0
 32 35  1  0
 33 34  2  0
 33 57  1  0
 34 58  1  0
 35 36  1  0
 35 59  1  0
 35 60  1  0
 36 37  2  3
 36 61  1  0
 37 38  1  0
 37 39  1  0
 38 62  1  0
 38 63  1  0
 38 64  1  0
 39 65  1  0
 39 66  1  0
 39 67  1  0
 40 68  1  0
M  END

