rmsd56.gzmat
 OpenBabel08211713383D

 68 72  0  0  0  0  0  0  0  0999 V2000
    0.0000    0.0000    0.0000 C   0  0  0  0  0  0  0  0  0  0  0  0
    1.2101    0.0000    0.0000 O   0  0  0  0  0  0  0  0  0  0  0  0
   -0.7046    0.0000   -1.3335 C   0  0  0  0  0  0  0  0  0  0  0  0
   -2.0452   -0.1354   -1.4759 C   0  0  0  0  0  0  0  0  0  0  0  0
   -2.8587   -0.3506   -0.2749 C   0  0  0  0  0  0  0  0  0  0  0  0
   -4.0316   -0.6489   -0.2748 O   0  0  0  0  0  0  0  0  0  0  0  0
   -2.1738   -0.1937    1.0588 C   0  0  0  0  0  0  0  0  0  0  0  0
   -0.8401   -0.0037    1.2020 C   0  0  0  0  0  0  0  0  0  0  0  0
   -0.1874    0.1831    2.4667 C   0  0  0  0  0  0  0  0  0  0  0  0
    1.0468   -0.3440    2.8405 C   0  0  0  0  0  0  0  0  0  0  0  0
    1.3390    0.0276    4.1483 N   0  0  0  0  0  0  0  0  0  0  0  0
    2.1587   -0.2088    4.6547 H   0  0  0  0  0  0  0  0  0  0  0  0
    0.2901    0.8193    4.6294 C   0  0  0  0  0  0  0  0  0  0  0  0
    0.1182    1.4253    5.8795 C   0  0  0  0  0  0  0  0  0  0  0  0
   -1.0377    2.1561    6.0747 C   0  0  0  0  0  0  0  0  0  0  0  0
   -2.0038    2.2987    5.0517 C   0  0  0  0  0  0  0  0  0  0  0  0
   -1.8245    1.7137    3.8095 C   0  0  0  0  0  0  0  0  0  0  0  0
   -0.6812    0.9416    3.5880 C   0  0  0  0  0  0  0  0  0  0  0  0
   -3.2546    3.0801    5.3388 C   0  0  0  0  0  0  0  0  0  0  0  0
   -4.0644    2.3771    6.3845 C   0  0  0  0  0  0  0  0  0  0  0  0
   -4.7816    1.2667    6.1617 C   0  0  0  0  0  0  0  0  0  0  0  0
   -4.8704    0.5998    4.8297 C   0  0  0  0  0  0  0  0  0  0  0  0
   -5.5423    0.6030    7.2637 C   0  0  0  0  0  0  0  0  0  0  0  0
   -2.9674   -0.2606    2.1395 O   0  0  0  0  0  0  0  0  0  0  0  0
   -2.7339   -0.0914   -2.7350 C   0  0  0  0  0  0  0  0  0  0  0  0
   -3.8221   -0.8834   -3.0952 C   0  0  0  0  0  0  0  0  0  0  0  0
   -4.2313   -0.5609   -4.3845 N   0  0  0  0  0  0  0  0  0  0  0  0
   -4.9917   -0.9674   -4.8752 H   0  0  0  0  0  0  0  0  0  0  0  0
   -3.4112    0.4650   -4.8659 C   0  0  0  0  0  0  0  0  0  0  0  0
   -2.4579    0.7819   -3.8481 C   0  0  0  0  0  0  0  0  0  0  0  0
   -1.5302    1.8020   -4.0792 C   0  0  0  0  0  0  0  0  0  0  0  0
   -1.5531    2.4615   -5.2963 C   0  0  0  0  0  0  0  0  0  0  0  0
   -2.4995    2.1275   -6.2933 C   0  0  0  0  0  0  0  0  0  0  0  0
   -3.4370    1.1328   -6.0961 C   0  0  0  0  0  0  0  0  0  0  0  0
   -0.5718    3.5633   -5.5774 C   0  0  0  0  0  0  0  0  0  0  0  0
    0.1343    3.3283   -6.8740 C   0  0  0  0  0  0  0  0  0  0  0  0
    0.3995    4.2736   -7.7847 C   0  0  0  0  0  0  0  0  0  0  0  0
    0.0276    5.7103   -7.6210 C   0  0  0  0  0  0  0  0  0  0  0  0
    1.1111    3.9414   -9.0566 C   0  0  0  0  0  0  0  0  0  0  0  0
    0.0774    0.1380   -2.4146 O   0  0  0  0  0  0  0  0  0  0  0  0
    1.7258   -0.9459    2.2609 H   0  0  0  0  0  0  0  0  0  0  0  0
    0.8623    1.3197    6.6606 H   0  0  0  0  0  0  0  0  0  0  0  0
   -1.2241    2.6326    7.0363 H   0  0  0  0  0  0  0  0  0  0  0  0
   -2.5542    1.8418    3.0132 H   0  0  0  0  0  0  0  0  0  0  0  0
   -3.8563    3.2253    4.4162 H   0  0  0  0  0  0  0  0  0  0  0  0
   -2.9918    4.1071    5.6706 H   0  0  0  0  0  0  0  0  0  0  0  0
   -4.0174    2.8287    7.3713 H   0  0  0  0  0  0  0  0  0  0  0  0
   -5.2611    1.2858    4.0655 H   0  0  0  0  0  0  0  0  0  0  0  0
   -5.5129   -0.2880    4.8389 H   0  0  0  0  0  0  0  0  0  0  0  0
   -3.8703    0.2746    4.4897 H   0  0  0  0  0  0  0  0  0  0  0  0
   -5.4905    1.1546    8.2109 H   0  0  0  0  0  0  0  0  0  0  0  0
   -5.1479   -0.4059    7.4554 H   0  0  0  0  0  0  0  0  0  0  0  0
   -6.6062    0.4975    7.0086 H   0  0  0  0  0  0  0  0  0  0  0  0
   -3.9162   -0.4644    1.8684 H   0  0  0  0  0  0  0  0  0  0  0  0
   -4.3266   -1.6398   -2.5182 H   0  0  0  0  0  0  0  0  0  0  0  0
   -0.8081    2.0619   -3.3084 H   0  0  0  0  0  0  0  0  0  0  0  0
   -2.4747    2.6740   -7.2364 H   0  0  0  0  0  0  0  0  0  0  0  0
   -4.1642    0.8774   -6.8580 H   0  0  0  0  0  0  0  0  0  0  0  0
    0.1836    3.6463   -4.7642 H   0  0  0  0  0  0  0  0  0  0  0  0
   -1.1088    4.5373   -5.5681 H   0  0  0  0  0  0  0  0  0  0  0  0
    0.4324    2.2920   -7.0324 H   0  0  0  0  0  0  0  0  0  0  0  0
   -1.0058    5.8279   -7.2646 H   0  0  0  0  0  0  0  0  0  0  0  0
    0.1058    6.2755   -8.5583 H   0  0  0  0  0  0  0  0  0  0  0  0
    0.6843    6.2038   -6.8900 H   0  0  0  0  0  0  0  0  0  0  0  0
    1.4239    2.8900   -9.1071 H   0  0  0  0  0  0  0  0  0  0  0  0
    2.0151    4.5538   -9.1793 H   0  0  0  0  0  0  0  0  0  0  0  0
    0.4667    4.1274   -9.9279 H   0  0  0  0  0  0  0  0  0  0  0  0
    1.0487    0.1704   -2.1480 H   0  0  0  0  0  0  0  0  0  0  0  0
  1  2  2  0  0  0  0
  1  8  1  0  0  0  0
  3  1  1  0  0  0  0
  4  3  2  0  0  0  0
  4  5  1  0  0  0  0
  5  6  2  0  0  0  0
  5  7  1  0  0  0  0
  7  8  2  0  0  0  0
  7 24  1  0  0  0  0
  8  9  1  0  0  0  0
  9 10  2  0  0  0  0
  9 18  1  0  0  0  0
 10 11  1  0  0  0  0
 11 13  1  0  0  0  0
 11 12  1  0  0  0  0
 13 14  2  0  0  0  0
 14 15  1  0  0  0  0
 14 42  1  0  0  0  0
 15 43  1  0  0  0  0
 16 19  1  0  0  0  0
 16 15  2  0  0  0  0
 17 16  1  0  0  0  0
 18 17  2  0  0  0  0
 18 13  1  0  0  0  0
 19 46  1  0  0  0  0
 19 20  1  0  0  0  0
 20 47  1  0  0  0  0
 21 20  2  0  0  0  0
 21 23  1  0  0  0  0
 22 49  1  0  0  0  0
 22 21  1  0  0  0  0
 23 52  1  0  0  0  0
 23 51  1  0  0  0  0
 25  4  1  0  0  0  0
 26 25  2  0  0  0  0
 26 55  1  0  0  0  0
 27 26  1  0  0  0  0
 28 27  1  0  0  0  0
 29 27  1  0  0  0  0
 29 30  2  0  0  0  0
 30 25  1  0  0  0  0
 31 30  1  0  0  0  0
 31 56  1  0  0  0  0
 32 31  2  0  0  0  0
 33 34  2  0  0  0  0
 33 32  1  0  0  0  0
 34 29  1  0  0  0  0
 35 60  1  0  0  0  0
 35 32  1  0  0  0  0
 35 59  1  0  0  0  0
 36 35  1  0  0  0  0
 37 38  1  0  0  0  0
 37 36  2  0  0  0  0
 38 62  1  0  0  0  0
 38 64  1  0  0  0  0
 39 37  1  0  0  0  0
 40 68  1  0  0  0  0
 40  3  1  0  0  0  0
 41 10  1  0  0  0  0
 44 17  1  0  0  0  0
 45 19  1  0  0  0  0
 48 22  1  0  0  0  0
 50 22  1  0  0  0  0
 53 23  1  0  0  0  0
 54 24  1  0  0  0  0
 57 33  1  0  0  0  0
 58 34  1  0  0  0  0
 61 36  1  0  0  0  0
 63 38  1  0  0  0  0
 65 39  1  0  0  0  0
 66 39  1  0  0  0  0
 67 39  1  0  0  0  0
M  END
$$$$
