rmsd194.gzmat
 OpenBabel08211713383D

 68 72  0  0  0  0  0  0  0  0999 V2000
    0.0000    0.0000    0.0000 C   0  0  0  0  0  0  0  0  0  0  0  0
    1.2101    0.0000    0.0000 O   0  0  0  0  0  0  0  0  0  0  0  0
   -0.7020    0.0000   -1.3355 C   0  0  0  0  0  0  0  0  0  0  0  0
   -2.0430    0.1339   -1.4807 C   0  0  0  0  0  0  0  0  0  0  0  0
   -2.8604    0.3327   -0.2804 C   0  0  0  0  0  0  0  0  0  0  0  0
   -4.0378    0.6136   -0.2814 O   0  0  0  0  0  0  0  0  0  0  0  0
   -2.1760    0.1873    1.0557 C   0  0  0  0  0  0  0  0  0  0  0  0
   -0.8403    0.0131    1.2019 C   0  0  0  0  0  0  0  0  0  0  0  0
   -0.1813   -0.1421    2.4684 C   0  0  0  0  0  0  0  0  0  0  0  0
    1.0506    0.4072    2.8162 C   0  0  0  0  0  0  0  0  0  0  0  0
    1.3670    0.0605    4.1254 N   0  0  0  0  0  0  0  0  0  0  0  0
    2.1932    0.3114    4.6137 H   0  0  0  0  0  0  0  0  0  0  0  0
    0.3365   -0.7378    4.6334 C   0  0  0  0  0  0  0  0  0  0  0  0
    0.1974   -1.3323    5.8929 C   0  0  0  0  0  0  0  0  0  0  0  0
   -0.9391   -2.0861    6.1144 C   0  0  0  0  0  0  0  0  0  0  0  0
   -1.9184   -2.2592    5.1096 C   0  0  0  0  0  0  0  0  0  0  0  0
   -1.7797   -1.6715    3.8631 C   0  0  0  0  0  0  0  0  0  0  0  0
   -0.6517   -0.8862    3.6098 C   0  0  0  0  0  0  0  0  0  0  0  0
   -3.1238   -3.1049    5.4082 C   0  0  0  0  0  0  0  0  0  0  0  0
   -2.7606   -4.5548    5.3448 C   0  0  0  0  0  0  0  0  0  0  0  0
   -3.4215   -5.4803    4.6379 C   0  0  0  0  0  0  0  0  0  0  0  0
   -4.6240   -5.1843    3.8033 C   0  0  0  0  0  0  0  0  0  0  0  0
   -2.9795   -6.9085    4.6347 C   0  0  0  0  0  0  0  0  0  0  0  0
   -2.9695    0.2550    2.1354 O   0  0  0  0  0  0  0  0  0  0  0  0
   -2.7251    0.1090   -2.7444 C   0  0  0  0  0  0  0  0  0  0  0  0
   -3.8116    0.9056   -3.0980 C   0  0  0  0  0  0  0  0  0  0  0  0
   -4.2070    0.6122   -4.3991 N   0  0  0  0  0  0  0  0  0  0  0  0
   -4.9604    1.0312   -4.8899 H   0  0  0  0  0  0  0  0  0  0  0  0
   -3.3785   -0.3995   -4.8961 C   0  0  0  0  0  0  0  0  0  0  0  0
   -2.4360   -0.7390   -3.8741 C   0  0  0  0  0  0  0  0  0  0  0  0
   -1.5094   -1.7549   -4.1185 C   0  0  0  0  0  0  0  0  0  0  0  0
   -1.5179   -2.3868   -5.3524 C   0  0  0  0  0  0  0  0  0  0  0  0
   -2.4441   -2.0244   -6.3550 C   0  0  0  0  0  0  0  0  0  0  0  0
   -3.3865   -1.0351   -6.1424 C   0  0  0  0  0  0  0  0  0  0  0  0
   -0.5177   -3.4723   -5.6289 C   0  0  0  0  0  0  0  0  0  0  0  0
    0.8316   -2.8922   -5.9153 C   0  0  0  0  0  0  0  0  0  0  0  0
    1.9777   -3.5832   -5.8747 C   0  0  0  0  0  0  0  0  0  0  0  0
    2.0778   -5.0339   -5.5374 C   0  0  0  0  0  0  0  0  0  0  0  0
    3.2876   -2.9246   -6.1707 C   0  0  0  0  0  0  0  0  0  0  0  0
    0.0823   -0.1270   -2.4153 O   0  0  0  0  0  0  0  0  0  0  0  0
    1.7128    1.0091    2.2175 H   0  0  0  0  0  0  0  0  0  0  0  0
    0.9520   -1.2035    6.6602 H   0  0  0  0  0  0  0  0  0  0  0  0
   -1.0909   -2.5664    7.0799 H   0  0  0  0  0  0  0  0  0  0  0  0
   -2.5272   -1.8143    3.0860 H   0  0  0  0  0  0  0  0  0  0  0  0
   -3.9518   -2.8580    4.7123 H   0  0  0  0  0  0  0  0  0  0  0  0
   -3.5223   -2.8661    6.4197 H   0  0  0  0  0  0  0  0  0  0  0  0
   -1.8820   -4.8172    5.9322 H   0  0  0  0  0  0  0  0  0  0  0  0
   -4.3644   -4.5243    2.9617 H   0  0  0  0  0  0  0  0  0  0  0  0
   -5.4089   -4.6838    4.3875 H   0  0  0  0  0  0  0  0  0  0  0  0
   -5.0747   -6.0881    3.3740 H   0  0  0  0  0  0  0  0  0  0  0  0
   -2.0710   -7.0743    5.2281 H   0  0  0  0  0  0  0  0  0  0  0  0
   -2.7638   -7.2522    3.6131 H   0  0  0  0  0  0  0  0  0  0  0  0
   -3.7588   -7.5654    5.0449 H   0  0  0  0  0  0  0  0  0  0  0  0
   -3.9203    0.4482    1.8639 H   0  0  0  0  0  0  0  0  0  0  0  0
   -4.3247    1.6470   -2.5093 H   0  0  0  0  0  0  0  0  0  0  0  0
   -0.7925   -2.0390   -3.3504 H   0  0  0  0  0  0  0  0  0  0  0  0
   -2.4092   -2.5389   -7.3141 H   0  0  0  0  0  0  0  0  0  0  0  0
   -4.1048   -0.7614   -6.9064 H   0  0  0  0  0  0  0  0  0  0  0  0
   -0.8398   -4.1034   -6.4862 H   0  0  0  0  0  0  0  0  0  0  0  0
   -0.4708   -4.1664   -4.7603 H   0  0  0  0  0  0  0  0  0  0  0  0
    0.8225   -1.8331   -6.1718 H   0  0  0  0  0  0  0  0  0  0  0  0
    1.1020   -5.5324   -5.4841 H   0  0  0  0  0  0  0  0  0  0  0  0
    2.5685   -5.1762   -4.5636 H   0  0  0  0  0  0  0  0  0  0  0  0
    2.6721   -5.5787   -6.2837 H   0  0  0  0  0  0  0  0  0  0  0  0
    3.1908   -1.8445   -6.3413 H   0  0  0  0  0  0  0  0  0  0  0  0
    3.7511   -3.3532   -7.0699 H   0  0  0  0  0  0  0  0  0  0  0  0
    3.9967   -3.0585   -5.3422 H   0  0  0  0  0  0  0  0  0  0  0  0
    1.0529   -0.1752   -2.1465 H   0  0  0  0  0  0  0  0  0  0  0  0
  1  2  2  0  0  0  0
  1  8  1  0  0  0  0
  3  1  1  0  0  0  0
  4  3  2  0  0  0  0
  4  5  1  0  0  0  0
  5  7  1  0  0  0  0
  6  5  2  0  0  0  0
  7  8  2  0  0  0  0
  7 24  1  0  0  0  0
  8  9  1  0  0  0  0
  9 10  2  0  0  0  0
  9 18  1  0  0  0  0
 10 11  1  0  0  0  0
 11 12  1  0  0  0  0
 11 13  1  0  0  0  0
 13 14  2  0  0  0  0
 14 15  1  0  0  0  0
 14 42  1  0  0  0  0
 15 43  1  0  0  0  0
 16 19  1  0  0  0  0
 16 15  2  0  0  0  0
 17 16  1  0  0  0  0
 18 17  2  0  0  0  0
 18 13  1  0  0  0  0
 19 46  1  0  0  0  0
 20 19  1  0  0  0  0
 20 47  1  0  0  0  0
 21 20  2  0  0  0  0
 22 49  1  0  0  0  0
 22 21  1  0  0  0  0
 23 21  1  0  0  0  0
 23 53  1  0  0  0  0
 23 51  1  0  0  0  0
 25  4  1  0  0  0  0
 26 25  2  0  0  0  0
 26 55  1  0  0  0  0
 27 26  1  0  0  0  0
 28 27  1  0  0  0  0
 29 27  1  0  0  0  0
 29 30  2  0  0  0  0
 30 25  1  0  0  0  0
 31 30  1  0  0  0  0
 31 56  1  0  0  0  0
 32 31  2  0  0  0  0
 33 34  2  0  0  0  0
 33 32  1  0  0  0  0
 34 29  1  0  0  0  0
 35 32  1  0  0  0  0
 35 60  1  0  0  0  0
 36 37  2  0  0  0  0
 36 35  1  0  0  0  0
 37 38  1  0  0  0  0
 38 62  1  0  0  0  0
 38 63  1  0  0  0  0
 39 37  1  0  0  0  0
 39 67  1  0  0  0  0
 40 68  1  0  0  0  0
 40  3  1  0  0  0  0
 41 10  1  0  0  0  0
 44 17  1  0  0  0  0
 45 19  1  0  0  0  0
 48 22  1  0  0  0  0
 50 22  1  0  0  0  0
 52 23  1  0  0  0  0
 54 24  1  0  0  0  0
 57 33  1  0  0  0  0
 58 34  1  0  0  0  0
 59 35  1  0  0  0  0
 61 36  1  0  0  0  0
 64 38  1  0  0  0  0
 65 39  1  0  0  0  0
 66 39  1  0  0  0  0
M  END
$$$$
