rmsd210.gzmat
 OpenBabel08211713383D

 68 72  0  0  0  0  0  0  0  0999 V2000
    0.0000    0.0000    0.0000 C   0  0  0  0  0  0  0  0  0  0  0  0
    1.2098    0.0000    0.0000 O   0  0  0  0  0  0  0  0  0  0  0  0
   -0.7070    0.0000   -1.3325 C   0  0  0  0  0  0  0  0  0  0  0  0
   -2.0444    0.1669   -1.4729 C   0  0  0  0  0  0  0  0  0  0  0  0
   -2.8475    0.4254   -0.2734 C   0  0  0  0  0  0  0  0  0  0  0  0
   -4.0018    0.7867   -0.2739 O   0  0  0  0  0  0  0  0  0  0  0  0
   -2.1710    0.2252    1.0598 C   0  0  0  0  0  0  0  0  0  0  0  0
   -0.8424   -0.0010    1.1994 C   0  0  0  0  0  0  0  0  0  0  0  0
   -0.2028   -0.2451    2.4616 C   0  0  0  0  0  0  0  0  0  0  0  0
    1.0221    0.2675    2.8788 C   0  0  0  0  0  0  0  0  0  0  0  0
    1.3093   -0.1891    4.1618 N   0  0  0  0  0  0  0  0  0  0  0  0
    2.1244    0.0184    4.6879 H   0  0  0  0  0  0  0  0  0  0  0  0
    0.2670   -1.0239    4.5786 C   0  0  0  0  0  0  0  0  0  0  0  0
    0.1003   -1.7279    5.7770 C   0  0  0  0  0  0  0  0  0  0  0  0
   -1.0374   -2.5021    5.9028 C   0  0  0  0  0  0  0  0  0  0  0  0
   -1.9930   -2.5857    4.8647 C   0  0  0  0  0  0  0  0  0  0  0  0
   -1.8336   -1.8809    3.6831 C   0  0  0  0  0  0  0  0  0  0  0  0
   -0.6993   -1.0804    3.5258 C   0  0  0  0  0  0  0  0  0  0  0  0
   -3.2066   -3.4457    5.0647 C   0  0  0  0  0  0  0  0  0  0  0  0
   -4.2895   -2.6877    5.7649 C   0  0  0  0  0  0  0  0  0  0  0  0
   -5.4356   -3.2464    6.1756 C   0  0  0  0  0  0  0  0  0  0  0  0
   -5.7485   -4.6938    5.9842 C   0  0  0  0  0  0  0  0  0  0  0  0
   -6.4875   -2.4448    6.8696 C   0  0  0  0  0  0  0  0  0  0  0  0
   -2.9580    0.2876    2.1433 O   0  0  0  0  0  0  0  0  0  0  0  0
   -2.7367    0.1110   -2.7295 C   0  0  0  0  0  0  0  0  0  0  0  0
   -3.7945    0.9284   -3.1202 C   0  0  0  0  0  0  0  0  0  0  0  0
   -4.2164    0.5726   -4.3967 N   0  0  0  0  0  0  0  0  0  0  0  0
   -4.9589    0.9896   -4.9051 H   0  0  0  0  0  0  0  0  0  0  0  0
   -3.4358   -0.5016   -4.8379 C   0  0  0  0  0  0  0  0  0  0  0  0
   -2.4938   -0.8129   -3.8085 C   0  0  0  0  0  0  0  0  0  0  0  0
   -1.6081   -1.8776   -3.9953 C   0  0  0  0  0  0  0  0  0  0  0  0
   -1.6654   -2.5944   -5.1789 C   0  0  0  0  0  0  0  0  0  0  0  0
   -2.5946   -2.2616   -6.1921 C   0  0  0  0  0  0  0  0  0  0  0  0
   -3.4887   -1.2201   -6.0384 C   0  0  0  0  0  0  0  0  0  0  0  0
   -0.7397   -3.7574   -5.3981 C   0  0  0  0  0  0  0  0  0  0  0  0
   -1.5176   -5.0220   -5.5948 C   0  0  0  0  0  0  0  0  0  0  0  0
   -2.1854   -5.6505   -4.6172 C   0  0  0  0  0  0  0  0  0  0  0  0
   -2.2320   -5.1545   -3.2111 C   0  0  0  0  0  0  0  0  0  0  0  0
   -2.9476   -6.9079   -4.8828 C   0  0  0  0  0  0  0  0  0  0  0  0
    0.0674   -0.1739   -2.4139 O   0  0  0  0  0  0  0  0  0  0  0  0
    1.6991    0.9123    2.3452 H   0  0  0  0  0  0  0  0  0  0  0  0
    0.8358   -1.6660    6.5706 H   0  0  0  0  0  0  0  0  0  0  0  0
   -1.2128   -3.0624    6.8203 H   0  0  0  0  0  0  0  0  0  0  0  0
   -2.5726   -1.9384    2.8868 H   0  0  0  0  0  0  0  0  0  0  0  0
   -2.9427   -4.3610    5.6391 H   0  0  0  0  0  0  0  0  0  0  0  0
   -3.5832   -3.8227    4.0874 H   0  0  0  0  0  0  0  0  0  0  0  0
   -4.0853   -1.6300    5.9204 H   0  0  0  0  0  0  0  0  0  0  0  0
   -5.1510   -5.3168    6.6658 H   0  0  0  0  0  0  0  0  0  0  0  0
   -5.5279   -5.0268    4.9602 H   0  0  0  0  0  0  0  0  0  0  0  0
   -6.8034   -4.9267    6.1743 H   0  0  0  0  0  0  0  0  0  0  0  0
   -6.1651   -1.4174    7.0853 H   0  0  0  0  0  0  0  0  0  0  0  0
   -6.7699   -2.9017    7.8283 H   0  0  0  0  0  0  0  0  0  0  0  0
   -7.3982   -2.3760    6.2577 H   0  0  0  0  0  0  0  0  0  0  0  0
   -3.9030    0.5210    1.8835 H   0  0  0  0  0  0  0  0  0  0  0  0
   -4.2698    1.7235   -2.5712 H   0  0  0  0  0  0  0  0  0  0  0  0
   -0.8923   -2.1291   -3.2159 H   0  0  0  0  0  0  0  0  0  0  0  0
   -2.6030   -2.8555   -7.1054 H   0  0  0  0  0  0  0  0  0  0  0  0
   -4.2061   -0.9686   -6.8112 H   0  0  0  0  0  0  0  0  0  0  0  0
   -0.0355   -3.8733   -4.5455 H   0  0  0  0  0  0  0  0  0  0  0  0
   -0.0902   -3.5542   -6.2769 H   0  0  0  0  0  0  0  0  0  0  0  0
   -1.5130   -5.4044   -6.6111 H   0  0  0  0  0  0  0  0  0  0  0  0
   -1.2224   -5.0330   -2.7933 H   0  0  0  0  0  0  0  0  0  0  0  0
   -2.7871   -5.8179   -2.5385 H   0  0  0  0  0  0  0  0  0  0  0  0
   -2.7166   -4.1634   -3.1640 H   0  0  0  0  0  0  0  0  0  0  0  0
   -2.9105   -7.2143   -5.9358 H   0  0  0  0  0  0  0  0  0  0  0  0
   -4.0085   -6.7905   -4.6181 H   0  0  0  0  0  0  0  0  0  0  0  0
   -2.5510   -7.7425   -4.2873 H   0  0  0  0  0  0  0  0  0  0  0  0
    1.0388   -0.2160   -2.1507 H   0  0  0  0  0  0  0  0  0  0  0  0
  1  2  2  0  0  0  0
  1  8  1  0  0  0  0
  3  1  1  0  0  0  0
  4  3  2  0  0  0  0
  4  5  1  0  0  0  0
  5  7  1  0  0  0  0
  6  5  2  0  0  0  0
  7  8  2  0  0  0  0
  7 24  1  0  0  0  0
  8  9  1  0  0  0  0
  9 10  2  0  0  0  0
  9 18  1  0  0  0  0
 10 11  1  0  0  0  0
 11 13  1  0  0  0  0
 11 12  1  0  0  0  0
 13 14  2  0  0  0  0
 14 15  1  0  0  0  0
 14 42  1  0  0  0  0
 15 43  1  0  0  0  0
 16 19  1  0  0  0  0
 16 15  2  0  0  0  0
 17 16  1  0  0  0  0
 18 17  2  0  0  0  0
 18 13  1  0  0  0  0
 19 45  1  0  0  0  0
 19 20  1  0  0  0  0
 20 47  1  0  0  0  0
 20 21  2  0  0  0  0
 21 23  1  0  0  0  0
 22 50  1  0  0  0  0
 22 21  1  0  0  0  0
 22 48  1  0  0  0  0
 23 51  1  0  0  0  0
 23 52  1  0  0  0  0
 25  4  1  0  0  0  0
 26 25  2  0  0  0  0
 26 55  1  0  0  0  0
 27 26  1  0  0  0  0
 28 27  1  0  0  0  0
 29 27  1  0  0  0  0
 29 30  2  0  0  0  0
 30 25  1  0  0  0  0
 31 30  1  0  0  0  0
 31 56  1  0  0  0  0
 32 31  2  0  0  0  0
 33 34  2  0  0  0  0
 33 32  1  0  0  0  0
 34 29  1  0  0  0  0
 35 32  1  0  0  0  0
 35 59  1  0  0  0  0
 36 35  1  0  0  0  0
 36 37  2  0  0  0  0
 37 38  1  0  0  0  0
 38 64  1  0  0  0  0
 38 62  1  0  0  0  0
 38 63  1  0  0  0  0
 39 66  1  0  0  0  0
 39 37  1  0  0  0  0
 39 67  1  0  0  0  0
 40 68  1  0  0  0  0
 40  3  1  0  0  0  0
 41 10  1  0  0  0  0
 44 17  1  0  0  0  0
 46 19  1  0  0  0  0
 49 22  1  0  0  0  0
 53 23  1  0  0  0  0
 54 24  1  0  0  0  0
 57 33  1  0  0  0  0
 58 34  1  0  0  0  0
 60 35  1  0  0  0  0
 61 36  1  0  0  0  0
 65 39  1  0  0  0  0
M  END
$$$$
