
     RDKit          3D

 68 72  0  0  0  0  0  0  0  0999 V2000
   -0.3845    1.0908    0.0076 C   0  0  0  0  0  0  0  0  0  0  0  0
    0.7246    1.5615   -0.2501 O   0  0  0  0  0  0  0  0  0  0  0  0
   -1.1959    0.6813   -1.1994 C   0  0  0  0  0  0  0  0  0  0  0  0
   -2.4718    0.1871   -1.1325 C   0  0  0  0  0  0  0  0  0  0  0  0
   -2.9474   -0.1093    0.2186 C   0  0  0  0  0  0  0  0  0  0  0  0
   -4.0187   -0.6608    0.4760 O   0  0  0  0  0  0  0  0  0  0  0  0
   -2.1093    0.2432    1.4254 C   0  0  0  0  0  0  0  0  0  0  0  0
   -0.9126    0.9067    1.3591 C   0  0  0  0  0  0  0  0  0  0  0  0
   -0.1651    1.4019    2.5124 C   0  0  0  0  0  0  0  0  0  0  0  0
    1.2148    1.5033    2.6165 C   0  0  0  0  0  0  0  0  0  0  0  0
    1.5520    2.0377    3.8347 N   0  0  0  0  0  0  0  0  0  0  0  0
    2.4970    2.2142    4.1467 H   0  0  0  0  0  0  0  0  0  0  0  0
    0.4055    2.3260    4.5522 C   0  0  0  0  0  0  0  0  0  0  0  0
    0.2340    2.9004    5.8173 C   0  0  0  0  0  0  0  0  0  0  0  0
   -1.0687    3.0981    6.2688 C   0  0  0  0  0  0  0  0  0  0  0  0
   -2.1923    2.7491    5.4822 C   0  0  0  0  0  0  0  0  0  0  0  0
   -1.9993    2.1778    4.2266 C   0  0  0  0  0  0  0  0  0  0  0  0
   -0.7017    1.9422    3.7481 C   0  0  0  0  0  0  0  0  0  0  0  0
   -3.6073    3.0189    5.9866 C   0  0  0  0  0  0  0  0  0  0  0  0
   -4.6157    2.0216    5.4809 C   0  0  0  0  0  0  0  0  0  0  0  0
   -5.3639    2.1220    4.3685 C   0  0  0  0  0  0  0  0  0  0  0  0
   -5.3591    3.3181    3.4526 C   0  0  0  0  0  0  0  0  0  0  0  0
   -6.2376    0.9835    3.9089 C   0  0  0  0  0  0  0  0  0  0  0  0
   -2.6855   -0.1437    2.5567 O   0  0  0  0  0  0  0  0  0  0  0  0
   -3.3345   -0.0620   -2.2847 C   0  0  0  0  0  0  0  0  0  0  0  0
   -4.2964   -1.0562   -2.3926 C   0  0  0  0  0  0  0  0  0  0  0  0
   -4.9265   -0.9648   -3.6083 N   0  0  0  0  0  0  0  0  0  0  0  0
   -5.6681   -1.5755   -3.9222 H   0  0  0  0  0  0  0  0  0  0  0  0
   -4.4159    0.1053   -4.3202 C   0  0  0  0  0  0  0  0  0  0  0  0
   -3.4097    0.7046   -3.5150 C   0  0  0  0  0  0  0  0  0  0  0  0
   -2.7614    1.8554   -3.9877 C   0  0  0  0  0  0  0  0  0  0  0  0
   -3.0803    2.3778   -5.2389 C   0  0  0  0  0  0  0  0  0  0  0  0
   -4.0700    1.7434   -6.0269 C   0  0  0  0  0  0  0  0  0  0  0  0
   -4.7511    0.6132   -5.5808 C   0  0  0  0  0  0  0  0  0  0  0  0
   -2.3828    3.6407   -5.7369 C   0  0  0  0  0  0  0  0  0  0  0  0
   -0.9684    3.7709   -5.2372 C   0  0  0  0  0  0  0  0  0  0  0  0
   -0.5596    4.4028   -4.1232 C   0  0  0  0  0  0  0  0  0  0  0  0
   -1.4750    5.1618   -3.1983 C   0  0  0  0  0  0  0  0  0  0  0  0
    0.8766    4.3395   -3.6714 C   0  0  0  0  0  0  0  0  0  0  0  0
   -0.5332    0.8831   -2.3315 O   0  0  0  0  0  0  0  0  0  0  0  0
    1.9741    1.2338    1.8890 H   0  0  0  0  0  0  0  0  0  0  0  0
    1.0908    3.1849    6.4328 H   0  0  0  0  0  0  0  0  0  0  0  0
   -1.2283    3.5390    7.2567 H   0  0  0  0  0  0  0  0  0  0  0  0
   -2.8600    1.8907    3.6318 H   0  0  0  0  0  0  0  0  0  0  0  0
   -3.8991    4.0436    5.6978 H   0  0  0  0  0  0  0  0  0  0  0  0
   -3.5981    3.0114    7.0888 H   0  0  0  0  0  0  0  0  0  0  0  0
   -4.6676    1.0816    6.0428 H   0  0  0  0  0  0  0  0  0  0  0  0
   -6.3795    3.7212    3.3275 H   0  0  0  0  0  0  0  0  0  0  0  0
   -5.0159    3.0267    2.4438 H   0  0  0  0  0  0  0  0  0  0  0  0
   -4.7086    4.1300    3.8027 H   0  0  0  0  0  0  0  0  0  0  0  0
   -6.2259    0.1427    4.6179 H   0  0  0  0  0  0  0  0  0  0  0  0
   -5.8974    0.6099    2.9252 H   0  0  0  0  0  0  0  0  0  0  0  0
   -7.2844    1.3070    3.7709 H   0  0  0  0  0  0  0  0  0  0  0  0
   -3.5308   -0.5631    2.2674 H   0  0  0  0  0  0  0  0  0  0  0  0
   -4.5733   -1.8170   -1.6694 H   0  0  0  0  0  0  0  0  0  0  0  0
   -1.9881    2.3288   -3.3918 H   0  0  0  0  0  0  0  0  0  0  0  0
   -4.3095    2.1549   -7.0114 H   0  0  0  0  0  0  0  0  0  0  0  0
   -5.5201    0.1414   -6.1973 H   0  0  0  0  0  0  0  0  0  0  0  0
   -2.9804    4.5193   -5.4381 H   0  0  0  0  0  0  0  0  0  0  0  0
   -2.3884    3.6375   -6.8391 H   0  0  0  0  0  0  0  0  0  0  0  0
   -0.2171    3.2105   -5.8060 H   0  0  0  0  0  0  0  0  0  0  0  0
   -2.5173    5.1848   -3.5419 H   0  0  0  0  0  0  0  0  0  0  0  0
   -1.1294    6.2026   -3.0704 H   0  0  0  0  0  0  0  0  0  0  0  0
   -1.4653    4.7069   -2.1916 H   0  0  0  0  0  0  0  0  0  0  0  0
    1.5101    3.7947   -4.3866 H   0  0  0  0  0  0  0  0  0  0  0  0
    0.9498    3.8336   -2.6907 H   0  0  0  0  0  0  0  0  0  0  0  0
    1.3011    5.3491   -3.5303 H   0  0  0  0  0  0  0  0  0  0  0  0
    0.3314    1.2614   -2.0425 H   0  0  0  0  0  0  0  0  0  0  0  0
  1  2  2  0
  1  3  1  0
  1  8  1  0
  3  4  2  0
  3 40  1  0
  4  5  1  0
  4 25  1  0
  5  6  2  0
  5  7  1  0
  7  8  2  0
  7 24  1  0
  8  9  1  0
  9 10  2  0
  9 18  1  0
 10 11  1  0
 10 41  1  0
 11 12  1  0
 11 13  1  0
 13 14  1  0
 13 18  2  0
 14 15  2  0
 14 42  1  0
 15 16  1  0
 15 43  1  0
 16 17  2  0
 16 19  1  0
 17 18  1  0
 17 44  1  0
 19 20  1  0
 19 45  1  0
 19 46  1  0
 20 21  2  3
 20 47  1  0
 21 22  1  0
 21 23  1  0
 22 48  1  0
 22 49  1  0
 22 50  1  0
 23 51  1  0
 23 52  1  0
 23 53  1  0
 24 54  1  0
 25 26  2  0
 25 30  1  0
 26 27  1  0
 26 55  1  0
 27 28  1  0
 27 29  1  0
 29 30  2  0
 29 34  1  0
 30 31  1  0
 31 32  2  0
 31 56  1  0
 32 33  1  0
 32 35  1  0
 33 34  2  0
 33 57  1  0
 34 58  1  0
 35 36  1  0
 35 59  1  0
 35 60  1  0
 36 37  2  3
 36 61  1  0
 37 38  1  0
 37 39  1  0
 38 62  1  0
 38 63  1  0
 38 64  1  0
 39 65  1  0
 39 66  1  0
 39 67  1  0
 40 68  1  0
M  END

