68

C         -0.47040       -1.23380       -0.39230
O          0.64140       -1.76270       -0.43870
C         -1.02090       -0.80760       -1.73300
C         -2.24850       -0.22810       -1.90750
C         -2.94710        0.11900       -0.67040
O         -3.99840        0.75790       -0.62010
C         -2.38640       -0.28710        0.67350
C         -1.22500       -0.99230        0.83890
C         -0.70060       -1.46260        2.11970
C          0.64690       -1.58090        2.43190
N          0.78980       -2.06020        3.70710
H          1.67370       -2.24050        4.16280
C         -0.45440       -2.29450        4.25940
C         -0.80370       -2.81080        5.51280
C         -2.15510       -2.97620        5.78850
C         -3.15290       -2.65170        4.83770
C         -2.78800       -2.13110        3.59780
C         -1.42860       -1.93120        3.28790
C         -4.61440       -2.87360        5.18960
C         -5.03720       -2.10280        6.41080
C         -5.43830       -2.58500        7.60010
C         -5.56090       -4.04890        7.93530
C         -5.80610       -1.65410        8.72760
O         -3.15550        0.12710        1.67320
C         -2.85070        0.07870       -3.20210
C         -3.67700        1.15630       -3.48540
N         -4.06010        1.11600       -4.80210
H         -4.66740        1.78910       -5.24870
C         -3.51730        0.00030       -5.41270
C         -2.74980       -0.68650       -4.43170
C         -2.14100       -1.90220       -4.77950
C         -2.25210       -2.39490       -6.07860
C         -3.00610       -1.67640       -7.03570
C         -3.65000       -0.48280       -6.71880
C         -1.52310       -3.67480       -6.46980
C         -1.57270       -4.75170       -5.41870
C         -0.65110       -5.01320       -4.47520
C          0.63760       -4.24940       -4.31050
C         -0.86350       -6.10830       -3.46180
O         -0.17610       -1.07670       -2.72180
H          1.50990       -1.35850        1.81260
H         -0.04050       -3.07840        6.24760
H         -2.46280       -3.36400        6.76260
H         -3.55860       -1.87120        2.87360
H         -4.79900       -3.95090        5.32660
H         -5.23190       -2.56220        4.33000
H         -4.97230       -1.01330        6.30180
H         -4.93420       -4.29830        8.81000
H         -5.26760       -4.71180        7.11090
H         -6.59900       -4.29810        8.21850
H         -5.70170       -0.59780        8.44010
H         -5.16980       -1.83470        9.61260
H         -6.84780       -1.82110        9.05560
H         -3.89680        0.59910        1.22210
H         -4.01820        1.94500       -2.82190
H         -1.58020       -2.46440       -4.03840
H         -3.09110       -2.07410       -8.05070
H         -4.24600        0.04960       -7.46400
H         -0.47540       -3.42400       -6.70940
H         -1.95980       -4.05920       -7.40590
H         -2.49180       -5.34950       -5.40620
H          0.76430       -3.44570       -5.04730
H          1.50790       -4.92570       -4.37830
H          0.67820       -3.79080       -3.30670
H         -1.81650       -6.63460       -3.61740
H         -0.85840       -5.70080       -2.43500
H         -0.04730       -6.85160       -3.50450
H          0.59960       -1.48580       -2.26800
