68

C          0.19860        0.17370        0.49620
O          1.42330        0.30000        0.48820
C         -0.44130        0.12790       -0.87250
C         -1.78570       -0.01340       -1.08640
C         -2.57850       -0.24900        0.12110
O         -3.78570       -0.49650        0.12630
C         -1.93480       -0.22630        1.48830
C         -0.61320        0.05400        1.70860
C          0.00960        0.20460        3.02160
C          1.31700       -0.13170        3.34570
N          1.56250        0.16910        4.66080
H          2.44400        0.02210        5.13270
C          0.43530        0.73270        5.22910
C          0.21190        1.22900        6.51960
C         -1.03570        1.77860        6.79400
C         -2.05450        1.85110        5.81170
C         -1.80980        1.35870        4.53310
C         -0.56860        0.77580        4.22500
C         -3.41160        2.44130        6.18940
C         -4.39170        2.55720        5.05150
C         -5.12990        1.55490        4.54350
C         -5.10100        0.14960        5.08460
C         -5.99440        1.75430        3.32630
O         -2.81400       -0.49930        2.44610
C         -2.43850        0.01660       -2.39380
C         -3.57300       -0.70820       -2.73310
N         -3.92690       -0.44080       -4.02900
H         -4.72350       -0.83970       -4.50620
C         -3.05430        0.48350       -4.56960
C         -2.09540        0.80290       -3.56790
C         -1.11940        1.77460       -3.86290
C         -1.09430        2.38170       -5.11680
C         -2.04970        2.01790       -6.09660
C         -3.03890        1.07770       -5.83690
C         -0.04770        3.43040       -5.45370
C          0.80330        3.03800       -6.63100
C          0.88360        3.63360       -7.83380
C          0.11700        4.86770       -8.23290
C          1.78270        3.08210       -8.91110
O          0.45940        0.24000       -1.84120
H          2.08680       -0.56020        2.71160
H          0.99090        1.19160        7.28490
H         -1.23680        2.16870        7.79590
H         -2.58890        1.41430        3.77940
H         -3.25030        3.43650        6.63700
H         -3.83830        1.82280        6.99900
H         -4.44830        3.53320        4.55580
H         -4.57710        0.07130        6.04630
H         -4.57880       -0.51860        4.37860
H         -6.12330       -0.24630        5.21010
H         -5.99350        2.80040        2.98640
H         -7.03860        1.45090        3.51820
H         -5.63530        1.12660        2.48980
H         -3.65960       -0.64410        1.95590
H         -4.15120       -1.39180       -2.11980
H         -0.37580        2.04800       -3.11590
H         -2.00070        2.49070       -7.08040
H         -3.78090        0.81470       -6.59470
H          0.59700        3.57710       -4.57050
H         -0.54280        4.39720       -5.63690
H          1.40090        2.13170       -6.47370
H          0.80850        5.68370       -8.50840
H         -0.54940        5.24180       -7.44480
H         -0.49690        4.66780       -9.12910
H          2.32160        2.18340       -8.57750
H          2.52810        3.83350       -9.22830
H          1.20270        2.82050       -9.81430
H          1.31750        0.32270       -1.35880
