rmsd145.gzmat
 OpenBabel08211713383D

 68 72  0  0  0  0  0  0  0  0999 V2000
    0.0000    0.0000    0.0000 C   0  0  0  0  0  0  0  0  0  0  0  0
    1.2095    0.0000    0.0000 O   0  0  0  0  0  0  0  0  0  0  0  0
   -0.7071    0.0000   -1.3321 C   0  0  0  0  0  0  0  0  0  0  0  0
   -2.0418    0.1876   -1.4702 C   0  0  0  0  0  0  0  0  0  0  0  0
   -2.8407    0.4587   -0.2716 C   0  0  0  0  0  0  0  0  0  0  0  0
   -3.9908    0.8345   -0.2728 O   0  0  0  0  0  0  0  0  0  0  0  0
   -2.1673    0.2484    1.0617 C   0  0  0  0  0  0  0  0  0  0  0  0
   -0.8427    0.0029    1.2010 C   0  0  0  0  0  0  0  0  0  0  0  0
   -0.1973   -0.2610    2.4558 C   0  0  0  0  0  0  0  0  0  0  0  0
    1.0492    0.2140    2.8562 C   0  0  0  0  0  0  0  0  0  0  0  0
    1.3463   -0.2633    4.1284 N   0  0  0  0  0  0  0  0  0  0  0  0
    2.1754   -0.0828    4.6421 H   0  0  0  0  0  0  0  0  0  0  0  0
    0.2880   -1.0726    4.5565 C   0  0  0  0  0  0  0  0  0  0  0  0
    0.1241   -1.7858    5.7501 C   0  0  0  0  0  0  0  0  0  0  0  0
   -1.0363   -2.5212    5.8930 C   0  0  0  0  0  0  0  0  0  0  0  0
   -2.0197   -2.5574    4.8767 C   0  0  0  0  0  0  0  0  0  0  0  0
   -1.8554   -1.8543    3.6950 C   0  0  0  0  0  0  0  0  0  0  0  0
   -0.6983   -1.0899    3.5224 C   0  0  0  0  0  0  0  0  0  0  0  0
   -3.2628   -3.3704    5.1024 C   0  0  0  0  0  0  0  0  0  0  0  0
   -3.9982   -2.8796    6.3109 C   0  0  0  0  0  0  0  0  0  0  0  0
   -4.6872   -1.7304    6.3518 C   0  0  0  0  0  0  0  0  0  0  0  0
   -4.8050   -0.8068    5.1860 C   0  0  0  0  0  0  0  0  0  0  0  0
   -5.3888   -1.2909    7.5957 C   0  0  0  0  0  0  0  0  0  0  0  0
   -2.9605    0.3200    2.1422 O   0  0  0  0  0  0  0  0  0  0  0  0
   -2.7331    0.1337   -2.7273 C   0  0  0  0  0  0  0  0  0  0  0  0
   -3.7648    0.9737   -3.1366 C   0  0  0  0  0  0  0  0  0  0  0  0
   -4.1872    0.6110   -4.4120 N   0  0  0  0  0  0  0  0  0  0  0  0
   -4.9139    1.0417   -4.9321 H   0  0  0  0  0  0  0  0  0  0  0  0
   -3.4341   -0.4909   -4.8319 C   0  0  0  0  0  0  0  0  0  0  0  0
   -2.5088   -0.8146   -3.7900 C   0  0  0  0  0  0  0  0  0  0  0  0
   -1.6544   -1.9066   -3.9540 C   0  0  0  0  0  0  0  0  0  0  0  0
   -1.7208   -2.6379   -5.1302 C   0  0  0  0  0  0  0  0  0  0  0  0
   -2.6330   -2.2957   -6.1527 C   0  0  0  0  0  0  0  0  0  0  0  0
   -3.4982   -1.2248   -6.0211 C   0  0  0  0  0  0  0  0  0  0  0  0
   -0.8089   -3.8167   -5.3153 C   0  0  0  0  0  0  0  0  0  0  0  0
   -1.0630   -4.8643   -4.2783 C   0  0  0  0  0  0  0  0  0  0  0  0
   -0.1799   -5.8102   -3.9333 C   0  0  0  0  0  0  0  0  0  0  0  0
    1.1796   -5.9233   -4.5408 C   0  0  0  0  0  0  0  0  0  0  0  0
   -0.5084   -6.8316   -2.8937 C   0  0  0  0  0  0  0  0  0  0  0  0
    0.0617   -0.1932   -2.4137 O   0  0  0  0  0  0  0  0  0  0  0  0
    1.7351    0.8448    2.3168 H   0  0  0  0  0  0  0  0  0  0  0  0
    0.8788   -1.7588    6.5278 H   0  0  0  0  0  0  0  0  0  0  0  0
   -1.2135   -3.0857    6.8076 H   0  0  0  0  0  0  0  0  0  0  0  0
   -2.6053   -1.8849    2.9077 H   0  0  0  0  0  0  0  0  0  0  0  0
   -2.9898   -4.4418    5.2163 H   0  0  0  0  0  0  0  0  0  0  0  0
   -3.9277   -3.3390    4.2120 H   0  0  0  0  0  0  0  0  0  0  0  0
   -3.9261   -3.5272    7.1796 H   0  0  0  0  0  0  0  0  0  0  0  0
   -5.2887   -1.3014    4.3321 H   0  0  0  0  0  0  0  0  0  0  0  0
   -3.8069   -0.4797    4.8429 H   0  0  0  0  0  0  0  0  0  0  0  0
   -5.3799    0.0980    5.4126 H   0  0  0  0  0  0  0  0  0  0  0  0
   -5.2567   -1.9919    8.4299 H   0  0  0  0  0  0  0  0  0  0  0  0
   -6.4700   -1.1884    7.4252 H   0  0  0  0  0  0  0  0  0  0  0  0
   -5.0159   -0.3129    7.9335 H   0  0  0  0  0  0  0  0  0  0  0  0
   -3.8958    0.5825    1.8751 H   0  0  0  0  0  0  0  0  0  0  0  0
   -4.2229    1.7885   -2.6021 H   0  0  0  0  0  0  0  0  0  0  0  0
   -0.9548   -2.1787   -3.1653 H   0  0  0  0  0  0  0  0  0  0  0  0
   -2.6562   -2.8962   -7.0608 H   0  0  0  0  0  0  0  0  0  0  0  0
   -4.2014   -0.9638   -6.8035 H   0  0  0  0  0  0  0  0  0  0  0  0
    0.2489   -3.4715   -5.2816 H   0  0  0  0  0  0  0  0  0  0  0  0
   -0.9316   -4.2663   -6.3256 H   0  0  0  0  0  0  0  0  0  0  0  0
   -2.0461   -4.8129   -3.8128 H   0  0  0  0  0  0  0  0  0  0  0  0
    1.1343   -5.9185   -5.6390 H   0  0  0  0  0  0  0  0  0  0  0  0
    1.6982   -6.8447   -4.2473 H   0  0  0  0  0  0  0  0  0  0  0  0
    1.8201   -5.0824   -4.2351 H   0  0  0  0  0  0  0  0  0  0  0  0
   -1.5012   -6.6799   -2.4491 H   0  0  0  0  0  0  0  0  0  0  0  0
    0.2203   -6.8091   -2.0710 H   0  0  0  0  0  0  0  0  0  0  0  0
   -0.4962   -7.8456   -3.3175 H   0  0  0  0  0  0  0  0  0  0  0  0
    1.0329   -0.2509   -2.1524 H   0  0  0  0  0  0  0  0  0  0  0  0
  1  2  2  0  0  0  0
  1  8  1  0  0  0  0
  3  1  1  0  0  0  0
  4  3  2  0  0  0  0
  4  5  1  0  0  0  0
  5  7  1  0  0  0  0
  6  5  2  0  0  0  0
  7  8  2  0  0  0  0
  7 24  1  0  0  0  0
  8  9  1  0  0  0  0
  9 10  2  0  0  0  0
  9 18  1  0  0  0  0
 10 11  1  0  0  0  0
 11 13  1  0  0  0  0
 11 12  1  0  0  0  0
 13 14  2  0  0  0  0
 14 15  1  0  0  0  0
 14 42  1  0  0  0  0
 15 43  1  0  0  0  0
 16 19  1  0  0  0  0
 16 15  2  0  0  0  0
 17 16  1  0  0  0  0
 18 17  2  0  0  0  0
 18 13  1  0  0  0  0
 19 45  1  0  0  0  0
 19 20  1  0  0  0  0
 20 21  2  0  0  0  0
 20 47  1  0  0  0  0
 21 23  1  0  0  0  0
 22 50  1  0  0  0  0
 22 21  1  0  0  0  0
 23 53  1  0  0  0  0
 23 51  1  0  0  0  0
 25  4  1  0  0  0  0
 26 25  2  0  0  0  0
 26 55  1  0  0  0  0
 27 26  1  0  0  0  0
 28 27  1  0  0  0  0
 29 27  1  0  0  0  0
 29 30  2  0  0  0  0
 30 25  1  0  0  0  0
 31 30  1  0  0  0  0
 31 56  1  0  0  0  0
 32 31  2  0  0  0  0
 33 34  2  0  0  0  0
 33 32  1  0  0  0  0
 34 29  1  0  0  0  0
 35 59  1  0  0  0  0
 35 32  1  0  0  0  0
 35 36  1  0  0  0  0
 36 37  2  0  0  0  0
 36 61  1  0  0  0  0
 37 39  1  0  0  0  0
 38 63  1  0  0  0  0
 38 64  1  0  0  0  0
 38 37  1  0  0  0  0
 39 65  1  0  0  0  0
 39 66  1  0  0  0  0
 40 68  1  0  0  0  0
 40  3  1  0  0  0  0
 41 10  1  0  0  0  0
 44 17  1  0  0  0  0
 46 19  1  0  0  0  0
 48 22  1  0  0  0  0
 49 22  1  0  0  0  0
 52 23  1  0  0  0  0
 54 24  1  0  0  0  0
 57 33  1  0  0  0  0
 58 34  1  0  0  0  0
 60 35  1  0  0  0  0
 62 38  1  0  0  0  0
 67 39  1  0  0  0  0
M  END
$$$$
