68
rmsd210.gzmat
C          0.00000        0.00000        0.00000
O          1.20980        0.00000        0.00000
C         -0.70700        0.00000       -1.33250
C         -2.04440        0.16690       -1.47290
C         -2.84750        0.42540       -0.27340
O         -4.00180        0.78670       -0.27390
C         -2.17100        0.22520        1.05980
C         -0.84240       -0.00100        1.19940
C         -0.20280       -0.24510        2.46160
C          1.02210        0.26750        2.87880
N          1.30930       -0.18910        4.16180
H          2.12440        0.01840        4.68790
C          0.26700       -1.02390        4.57860
C          0.10030       -1.72790        5.77700
C         -1.03740       -2.50210        5.90280
C         -1.99300       -2.58570        4.86470
C         -1.83360       -1.88090        3.68310
C         -0.69930       -1.08040        3.52580
C         -3.20660       -3.44570        5.06470
C         -4.28950       -2.68770        5.76490
C         -5.43560       -3.24640        6.17560
C         -5.74850       -4.69380        5.98420
C         -6.48750       -2.44480        6.86960
O         -2.95800        0.28760        2.14330
C         -2.73670        0.11100       -2.72950
C         -3.79450        0.92840       -3.12020
N         -4.21640        0.57260       -4.39670
H         -4.95890        0.98960       -4.90510
C         -3.43580       -0.50160       -4.83790
C         -2.49380       -0.81290       -3.80850
C         -1.60810       -1.87760       -3.99530
C         -1.66540       -2.59440       -5.17890
C         -2.59460       -2.26160       -6.19210
C         -3.48870       -1.22010       -6.03840
C         -0.73970       -3.75740       -5.39810
C         -1.51760       -5.02200       -5.59480
C         -2.18540       -5.65050       -4.61720
C         -2.23200       -5.15450       -3.21110
C         -2.94760       -6.90790       -4.88280
O          0.06740       -0.17390       -2.41390
H          1.69910        0.91230        2.34520
H          0.83580       -1.66600        6.57060
H         -1.21280       -3.06240        6.82030
H         -2.57260       -1.93840        2.88680
H         -2.94270       -4.36100        5.63910
H         -3.58320       -3.82270        4.08740
H         -4.08530       -1.63000        5.92040
H         -5.15100       -5.31680        6.66580
H         -5.52790       -5.02680        4.96020
H         -6.80340       -4.92670        6.17430
H         -6.16510       -1.41740        7.08530
H         -6.76990       -2.90170        7.82830
H         -7.39820       -2.37600        6.25770
H         -3.90300        0.52100        1.88350
H         -4.26980        1.72350       -2.57120
H         -0.89230       -2.12910       -3.21590
H         -2.60300       -2.85550       -7.10540
H         -4.20610       -0.96860       -6.81120
H         -0.03550       -3.87330       -4.54550
H         -0.09020       -3.55420       -6.27690
H         -1.51300       -5.40440       -6.61110
H         -1.22240       -5.03300       -2.79330
H         -2.78710       -5.81790       -2.53850
H         -2.71660       -4.16340       -3.16400
H         -2.91050       -7.21430       -5.93580
H         -4.00850       -6.79050       -4.61810
H         -2.55100       -7.74250       -4.28730
H          1.03880       -0.21600       -2.15070
