
     RDKit          3D

 68 72  0  0  0  0  0  0  0  0999 V2000
    0.0176   -0.5107   -0.2119 C   0  0  0  0  0  0  0  0  0  0  0  0
    1.2340   -0.4232   -0.3857 O   0  0  0  0  0  0  0  0  0  0  0  0
   -0.8036   -0.5381   -1.4793 C   0  0  0  0  0  0  0  0  0  0  0  0
   -2.1671   -0.6654   -1.5061 C   0  0  0  0  0  0  0  0  0  0  0  0
   -2.8170   -0.5972   -0.1959 C   0  0  0  0  0  0  0  0  0  0  0  0
   -4.0364   -0.5748   -0.0221 O   0  0  0  0  0  0  0  0  0  0  0  0
   -1.9968   -0.5272    1.0704 C   0  0  0  0  0  0  0  0  0  0  0  0
   -0.6289   -0.5669    1.0991 C   0  0  0  0  0  0  0  0  0  0  0  0
    0.1787   -0.6327    2.3138 C   0  0  0  0  0  0  0  0  0  0  0  0
    1.4268   -0.0564    2.4992 C   0  0  0  0  0  0  0  0  0  0  0  0
    1.8858   -0.3356    3.7615 N   0  0  0  0  0  0  0  0  0  0  0  0
    2.7743   -0.0310    4.1345 H   0  0  0  0  0  0  0  0  0  0  0  0
    0.9653   -1.1217    4.4301 C   0  0  0  0  0  0  0  0  0  0  0  0
    1.0015   -1.6840    5.7105 C   0  0  0  0  0  0  0  0  0  0  0  0
   -0.0743   -2.4790    6.0987 C   0  0  0  0  0  0  0  0  0  0  0  0
   -1.1664   -2.7307    5.2357 C   0  0  0  0  0  0  0  0  0  0  0  0
   -1.1786   -2.1695    3.9599 C   0  0  0  0  0  0  0  0  0  0  0  0
   -0.1273   -1.3376    3.5454 C   0  0  0  0  0  0  0  0  0  0  0  0
   -2.3482   -3.5692    5.7077 C   0  0  0  0  0  0  0  0  0  0  0  0
   -2.9037   -4.4901    4.6541 C   0  0  0  0  0  0  0  0  0  0  0  0
   -3.9390   -4.2544    3.8289 C   0  0  0  0  0  0  0  0  0  0  0  0
   -4.7523   -2.9857    3.8263 C   0  0  0  0  0  0  0  0  0  0  0  0
   -4.3547   -5.2665    2.7926 C   0  0  0  0  0  0  0  0  0  0  0  0
   -2.7630   -0.4365    2.1516 O   0  0  0  0  0  0  0  0  0  0  0  0
   -2.9729   -0.8330   -2.7131 C   0  0  0  0  0  0  0  0  0  0  0  0
   -4.2713   -0.3783   -2.8950 C   0  0  0  0  0  0  0  0  0  0  0  0
   -4.7223   -0.7372   -4.1395 N   0  0  0  0  0  0  0  0  0  0  0  0
   -5.6406   -0.5258   -4.5048 H   0  0  0  0  0  0  0  0  0  0  0  0
   -3.7457   -1.4588   -4.8009 C   0  0  0  0  0  0  0  0  0  0  0  0
   -2.6223   -1.5444   -3.9307 C   0  0  0  0  0  0  0  0  0  0  0  0
   -1.5023   -2.2753   -4.3508 C   0  0  0  0  0  0  0  0  0  0  0  0
   -1.4884   -2.8811   -5.6074 C   0  0  0  0  0  0  0  0  0  0  0  0
   -2.6123   -2.7602   -6.4543 C   0  0  0  0  0  0  0  0  0  0  0  0
   -3.7514   -2.0572   -6.0645 C   0  0  0  0  0  0  0  0  0  0  0  0
   -0.2461   -3.6475   -6.0402 C   0  0  0  0  0  0  0  0  0  0  0  0
    0.9937   -2.7909   -5.9984 C   0  0  0  0  0  0  0  0  0  0  0  0
    1.9054   -2.7147   -5.0134 C   0  0  0  0  0  0  0  0  0  0  0  0
    1.8657   -3.5269   -3.7448 C   0  0  0  0  0  0  0  0  0  0  0  0
    3.0514   -1.7393   -5.0928 C   0  0  0  0  0  0  0  0  0  0  0  0
   -0.0396   -0.4438   -2.5617 O   0  0  0  0  0  0  0  0  0  0  0  0
    2.0157    0.5309    1.8013 H   0  0  0  0  0  0  0  0  0  0  0  0
    1.8475   -1.5163    6.3814 H   0  0  0  0  0  0  0  0  0  0  0  0
   -0.0720   -2.9279    7.0957 H   0  0  0  0  0  0  0  0  0  0  0  0
   -2.0066   -2.3799    3.2889 H   0  0  0  0  0  0  0  0  0  0  0  0
   -3.1370   -2.8903    6.0751 H   0  0  0  0  0  0  0  0  0  0  0  0
   -2.0346   -4.1630    6.5817 H   0  0  0  0  0  0  0  0  0  0  0  0
   -2.3617   -5.4348    4.5271 H   0  0  0  0  0  0  0  0  0  0  0  0
   -4.6887   -2.4993    2.8369 H   0  0  0  0  0  0  0  0  0  0  0  0
   -4.4220   -2.2555    4.5764 H   0  0  0  0  0  0  0  0  0  0  0  0
   -5.8214   -3.2026    3.9974 H   0  0  0  0  0  0  0  0  0  0  0  0
   -3.7324   -6.1725    2.8284 H   0  0  0  0  0  0  0  0  0  0  0  0
   -4.2846   -4.8402    1.7758 H   0  0  0  0  0  0  0  0  0  0  0  0
   -5.4090   -5.5658    2.9312 H   0  0  0  0  0  0  0  0  0  0  0  0
   -3.6829   -0.4332    1.7934 H   0  0  0  0  0  0  0  0  0  0  0  0
   -4.9014    0.1730   -2.2042 H   0  0  0  0  0  0  0  0  0  0  0  0
   -0.6305   -2.3520   -3.7082 H   0  0  0  0  0  0  0  0  0  0  0  0
   -2.5889   -3.2342   -7.4391 H   0  0  0  0  0  0  0  0  0  0  0  0
   -4.6182   -1.9807   -6.7253 H   0  0  0  0  0  0  0  0  0  0  0  0
   -0.3961   -4.0291   -7.0629 H   0  0  0  0  0  0  0  0  0  0  0  0
   -0.1242   -4.5337   -5.3960 H   0  0  0  0  0  0  0  0  0  0  0  0
    1.1111   -2.1082   -6.8484 H   0  0  0  0  0  0  0  0  0  0  0  0
    1.0597   -4.2721   -3.7291 H   0  0  0  0  0  0  0  0  0  0  0  0
    1.7238   -2.8625   -2.8732 H   0  0  0  0  0  0  0  0  0  0  0  0
    2.8232   -4.0515   -3.5818 H   0  0  0  0  0  0  0  0  0  0  0  0
    3.0383   -1.1626   -6.0291 H   0  0  0  0  0  0  0  0  0  0  0  0
    4.0239   -2.2578   -5.0178 H   0  0  0  0  0  0  0  0  0  0  0  0
    3.0160   -1.0244   -4.2505 H   0  0  0  0  0  0  0  0  0  0  0  0
    0.8774   -0.3738   -2.2022 H   0  0  0  0  0  0  0  0  0  0  0  0
  1  2  2  0
  1  3  1  0
  1  8  1  0
  3  4  2  0
  3 40  1  0
  4  5  1  0
  4 25  1  0
  5  6  2  0
  5  7  1  0
  7  8  2  0
  7 24  1  0
  8  9  1  0
  9 10  2  0
  9 18  1  0
 10 11  1  0
 10 41  1  0
 11 12  1  0
 11 13  1  0
 13 14  1  0
 13 18  2  0
 14 15  2  0
 14 42  1  0
 15 16  1  0
 15 43  1  0
 16 17  2  0
 16 19  1  0
 17 18  1  0
 17 44  1  0
 19 20  1  0
 19 45  1  0
 19 46  1  0
 20 21  2  3
 20 47  1  0
 21 22  1  0
 21 23  1  0
 22 48  1  0
 22 49  1  0
 22 50  1  0
 23 51  1  0
 23 52  1  0
 23 53  1  0
 24 54  1  0
 25 26  2  0
 25 30  1  0
 26 27  1  0
 26 55  1  0
 27 28  1  0
 27 29  1  0
 29 30  2  0
 29 34  1  0
 30 31  1  0
 31 32  2  0
 31 56  1  0
 32 33  1  0
 32 35  1  0
 33 34  2  0
 33 57  1  0
 34 58  1  0
 35 36  1  0
 35 59  1  0
 35 60  1  0
 36 37  2  3
 36 61  1  0
 37 38  1  0
 37 39  1  0
 38 62  1  0
 38 63  1  0
 38 64  1  0
 39 65  1  0
 39 66  1  0
 39 67  1  0
 40 68  1  0
M  END

