rmsd189.gzmat
 OpenBabel08211713383D

 68 72  0  0  0  0  0  0  0  0999 V2000
    0.0000    0.0000    0.0000 C   0  0  0  0  0  0  0  0  0  0  0  0
    1.2100    0.0000    0.0000 O   0  0  0  0  0  0  0  0  0  0  0  0
   -0.7045    0.0000   -1.3334 C   0  0  0  0  0  0  0  0  0  0  0  0
   -2.0434    0.1496   -1.4769 C   0  0  0  0  0  0  0  0  0  0  0  0
   -2.8543    0.3844   -0.2779 C   0  0  0  0  0  0  0  0  0  0  0  0
   -4.0198    0.7093   -0.2804 O   0  0  0  0  0  0  0  0  0  0  0  0
   -2.1734    0.2130    1.0567 C   0  0  0  0  0  0  0  0  0  0  0  0
   -0.8420    0.0061    1.2001 C   0  0  0  0  0  0  0  0  0  0  0  0
   -0.1952   -0.2034    2.4647 C   0  0  0  0  0  0  0  0  0  0  0  0
    1.0427    0.3062    2.8472 C   0  0  0  0  0  0  0  0  0  0  0  0
    1.3430   -0.1103    4.1403 N   0  0  0  0  0  0  0  0  0  0  0  0
    2.1696    0.1021    4.6460 H   0  0  0  0  0  0  0  0  0  0  0  0
    0.2958   -0.9157    4.6006 C   0  0  0  0  0  0  0  0  0  0  0  0
    0.1408   -1.5786    5.8235 C   0  0  0  0  0  0  0  0  0  0  0  0
   -1.0060   -2.3304    5.9951 C   0  0  0  0  0  0  0  0  0  0  0  0
   -1.9832   -2.4287    4.9789 C   0  0  0  0  0  0  0  0  0  0  0  0
   -1.8318   -1.7687    3.7704 C   0  0  0  0  0  0  0  0  0  0  0  0
   -0.6881   -0.9931    3.5655 C   0  0  0  0  0  0  0  0  0  0  0  0
   -3.1921   -3.2877    5.2137 C   0  0  0  0  0  0  0  0  0  0  0  0
   -2.9368   -4.6883    4.7556 C   0  0  0  0  0  0  0  0  0  0  0  0
   -3.6383   -5.7557    5.1579 C   0  0  0  0  0  0  0  0  0  0  0  0
   -4.7730   -5.6871    6.1249 C   0  0  0  0  0  0  0  0  0  0  0  0
   -3.3309   -7.1230    4.6378 C   0  0  0  0  0  0  0  0  0  0  0  0
   -2.9638    0.2839    2.1382 O   0  0  0  0  0  0  0  0  0  0  0  0
   -2.7278    0.1013   -2.7378 C   0  0  0  0  0  0  0  0  0  0  0  0
   -3.7869    0.9159   -3.1312 C   0  0  0  0  0  0  0  0  0  0  0  0
   -4.1793    0.5838   -4.4235 N   0  0  0  0  0  0  0  0  0  0  0  0
   -4.9175    1.0029   -4.9367 H   0  0  0  0  0  0  0  0  0  0  0  0
   -3.3771   -0.4707   -4.8735 C   0  0  0  0  0  0  0  0  0  0  0  0
   -2.4576   -0.7993   -3.8297 C   0  0  0  0  0  0  0  0  0  0  0  0
   -1.5520   -1.8457   -4.0228 C   0  0  0  0  0  0  0  0  0  0  0  0
   -1.5458   -2.5066   -5.2397 C   0  0  0  0  0  0  0  0  0  0  0  0
   -2.4588   -2.1632   -6.2639 C   0  0  0  0  0  0  0  0  0  0  0  0
   -3.3842   -1.1511   -6.0976 C   0  0  0  0  0  0  0  0  0  0  0  0
   -0.5350   -3.5866   -5.5041 C   0  0  0  0  0  0  0  0  0  0  0  0
    0.4069   -3.1361   -6.5777 C   0  0  0  0  0  0  0  0  0  0  0  0
    1.3759   -2.2282   -6.3950 C   0  0  0  0  0  0  0  0  0  0  0  0
    1.6482   -1.5704   -5.0838 C   0  0  0  0  0  0  0  0  0  0  0  0
    2.2498   -1.7925   -7.5262 C   0  0  0  0  0  0  0  0  0  0  0  0
    0.0772   -0.1507   -2.4141 O   0  0  0  0  0  0  0  0  0  0  0  0
    1.7210    0.9228    2.2826 H   0  0  0  0  0  0  0  0  0  0  0  0
    0.8928   -1.5047    6.6005 H   0  0  0  0  0  0  0  0  0  0  0  0
   -1.1643   -2.8710    6.9274 H   0  0  0  0  0  0  0  0  0  0  0  0
   -2.5822   -1.8505    2.9868 H   0  0  0  0  0  0  0  0  0  0  0  0
   -4.0749   -2.8783    4.6731 H   0  0  0  0  0  0  0  0  0  0  0  0
   -3.4817   -3.2631    6.2864 H   0  0  0  0  0  0  0  0  0  0  0  0
   -2.1211   -4.7880    4.0402 H   0  0  0  0  0  0  0  0  0  0  0  0
   -5.7120   -5.4475    5.6046 H   0  0  0  0  0  0  0  0  0  0  0  0
   -4.6223   -4.9156    6.8922 H   0  0  0  0  0  0  0  0  0  0  0  0
   -4.9263   -6.6361    6.6545 H   0  0  0  0  0  0  0  0  0  0  0  0
   -2.6243   -7.1079    3.7977 H   0  0  0  0  0  0  0  0  0  0  0  0
   -4.2385   -7.6319    4.2860 H   0  0  0  0  0  0  0  0  0  0  0  0
   -2.8864   -7.7504    5.4237 H   0  0  0  0  0  0  0  0  0  0  0  0
   -3.9103    0.5023    1.8712 H   0  0  0  0  0  0  0  0  0  0  0  0
   -4.2801    1.6948   -2.5753 H   0  0  0  0  0  0  0  0  0  0  0  0
   -0.8669   -2.1227   -3.2246 H   0  0  0  0  0  0  0  0  0  0  0  0
   -2.4154   -2.7112   -7.2043 H   0  0  0  0  0  0  0  0  0  0  0  0
   -4.0861   -0.8889   -6.8808 H   0  0  0  0  0  0  0  0  0  0  0  0
   -1.0490   -4.5258   -5.7988 H   0  0  0  0  0  0  0  0  0  0  0  0
    0.0252   -3.8481   -4.5808 H   0  0  0  0  0  0  0  0  0  0  0  0
    0.2351   -3.5889   -7.5495 H   0  0  0  0  0  0  0  0  0  0  0  0
    0.7852   -0.9527   -4.7750 H   0  0  0  0  0  0  0  0  0  0  0  0
    2.5242   -0.9126   -5.1095 H   0  0  0  0  0  0  0  0  0  0  0  0
    1.8118   -2.3112   -4.2889 H   0  0  0  0  0  0  0  0  0  0  0  0
    2.0398   -2.3301   -8.4593 H   0  0  0  0  0  0  0  0  0  0  0  0
    3.3123   -1.9491   -7.2945 H   0  0  0  0  0  0  0  0  0  0  0  0
    2.1115   -0.7208   -7.7328 H   0  0  0  0  0  0  0  0  0  0  0  0
    1.0476   -0.1839   -2.1457 H   0  0  0  0  0  0  0  0  0  0  0  0
  1  2  2  0  0  0  0
  1  8  1  0  0  0  0
  3  1  1  0  0  0  0
  4  3  2  0  0  0  0
  4  5  1  0  0  0  0
  5  7  1  0  0  0  0
  6  5  2  0  0  0  0
  7  8  2  0  0  0  0
  7 24  1  0  0  0  0
  8  9  1  0  0  0  0
  9 10  2  0  0  0  0
  9 18  1  0  0  0  0
 10 11  1  0  0  0  0
 11 13  1  0  0  0  0
 11 12  1  0  0  0  0
 13 14  2  0  0  0  0
 14 15  1  0  0  0  0
 14 42  1  0  0  0  0
 15 43  1  0  0  0  0
 16 19  1  0  0  0  0
 16 15  2  0  0  0  0
 17 16  1  0  0  0  0
 18 17  2  0  0  0  0
 18 13  1  0  0  0  0
 19 46  1  0  0  0  0
 20 21  2  0  0  0  0
 20 19  1  0  0  0  0
 21 22  1  0  0  0  0
 22 50  1  0  0  0  0
 22 49  1  0  0  0  0
 23 21  1  0  0  0  0
 23 53  1  0  0  0  0
 25  4  1  0  0  0  0
 26 25  2  0  0  0  0
 26 55  1  0  0  0  0
 27 26  1  0  0  0  0
 28 27  1  0  0  0  0
 29 27  1  0  0  0  0
 29 30  2  0  0  0  0
 30 25  1  0  0  0  0
 31 30  1  0  0  0  0
 31 56  1  0  0  0  0
 32 31  2  0  0  0  0
 33 34  2  0  0  0  0
 33 32  1  0  0  0  0
 34 29  1  0  0  0  0
 35 32  1  0  0  0  0
 35 60  1  0  0  0  0
 36 37  2  0  0  0  0
 36 35  1  0  0  0  0
 37 38  1  0  0  0  0
 38 62  1  0  0  0  0
 38 64  1  0  0  0  0
 39 66  1  0  0  0  0
 39 37  1  0  0  0  0
 40 68  1  0  0  0  0
 40  3  1  0  0  0  0
 41 10  1  0  0  0  0
 44 17  1  0  0  0  0
 45 19  1  0  0  0  0
 47 20  1  0  0  0  0
 48 22  1  0  0  0  0
 51 23  1  0  0  0  0
 52 23  1  0  0  0  0
 54 24  1  0  0  0  0
 57 33  1  0  0  0  0
 58 34  1  0  0  0  0
 59 35  1  0  0  0  0
 61 36  1  0  0  0  0
 63 38  1  0  0  0  0
 65 39  1  0  0  0  0
 67 39  1  0  0  0  0
M  END
$$$$
