68

C         -0.36700        0.03240       -0.65460
O          0.86340        0.06140       -0.71550
C         -1.06820        0.24420       -1.97600
C         -2.42740        0.19900       -2.13800
C         -3.19140        0.11930       -0.89350
O         -4.41800        0.20080       -0.82230
C         -2.49020       -0.05840        0.43420
C         -1.13300       -0.16430        0.57730
C         -0.43570       -0.41640        1.83700
C          0.82230        0.07360        2.16050
N          1.18490       -0.35950        3.40830
H          2.06110       -0.14530        3.86410
C          0.19110       -1.16520        3.92930
C          0.13610       -1.86090        5.14260
C         -0.98510       -2.64410        5.38710
C         -2.04150       -2.74310        4.44960
C         -1.96990       -2.04440        3.24600
C         -0.85530       -1.22970        2.96700
C         -3.24540       -3.61210        4.77410
C         -2.86930       -5.03590        5.08200
C         -2.99810       -5.69580        6.24640
C         -3.58380       -5.10890        7.50450
C         -2.54420       -7.12750        6.37840
O         -3.35120       -0.09730        1.44380
C         -3.12040        0.25210       -3.42300
C         -4.36820        0.81040       -3.66150
N         -4.70530        0.65080       -4.98200
H         -5.56810        0.96960       -5.40070
C         -3.70320       -0.03820       -5.64040
C         -2.68480       -0.31230       -4.68760
C         -1.56450       -1.05470       -5.09020
C         -1.44350       -1.48460       -6.40970
C         -2.46390       -1.17440       -7.33990
C         -3.60120       -0.46000       -6.97130
C         -0.22990       -2.30700       -6.83400
C          1.01980       -1.95220       -6.07290
C          1.46800       -2.52500       -4.94230
C          0.80270       -3.69570       -4.26690
C          2.66790       -1.97870       -4.21240
O         -0.20670        0.45330       -2.96380
H          1.48110        0.69910        1.56680
H          0.95120       -1.79990        5.86780
H         -1.05300       -3.21200        6.31800
H         -2.78560       -2.12020        2.52850
H         -3.93100       -3.59470        3.91000
H         -3.80150       -3.16670        5.61450
H         -2.40720       -5.57280        4.24450
H         -4.46820       -5.68570        7.82860
H         -3.88610       -4.05910        7.39690
H         -2.85590       -5.16870        8.33310
H         -2.12370       -7.51450        5.43870
H         -3.38200       -7.78280        6.67700
H         -1.77630       -7.22760        7.16640
H         -4.23180        0.00670        1.00820
H         -5.03750        1.30410       -2.96380
H         -0.77280       -1.27430       -4.38150
H         -2.35800       -1.50890       -8.37570
H         -4.38510       -0.23750       -7.69930
H         -0.06180       -2.15960       -7.91340
H         -0.46510       -3.37860       -6.71240
H          1.56150       -1.07450       -6.44490
H          0.47230       -3.41470       -3.25090
H          1.51270       -4.53190       -4.14080
H         -0.07530       -4.06850       -4.81010
H          3.13180       -1.14000       -4.75200
H          3.43500       -2.75750       -4.05550
H          2.37790       -1.62330       -3.20620
H          0.67770        0.40430       -2.52810
