68
rmsd145.gzmat
C          0.00000        0.00000        0.00000
O          1.20950        0.00000        0.00000
C         -0.70710        0.00000       -1.33210
C         -2.04180        0.18760       -1.47020
C         -2.84070        0.45870       -0.27160
O         -3.99080        0.83450       -0.27280
C         -2.16730        0.24840        1.06170
C         -0.84270        0.00290        1.20100
C         -0.19730       -0.26100        2.45580
C          1.04920        0.21400        2.85620
N          1.34630       -0.26330        4.12840
H          2.17540       -0.08280        4.64210
C          0.28800       -1.07260        4.55650
C          0.12410       -1.78580        5.75010
C         -1.03630       -2.52120        5.89300
C         -2.01970       -2.55740        4.87670
C         -1.85540       -1.85430        3.69500
C         -0.69830       -1.08990        3.52240
C         -3.26280       -3.37040        5.10240
C         -3.99820       -2.87960        6.31090
C         -4.68720       -1.73040        6.35180
C         -4.80500       -0.80680        5.18600
C         -5.38880       -1.29090        7.59570
O         -2.96050        0.32000        2.14220
C         -2.73310        0.13370       -2.72730
C         -3.76480        0.97370       -3.13660
N         -4.18720        0.61100       -4.41200
H         -4.91390        1.04170       -4.93210
C         -3.43410       -0.49090       -4.83190
C         -2.50880       -0.81460       -3.79000
C         -1.65440       -1.90660       -3.95400
C         -1.72080       -2.63790       -5.13020
C         -2.63300       -2.29570       -6.15270
C         -3.49820       -1.22480       -6.02110
C         -0.80890       -3.81670       -5.31530
C         -1.06300       -4.86430       -4.27830
C         -0.17990       -5.81020       -3.93330
C          1.17960       -5.92330       -4.54080
C         -0.50840       -6.83160       -2.89370
O          0.06170       -0.19320       -2.41370
H          1.73510        0.84480        2.31680
H          0.87880       -1.75880        6.52780
H         -1.21350       -3.08570        6.80760
H         -2.60530       -1.88490        2.90770
H         -2.98980       -4.44180        5.21630
H         -3.92770       -3.33900        4.21200
H         -3.92610       -3.52720        7.17960
H         -5.28870       -1.30140        4.33210
H         -3.80690       -0.47970        4.84290
H         -5.37990        0.09800        5.41260
H         -5.25670       -1.99190        8.42990
H         -6.47000       -1.18840        7.42520
H         -5.01590       -0.31290        7.93350
H         -3.89580        0.58250        1.87510
H         -4.22290        1.78850       -2.60210
H         -0.95480       -2.17870       -3.16530
H         -2.65620       -2.89620       -7.06080
H         -4.20140       -0.96380       -6.80350
H          0.24890       -3.47150       -5.28160
H         -0.93160       -4.26630       -6.32560
H         -2.04610       -4.81290       -3.81280
H          1.13430       -5.91850       -5.63900
H          1.69820       -6.84470       -4.24730
H          1.82010       -5.08240       -4.23510
H         -1.50120       -6.67990       -2.44910
H          0.22030       -6.80910       -2.07100
H         -0.49620       -7.84560       -3.31750
H          1.03290       -0.25090       -2.15240
