68
rmsd56.gzmat
C          0.00000        0.00000        0.00000
O          1.21010        0.00000        0.00000
C         -0.70460        0.00000       -1.33350
C         -2.04520       -0.13540       -1.47590
C         -2.85870       -0.35060       -0.27490
O         -4.03160       -0.64890       -0.27480
C         -2.17380       -0.19370        1.05880
C         -0.84010       -0.00370        1.20200
C         -0.18740        0.18310        2.46670
C          1.04680       -0.34400        2.84050
N          1.33900        0.02760        4.14830
H          2.15870       -0.20880        4.65470
C          0.29010        0.81930        4.62940
C          0.11820        1.42530        5.87950
C         -1.03770        2.15610        6.07470
C         -2.00380        2.29870        5.05170
C         -1.82450        1.71370        3.80950
C         -0.68120        0.94160        3.58800
C         -3.25460        3.08010        5.33880
C         -4.06440        2.37710        6.38450
C         -4.78160        1.26670        6.16170
C         -4.87040        0.59980        4.82970
C         -5.54230        0.60300        7.26370
O         -2.96740       -0.26060        2.13950
C         -2.73390       -0.09140       -2.73500
C         -3.82210       -0.88340       -3.09520
N         -4.23130       -0.56090       -4.38450
H         -4.99170       -0.96740       -4.87520
C         -3.41120        0.46500       -4.86590
C         -2.45790        0.78190       -3.84810
C         -1.53020        1.80200       -4.07920
C         -1.55310        2.46150       -5.29630
C         -2.49950        2.12750       -6.29330
C         -3.43700        1.13280       -6.09610
C         -0.57180        3.56330       -5.57740
C          0.13430        3.32830       -6.87400
C          0.39950        4.27360       -7.78470
C          0.02760        5.71030       -7.62100
C          1.11110        3.94140       -9.05660
O          0.07740        0.13800       -2.41460
H          1.72580       -0.94590        2.26090
H          0.86230        1.31970        6.66060
H         -1.22410        2.63260        7.03630
H         -2.55420        1.84180        3.01320
H         -3.85630        3.22530        4.41620
H         -2.99180        4.10710        5.67060
H         -4.01740        2.82870        7.37130
H         -5.26110        1.28580        4.06550
H         -5.51290       -0.28800        4.83890
H         -3.87030        0.27460        4.48970
H         -5.49050        1.15460        8.21090
H         -5.14790       -0.40590        7.45540
H         -6.60620        0.49750        7.00860
H         -3.91620       -0.46440        1.86840
H         -4.32660       -1.63980       -2.51820
H         -0.80810        2.06190       -3.30840
H         -2.47470        2.67400       -7.23640
H         -4.16420        0.87740       -6.85800
H          0.18360        3.64630       -4.76420
H         -1.10880        4.53730       -5.56810
H          0.43240        2.29200       -7.03240
H         -1.00580        5.82790       -7.26460
H          0.10580        6.27550       -8.55830
H          0.68430        6.20380       -6.89000
H          1.42390        2.89000       -9.10710
H          2.01510        4.55380       -9.17930
H          0.46670        4.12740       -9.92790
H          1.04870        0.17040       -2.14800
