53
rmsd115.gzmat
C          0.00000        0.00000        0.00000
C          1.39690        0.00000        0.00000
C          2.11580        0.00000        1.22280
C          1.40270        0.10450        2.41950
C          0.01000        0.16690        2.39760
C         -0.69820        0.09030        1.20060
C         -0.68760        0.29850        3.69780
O         -0.18090        0.32950        4.78780
O         -2.02480        0.41180        3.52410
N          3.54020       -0.03930        1.13780
C          4.31170       -0.09320        2.41800
C          5.70060       -0.69620        2.12550
C          5.63020       -2.20000        1.87920
C          4.43880        1.34390        2.96870
C          4.73200        1.32220        4.46670
N          2.12320       -0.04920       -1.22470
C          2.20740        1.07930       -2.15750
C          2.25230        0.41160       -3.56910
C          2.61310       -1.05970       -3.32380
C          2.44350       -1.28480       -1.84170
O          2.60440       -2.28260       -1.19790
C          1.04220        2.08790       -2.07470
O          1.09640        2.77980       -0.84550
C          3.57050        1.81530       -1.93080
N          3.69890        2.30250       -0.50620
H          2.82510        2.81420       -0.24690
H          3.78520        1.45730        0.16270
H          4.51030        2.91930       -0.39270
H         -0.54610       -0.10280       -0.93870
H          1.92090        0.12450        3.38760
H         -1.79580        0.08880        1.20340
H         -2.53000        0.49160        4.37820
H          3.83050       -0.80180        0.49920
H          3.78700       -0.74450        3.16730
H          6.36450       -0.49750        2.99520
H          6.18130       -0.18530        1.27210
H          5.18100       -2.73160        2.72940
H          6.63380       -2.62450        1.73510
H          5.04740       -2.46040        0.98880
H          3.50510        1.90950        2.78740
H          5.23800        1.89010        2.43640
H          3.92930        0.83480        5.03670
H          4.83260        2.34000        4.86740
H          5.66550        0.79330        4.69630
H          1.27020        0.49280       -4.07420
H          2.96950        0.90490       -4.24600
H          1.95850       -1.75650       -3.89150
H          3.64370       -1.31050       -3.64540
H          0.05970        1.60010       -2.20820
H          1.14770        2.88930       -2.83640
H          0.45880        2.40830       -0.19030
H          3.64890        2.67880       -2.62810
H          4.41480        1.12200       -2.15150
