rmsd169.gzmat
 OpenBabel08211713363D

 53 54  0  0  1  0  0  0  0  0999 V2000
    0.0000    0.0000    0.0000 C   0  0  0  0  0  0  0  0  0  0  0  0
    1.3966    0.0000    0.0000 C   0  0  0  0  0  0  0  0  0  0  0  0
    2.1204    0.0000    1.2229 C   0  0  0  0  0  0  0  0  0  0  0  0
    1.4046    0.1343    2.4135 C   0  0  0  0  0  0  0  0  0  0  0  0
    0.0126    0.2081    2.3921 C   0  0  0  0  0  0  0  0  0  0  0  0
   -0.6982    0.1100    1.1990 C   0  0  0  0  0  0  0  0  0  0  0  0
   -0.6805    0.3674    3.6914 C   0  0  0  0  0  0  0  0  0  0  0  0
   -0.1747    0.3741    4.7823 O   0  0  0  0  0  0  0  0  0  0  0  0
   -2.0108    0.5391    3.5149 O   0  0  0  0  0  0  0  0  0  0  0  0
    3.5422   -0.0677    1.1223 N   0  0  0  0  0  0  0  0  0  0  0  0
    4.3878   -0.2398    2.3418 C   0  0  0  0  0  0  0  0  0  0  0  0
    4.3057    0.9975    3.2581 C   0  0  0  0  0  0  0  0  0  0  0  0
    5.6776    1.3171    3.8491 C   0  0  0  0  0  0  0  0  0  0  0  0
    4.0956   -1.5468    3.1008 C   0  0  0  0  0  0  0  0  0  0  0  0
    4.3947   -2.7767    2.2491 C   0  0  0  0  0  0  0  0  0  0  0  0
    2.1184   -0.0431   -1.2276 N   0  0  0  0  0  0  0  0  0  0  0  0
    2.1968    1.0895   -2.1560 C   0  0  1  0  0  0  0  0  0  0  0  0
    2.2618    0.4208   -3.5655 C   0  0  0  0  0  0  0  0  0  0  0  0
    2.6968   -1.0295   -3.3130 C   0  0  0  0  0  0  0  0  0  0  0  0
    2.4913   -1.2659   -1.8366 C   0  0  0  0  0  0  0  0  0  0  0  0
    2.6670   -2.2600   -1.1901 O   0  0  0  0  0  0  0  0  0  0  0  0
    1.0205    2.0848   -2.0806 C   0  0  0  0  0  0  0  0  0  0  0  0
    1.0601    2.7753   -0.8499 O   0  0  0  0  0  0  0  0  0  0  0  0
    3.5492    1.8426   -1.9177 C   0  0  0  0  0  0  0  0  0  0  0  0
    3.6642    2.3246   -0.4893 N   0  0  0  0  0  0  0  0  0  0  0  0
    2.7790    2.8197   -0.2322 H   0  0  0  0  0  0  0  0  0  0  0  0
    3.7664    1.4828    0.1727 H   0  0  0  0  0  0  0  0  0  0  0  0
    4.4641    2.9557   -0.3692 H   0  0  0  0  0  0  0  0  0  0  0  0
   -0.5470   -0.1172   -0.9367 H   0  0  0  0  0  0  0  0  0  0  0  0
    1.9199    0.1644    3.3823 H   0  0  0  0  0  0  0  0  0  0  0  0
   -1.7954    0.1090    1.2046 H   0  0  0  0  0  0  0  0  0  0  0  0
   -2.5143    0.6361    4.3682 H   0  0  0  0  0  0  0  0  0  0  0  0
    3.7908   -0.8084    0.4378 H   0  0  0  0  0  0  0  0  0  0  0  0
    5.4375   -0.3045    1.9301 H   0  0  0  0  0  0  0  0  0  0  0  0
    3.5843    0.8317    4.0858 H   0  0  0  0  0  0  0  0  0  0  0  0
    3.9209    1.8708    2.7034 H   0  0  0  0  0  0  0  0  0  0  0  0
    6.0812    0.4687    4.4183 H   0  0  0  0  0  0  0  0  0  0  0  0
    5.6218    2.1654    4.5448 H   0  0  0  0  0  0  0  0  0  0  0  0
    6.4132    1.5755    3.0810 H   0  0  0  0  0  0  0  0  0  0  0  0
    3.0460   -1.5824    3.4515 H   0  0  0  0  0  0  0  0  0  0  0  0
    4.7129   -1.5712    4.0241 H   0  0  0  0  0  0  0  0  0  0  0  0
    3.7159   -2.8664    1.3914 H   0  0  0  0  0  0  0  0  0  0  0  0
    4.2715   -3.6994    2.8358 H   0  0  0  0  0  0  0  0  0  0  0  0
    5.4217   -2.7772    1.8680 H   0  0  0  0  0  0  0  0  0  0  0  0
    1.2703    0.4481   -4.0586 H   0  0  0  0  0  0  0  0  0  0  0  0
    2.9434    0.9476   -4.2526 H   0  0  0  0  0  0  0  0  0  0  0  0
    2.1042   -1.7602   -3.9049 H   0  0  0  0  0  0  0  0  0  0  0  0
    3.7511   -1.2196   -3.5979 H   0  0  0  0  0  0  0  0  0  0  0  0
    0.0439    1.5872   -2.2219 H   0  0  0  0  0  0  0  0  0  0  0  0
    1.1222    2.8885   -2.8402 H   0  0  0  0  0  0  0  0  0  0  0  0
    0.4273    2.3910   -0.1970 H   0  0  0  0  0  0  0  0  0  0  0  0
    3.6206    2.7109   -2.6099 H   0  0  0  0  0  0  0  0  0  0  0  0
    4.4030    1.1620   -2.1396 H   0  0  0  0  0  0  0  0  0  0  0  0
  1  2  2  0  0  0  0
  1  6  1  0  0  0  0
  2  3  1  0  0  0  0
  3  4  2  0  0  0  0
  4 30  1  0  0  0  0
  5  4  1  0  0  0  0
  5  7  1  0  0  0  0
  6 31  1  0  0  0  0
  6  5  2  0  0  0  0
  7  8  2  0  0  0  0
  9  7  1  0  0  0  0
  9 32  1  0  0  0  0
 10  3  1  0  0  0  0
 10 11  1  0  0  0  0
 11 14  1  0  0  0  0
 11 12  1  0  0  0  0
 12 13  1  0  0  0  0
 12 35  1  0  0  0  0
 13 37  1  0  0  0  0
 13 38  1  0  0  0  0
 14 40  1  0  0  0  0
 14 41  1  0  0  0  0
 15 43  1  0  0  0  0
 15 14  1  0  0  0  0
 16  2  1  0  0  0  0
 17 22  1  1  0  0  0
 17 24  1  0  0  0  0
 17 16  1  0  0  0  0
 18 19  1  0  0  0  0
 18 17  1  0  0  0  0
 19 20  1  0  0  0  0
 20 16  1  0  0  0  0
 20 21  2  0  0  0  0
 22 23  1  0  0  0  0
 23 51  1  0  0  0  0
 24 25  1  0  0  0  0
 25 28  1  0  0  0  0
 25 26  1  0  0  0  0
 25 27  1  0  0  0  0
 29  1  1  0  0  0  0
 33 10  1  0  0  0  0
 34 11  1  0  0  0  0
 36 12  1  0  0  0  0
 39 13  1  0  0  0  0
 42 15  1  0  0  0  0
 44 15  1  0  0  0  0
 45 18  1  0  0  0  0
 46 18  1  0  0  0  0
 47 19  1  0  0  0  0
 48 19  1  0  0  0  0
 49 22  1  0  0  0  0
 50 22  1  0  0  0  0
 52 24  1  0  0  0  0
 53 24  1  0  0  0  0
M  END
$$$$
