53
rmsd110.gzmat
C          0.00000        0.00000        0.00000
C          1.39700        0.00000        0.00000
C          2.11700        0.00000        1.22240
C          1.40560        0.09690        2.42000
C          0.01360        0.16510        2.39820
C         -0.69640        0.09100        1.20170
C         -0.68100        0.30400        3.69910
O         -0.18660        0.24180        4.79320
O         -1.99820        0.55520        3.51830
N          3.54070       -0.01200        1.13460
C          4.32270       -0.13620        2.39480
C          4.26880       -1.54660        3.02550
C          4.11830       -2.69720        2.03590
C          5.76660        0.32740        2.08470
C          6.50710       -0.51710        1.05380
N          2.12490       -0.05280       -1.22330
C          2.23500        1.07880       -2.14880
C          2.30980        0.41210       -3.56020
C          2.68110       -1.05530       -3.30740
C          2.45320       -1.28830       -1.83400
O          2.57710       -2.29210       -1.19120
C          1.06820        2.08690       -2.08730
O          1.09890        2.78030       -0.85840
C          3.59470        1.81440       -1.90050
N          3.69580        2.33230       -0.48470
H          2.81500        2.84490       -0.25060
H          3.77990        1.50180        0.20220
H          4.50230        2.95560       -0.37100
H         -0.54750       -0.09970       -0.93880
H          1.92270        0.10140        3.38770
H         -1.79390        0.09420        1.20670
H         -2.50400        0.65460        4.36960
H          3.84690       -0.73510        0.45790
H          3.89790        0.59620        3.13650
H          3.42900       -1.59130        3.75110
H          5.18480       -1.70130        3.63390
H          3.15060       -2.68230        1.51710
H          4.17180       -3.66600        2.55570
H          4.90280       -2.70640        1.27250
H          6.33950        0.32330        3.03870
H          5.75210        1.38480        1.76190
H          6.59650       -1.56380        1.38140
H          7.53290       -0.14970        0.90970
H          6.02220       -0.51790        0.07530
H          1.33520        0.48270       -4.08120
H          3.03260        0.91330       -4.22450
H          2.06280       -1.75850       -3.90650
H          3.72870       -1.28950       -3.58420
H          0.08870        1.59780       -2.23770
H          1.18670        2.88810       -2.84700
H          0.46640        2.39480       -0.20640
H          3.69510        2.66290       -2.61390
H          4.44090        1.11390       -2.08870
