rmsd65.gzmat
 OpenBabel08211713363D

 53 54  0  0  1  0  0  0  0  0999 V2000
    0.0000    0.0000    0.0000 C   0  0  0  0  0  0  0  0  0  0  0  0
    1.3978    0.0000    0.0000 C   0  0  0  0  0  0  0  0  0  0  0  0
    2.1142    0.0000    1.2241 C   0  0  0  0  0  0  0  0  0  0  0  0
    1.4018    0.1038    2.4228 C   0  0  0  0  0  0  0  0  0  0  0  0
    0.0119    0.1681    2.4009 C   0  0  0  0  0  0  0  0  0  0  0  0
   -0.6960    0.0915    1.2005 C   0  0  0  0  0  0  0  0  0  0  0  0
   -0.7648    0.3021    3.6544 C   0  0  0  0  0  0  0  0  0  0  0  0
   -1.9502    0.4709    3.7551 O   0  0  0  0  0  0  0  0  0  0  0  0
    0.0414    0.2313    4.7413 O   0  0  0  0  0  0  0  0  0  0  0  0
    3.5385   -0.0345    1.1466 N   0  0  0  0  0  0  0  0  0  0  0  0
    4.3021   -0.1161    2.4282 C   0  0  0  0  0  0  0  0  0  0  0  0
    4.1985   -1.5267    3.0462 C   0  0  0  0  0  0  0  0  0  0  0  0
    4.4846   -1.4875    4.5437 C   0  0  0  0  0  0  0  0  0  0  0  0
    5.7685    0.2456    2.1070 C   0  0  0  0  0  0  0  0  0  0  0  0
    6.0252    1.7450    2.2358 C   0  0  0  0  0  0  0  0  0  0  0  0
    2.1230   -0.0509   -1.2242 N   0  0  0  0  0  0  0  0  0  0  0  0
    2.1994    1.0613   -2.1764 C   0  0  1  0  0  0  0  0  0  0  0  0
    2.3008    0.3626   -3.5690 C   0  0  0  0  0  0  0  0  0  0  0  0
    2.7600   -1.0722   -3.2748 C   0  0  0  0  0  0  0  0  0  0  0  0
    2.5457   -1.2760   -1.7946 C   0  0  0  0  0  0  0  0  0  0  0  0
    2.7448   -2.2468   -1.1202 O   0  0  0  0  0  0  0  0  0  0  0  0
    1.0099    2.0422   -2.1398 C   0  0  0  0  0  0  0  0  0  0  0  0
    1.0303    2.7625   -0.9257 O   0  0  0  0  0  0  0  0  0  0  0  0
    3.5384    1.8370   -1.9353 C   0  0  0  0  0  0  0  0  0  0  0  0
    3.6301    2.3343   -0.5117 N   0  0  0  0  0  0  0  0  0  0  0  0
    2.7328    2.8128   -0.2660 H   0  0  0  0  0  0  0  0  0  0  0  0
    3.7448    1.5010    0.1611 H   0  0  0  0  0  0  0  0  0  0  0  0
    4.4161    2.9833   -0.3908 H   0  0  0  0  0  0  0  0  0  0  0  0
   -0.5471   -0.1061   -0.9382 H   0  0  0  0  0  0  0  0  0  0  0  0
    1.9263    0.1145    3.3870 H   0  0  0  0  0  0  0  0  0  0  0  0
   -1.7943    0.0909    1.2096 H   0  0  0  0  0  0  0  0  0  0  0  0
   -0.4509    0.3090    5.6026 H   0  0  0  0  0  0  0  0  0  0  0  0
    3.8369   -0.7850    0.5000 H   0  0  0  0  0  0  0  0  0  0  0  0
    3.8834    0.6419    3.1391 H   0  0  0  0  0  0  0  0  0  0  0  0
    4.8911   -2.2264    2.5395 H   0  0  0  0  0  0  0  0  0  0  0  0
    3.1872   -1.9508    2.8732 H   0  0  0  0  0  0  0  0  0  0  0  0
    5.4755   -1.0737    4.7648 H   0  0  0  0  0  0  0  0  0  0  0  0
    4.4536   -2.4980    4.9768 H   0  0  0  0  0  0  0  0  0  0  0  0
    3.7454   -0.8857    5.0865 H   0  0  0  0  0  0  0  0  0  0  0  0
    6.0552   -0.1177    1.1030 H   0  0  0  0  0  0  0  0  0  0  0  0
    6.4401   -0.2998    2.8068 H   0  0  0  0  0  0  0  0  0  0  0  0
    5.3291    2.3438    1.6496 H   0  0  0  0  0  0  0  0  0  0  0  0
    7.0451    1.9998    1.9165 H   0  0  0  0  0  0  0  0  0  0  0  0
    5.9382    2.0733    3.2826 H   0  0  0  0  0  0  0  0  0  0  0  0
    1.3187    0.3608   -4.0806 H   0  0  0  0  0  0  0  0  0  0  0  0
    2.9856    0.8859   -4.2562 H   0  0  0  0  0  0  0  0  0  0  0  0
    2.1856   -1.8284   -3.8526 H   0  0  0  0  0  0  0  0  0  0  0  0
    3.8198   -1.2496   -3.5472 H   0  0  0  0  0  0  0  0  0  0  0  0
    0.0415    1.5289   -2.2776 H   0  0  0  0  0  0  0  0  0  0  0  0
    1.1098    2.8277   -2.9184 H   0  0  0  0  0  0  0  0  0  0  0  0
    0.3813    2.3995   -0.2767 H   0  0  0  0  0  0  0  0  0  0  0  0
    3.6049    2.6979   -2.6375 H   0  0  0  0  0  0  0  0  0  0  0  0
    4.4043    1.1663   -2.1402 H   0  0  0  0  0  0  0  0  0  0  0  0
  1  2  2  0  0  0  0
  1  6  1  0  0  0  0
  2  3  1  0  0  0  0
  3  4  2  0  0  0  0
  4 30  1  0  0  0  0
  5  4  1  0  0  0  0
  5  7  1  0  0  0  0
  6 31  1  0  0  0  0
  6  5  2  0  0  0  0
  7  8  2  0  0  0  0
  7  9  1  0  0  0  0
  9 32  1  0  0  0  0
 10  3  1  0  0  0  0
 10 11  1  0  0  0  0
 11 12  1  0  0  0  0
 11 34  1  0  0  0  0
 12 13  1  0  0  0  0
 13 37  1  0  0  0  0
 13 38  1  0  0  0  0
 13 39  1  0  0  0  0
 14 15  1  0  0  0  0
 14 11  1  0  0  0  0
 14 41  1  0  0  0  0
 15 44  1  0  0  0  0
 16  2  1  0  0  0  0
 17 22  1  1  0  0  0
 17 24  1  0  0  0  0
 17 16  1  0  0  0  0
 18 19  1  0  0  0  0
 18 17  1  0  0  0  0
 19 20  1  0  0  0  0
 20 16  1  0  0  0  0
 20 21  2  0  0  0  0
 22 23  1  0  0  0  0
 23 51  1  0  0  0  0
 24 25  1  0  0  0  0
 25 28  1  0  0  0  0
 25 26  1  0  0  0  0
 25 27  1  0  0  0  0
 29  1  1  0  0  0  0
 33 10  1  0  0  0  0
 35 12  1  0  0  0  0
 36 12  1  0  0  0  0
 40 14  1  0  0  0  0
 42 15  1  0  0  0  0
 43 15  1  0  0  0  0
 45 18  1  0  0  0  0
 46 18  1  0  0  0  0
 47 19  1  0  0  0  0
 48 19  1  0  0  0  0
 49 22  1  0  0  0  0
 50 22  1  0  0  0  0
 52 24  1  0  0  0  0
 53 24  1  0  0  0  0
M  END
$$$$
