53
rmsd221.gzmat
C          0.00000        0.00000        0.00000
C          1.39690        0.00000        0.00000
C          2.11670        0.00000        1.22340
C          1.40200        0.13110        2.41690
C          0.01100        0.20560        2.39430
C         -0.69800        0.10930        1.19870
C         -0.68360        0.37500        3.69170
O         -0.17720        0.40590        4.78170
O         -2.01560        0.53040        3.51340
N          3.53670       -0.05310        1.13830
C          4.33240       -0.12830        2.39990
C          5.41020       -1.22350        2.25920
C          4.79830       -2.62020        2.30090
C          4.99040        1.24880        2.63500
C          3.98010        2.29730        3.09030
N          2.12070       -0.03980       -1.22620
C          2.20380        1.10030       -2.14470
C          2.27450        0.44760       -3.56260
C          2.65140       -1.02140       -3.32740
C          2.45180       -1.26700       -1.85230
O          2.59750       -2.27380       -1.21900
C          1.02560        2.09460       -2.06420
O          1.05630        2.77650       -0.82850
C          3.55530        1.85060       -1.89740
N          3.65940        2.33920       -0.47160
H          2.77170        2.83050       -0.21800
H          3.76320        1.49940        0.19680
H          4.45400        2.97600       -0.34800
H         -0.54480       -0.11290       -0.93870
H          1.92170        0.16240        3.38440
H         -1.79510        0.10970        1.20320
H         -2.52000        0.63720        4.36500
H          3.82170       -0.79130        0.47150
H          3.68270       -0.38260        3.27850
H          6.14670       -1.12090        3.08410
H          5.99530       -1.08280        1.33140
H          4.30290       -2.81990        3.26050
H          5.56820       -3.39420        2.17150
H          4.05490       -2.78260        1.51150
H          5.52860        1.57890        1.73070
H          5.77760        1.14210        3.41370
H          3.12390        2.38180        2.41790
H          4.44350        3.28820        3.18090
H          3.57850        2.05720        4.08770
H          1.29770        0.52150       -4.07870
H          2.99360        0.95670       -4.22550
H          2.02170       -1.72080       -3.91920
H          3.69330       -1.25230       -3.62770
H          0.04980        1.59750       -2.21400
H          1.13100        2.90510       -2.81610
H          0.42300        2.38620       -0.17990
H          3.63700        2.71440       -2.59450
H          4.40890        1.16510       -2.10660
