rmsd158.gzmat
 OpenBabel08211713363D

 53 54  0  0  1  0  0  0  0  0999 V2000
    0.0000    0.0000    0.0000 C   0  0  0  0  0  0  0  0  0  0  0  0
    1.3971    0.0000    0.0000 C   0  0  0  0  0  0  0  0  0  0  0  0
    2.1161    0.0000    1.2236 C   0  0  0  0  0  0  0  0  0  0  0  0
    1.4037    0.1303    2.4181 C   0  0  0  0  0  0  0  0  0  0  0  0
    0.0128    0.2061    2.3941 C   0  0  0  0  0  0  0  0  0  0  0  0
   -0.6972    0.1104    1.1996 C   0  0  0  0  0  0  0  0  0  0  0  0
   -0.6791    0.3723    3.6931 C   0  0  0  0  0  0  0  0  0  0  0  0
   -0.1990    0.2514    4.7883 O   0  0  0  0  0  0  0  0  0  0  0  0
   -1.9716    0.7276    3.5081 O   0  0  0  0  0  0  0  0  0  0  0  0
    3.5390   -0.0400    1.1473 N   0  0  0  0  0  0  0  0  0  0  0  0
    4.3004   -0.2268    2.4185 C   0  0  0  0  0  0  0  0  0  0  0  0
    4.1108   -1.6359    3.0175 C   0  0  0  0  0  0  0  0  0  0  0  0
    4.3526   -2.7744    2.0322 C   0  0  0  0  0  0  0  0  0  0  0  0
    5.7813    0.0685    2.0882 C   0  0  0  0  0  0  0  0  0  0  0  0
    6.5556    0.4144    3.3568 C   0  0  0  0  0  0  0  0  0  0  0  0
    2.1233   -0.0402   -1.2244 N   0  0  0  0  0  0  0  0  0  0  0  0
    2.2131    1.0938   -2.1484 C   0  0  1  0  0  0  0  0  0  0  0  0
    2.3421    0.4303   -3.5572 C   0  0  0  0  0  0  0  0  0  0  0  0
    2.7357   -1.0302   -3.2974 C   0  0  0  0  0  0  0  0  0  0  0  0
    2.5186   -1.2607   -1.8223 C   0  0  0  0  0  0  0  0  0  0  0  0
    2.6970   -2.2505   -1.1699 O   0  0  0  0  0  0  0  0  0  0  0  0
    1.0111    2.0611   -2.1142 C   0  0  0  0  0  0  0  0  0  0  0  0
    1.0027    2.7655   -0.8906 O   0  0  0  0  0  0  0  0  0  0  0  0
    3.5395    1.8780   -1.8676 C   0  0  0  0  0  0  0  0  0  0  0  0
    3.5993    2.3740   -0.4407 N   0  0  0  0  0  0  0  0  0  0  0  0
    2.6874    2.8306   -0.2059 H   0  0  0  0  0  0  0  0  0  0  0  0
    3.7279    1.5442    0.2285 H   0  0  0  0  0  0  0  0  0  0  0  0
    4.3661    3.0431   -0.3085 H   0  0  0  0  0  0  0  0  0  0  0  0
   -0.5473   -0.1141   -0.9371 H   0  0  0  0  0  0  0  0  0  0  0  0
    1.9198    0.1571    3.3860 H   0  0  0  0  0  0  0  0  0  0  0  0
   -1.7942    0.1150    1.2059 H   0  0  0  0  0  0  0  0  0  0  0  0
   -2.4744    0.8485    4.3585 H   0  0  0  0  0  0  0  0  0  0  0  0
    3.8340   -0.7511    0.4547 H   0  0  0  0  0  0  0  0  0  0  0  0
    3.9363    0.5379    3.1546 H   0  0  0  0  0  0  0  0  0  0  0  0
    3.0873   -1.7302    3.4359 H   0  0  0  0  0  0  0  0  0  0  0  0
    4.7906   -1.7458    3.8889 H   0  0  0  0  0  0  0  0  0  0  0  0
    3.6037   -2.8025    1.2297 H   0  0  0  0  0  0  0  0  0  0  0  0
    4.2888   -3.7484    2.5411 H   0  0  0  0  0  0  0  0  0  0  0  0
    5.3429   -2.7248    1.5678 H   0  0  0  0  0  0  0  0  0  0  0  0
    5.8594    0.9016    1.3675 H   0  0  0  0  0  0  0  0  0  0  0  0
    6.2449   -0.8061    1.5895 H   0  0  0  0  0  0  0  0  0  0  0  0
    6.1424    1.2915    3.8677 H   0  0  0  0  0  0  0  0  0  0  0  0
    7.6072    0.6359    3.1307 H   0  0  0  0  0  0  0  0  0  0  0  0
    6.5554   -0.4169    4.0747 H   0  0  0  0  0  0  0  0  0  0  0  0
    1.3824    0.4834   -4.1067 H   0  0  0  0  0  0  0  0  0  0  0  0
    3.0733    0.9466   -4.2010 H   0  0  0  0  0  0  0  0  0  0  0  0
    2.1236   -1.7465   -3.8879 H   0  0  0  0  0  0  0  0  0  0  0  0
    3.7843   -1.2513   -3.5808 H   0  0  0  0  0  0  0  0  0  0  0  0
    0.0513    1.5371   -2.2742 H   0  0  0  0  0  0  0  0  0  0  0  0
    1.1132    2.8584   -2.8806 H   0  0  0  0  0  0  0  0  0  0  0  0
    0.3507    2.3849   -0.2545 H   0  0  0  0  0  0  0  0  0  0  0  0
    3.6153    2.7431   -2.5639 H   0  0  0  0  0  0  0  0  0  0  0  0
    4.4151    1.2145   -2.0553 H   0  0  0  0  0  0  0  0  0  0  0  0
  1  2  2  0  0  0  0
  1  6  1  0  0  0  0
  2  3  1  0  0  0  0
  3  4  2  0  0  0  0
  4 30  1  0  0  0  0
  5  4  1  0  0  0  0
  5  7  1  0  0  0  0
  6 31  1  0  0  0  0
  6  5  2  0  0  0  0
  7  8  2  0  0  0  0
  9  7  1  0  0  0  0
  9 32  1  0  0  0  0
 10  3  1  0  0  0  0
 10 11  1  0  0  0  0
 11 12  1  0  0  0  0
 11 34  1  0  0  0  0
 12 35  1  0  0  0  0
 12 36  1  0  0  0  0
 13 38  1  0  0  0  0
 13 12  1  0  0  0  0
 14 11  1  0  0  0  0
 14 15  1  0  0  0  0
 15 42  1  0  0  0  0
 15 44  1  0  0  0  0
 16  2  1  0  0  0  0
 17 22  1  1  0  0  0
 17 24  1  0  0  0  0
 17 16  1  0  0  0  0
 18 19  1  0  0  0  0
 18 17  1  0  0  0  0
 19 20  1  0  0  0  0
 20 16  1  0  0  0  0
 20 21  2  0  0  0  0
 22 23  1  0  0  0  0
 23 51  1  0  0  0  0
 24 25  1  0  0  0  0
 25 28  1  0  0  0  0
 25 26  1  0  0  0  0
 25 27  1  0  0  0  0
 29  1  1  0  0  0  0
 33 10  1  0  0  0  0
 37 13  1  0  0  0  0
 39 13  1  0  0  0  0
 40 14  1  0  0  0  0
 41 14  1  0  0  0  0
 43 15  1  0  0  0  0
 45 18  1  0  0  0  0
 46 18  1  0  0  0  0
 47 19  1  0  0  0  0
 48 19  1  0  0  0  0
 49 22  1  0  0  0  0
 50 22  1  0  0  0  0
 52 24  1  0  0  0  0
 53 24  1  0  0  0  0
M  END
$$$$
