rmsd110.gzmat
 OpenBabel08211713363D

 53 54  0  0  1  0  0  0  0  0999 V2000
    0.0000    0.0000    0.0000 C   0  0  0  0  0  0  0  0  0  0  0  0
    1.3970    0.0000    0.0000 C   0  0  0  0  0  0  0  0  0  0  0  0
    2.1170    0.0000    1.2224 C   0  0  0  0  0  0  0  0  0  0  0  0
    1.4056    0.0969    2.4200 C   0  0  0  0  0  0  0  0  0  0  0  0
    0.0136    0.1651    2.3982 C   0  0  0  0  0  0  0  0  0  0  0  0
   -0.6964    0.0910    1.2017 C   0  0  0  0  0  0  0  0  0  0  0  0
   -0.6810    0.3040    3.6991 C   0  0  0  0  0  0  0  0  0  0  0  0
   -0.1866    0.2418    4.7932 O   0  0  0  0  0  0  0  0  0  0  0  0
   -1.9982    0.5552    3.5183 O   0  0  0  0  0  0  0  0  0  0  0  0
    3.5407   -0.0120    1.1346 N   0  0  0  0  0  0  0  0  0  0  0  0
    4.3227   -0.1362    2.3948 C   0  0  0  0  0  0  0  0  0  0  0  0
    4.2688   -1.5466    3.0255 C   0  0  0  0  0  0  0  0  0  0  0  0
    4.1183   -2.6972    2.0359 C   0  0  0  0  0  0  0  0  0  0  0  0
    5.7666    0.3274    2.0847 C   0  0  0  0  0  0  0  0  0  0  0  0
    6.5071   -0.5171    1.0538 C   0  0  0  0  0  0  0  0  0  0  0  0
    2.1249   -0.0528   -1.2233 N   0  0  0  0  0  0  0  0  0  0  0  0
    2.2350    1.0788   -2.1488 C   0  0  1  0  0  0  0  0  0  0  0  0
    2.3098    0.4121   -3.5602 C   0  0  0  0  0  0  0  0  0  0  0  0
    2.6811   -1.0553   -3.3074 C   0  0  0  0  0  0  0  0  0  0  0  0
    2.4532   -1.2883   -1.8340 C   0  0  0  0  0  0  0  0  0  0  0  0
    2.5771   -2.2921   -1.1912 O   0  0  0  0  0  0  0  0  0  0  0  0
    1.0682    2.0869   -2.0873 C   0  0  0  0  0  0  0  0  0  0  0  0
    1.0989    2.7803   -0.8584 O   0  0  0  0  0  0  0  0  0  0  0  0
    3.5947    1.8144   -1.9005 C   0  0  0  0  0  0  0  0  0  0  0  0
    3.6958    2.3323   -0.4847 N   0  0  0  0  0  0  0  0  0  0  0  0
    2.8150    2.8449   -0.2506 H   0  0  0  0  0  0  0  0  0  0  0  0
    3.7799    1.5018    0.2022 H   0  0  0  0  0  0  0  0  0  0  0  0
    4.5023    2.9556   -0.3710 H   0  0  0  0  0  0  0  0  0  0  0  0
   -0.5475   -0.0997   -0.9388 H   0  0  0  0  0  0  0  0  0  0  0  0
    1.9227    0.1014    3.3877 H   0  0  0  0  0  0  0  0  0  0  0  0
   -1.7939    0.0942    1.2067 H   0  0  0  0  0  0  0  0  0  0  0  0
   -2.5040    0.6546    4.3696 H   0  0  0  0  0  0  0  0  0  0  0  0
    3.8469   -0.7351    0.4579 H   0  0  0  0  0  0  0  0  0  0  0  0
    3.8979    0.5962    3.1365 H   0  0  0  0  0  0  0  0  0  0  0  0
    3.4290   -1.5913    3.7511 H   0  0  0  0  0  0  0  0  0  0  0  0
    5.1848   -1.7013    3.6339 H   0  0  0  0  0  0  0  0  0  0  0  0
    3.1506   -2.6823    1.5171 H   0  0  0  0  0  0  0  0  0  0  0  0
    4.1718   -3.6660    2.5557 H   0  0  0  0  0  0  0  0  0  0  0  0
    4.9028   -2.7064    1.2725 H   0  0  0  0  0  0  0  0  0  0  0  0
    6.3395    0.3233    3.0387 H   0  0  0  0  0  0  0  0  0  0  0  0
    5.7521    1.3848    1.7619 H   0  0  0  0  0  0  0  0  0  0  0  0
    6.5965   -1.5638    1.3814 H   0  0  0  0  0  0  0  0  0  0  0  0
    7.5329   -0.1497    0.9097 H   0  0  0  0  0  0  0  0  0  0  0  0
    6.0222   -0.5179    0.0753 H   0  0  0  0  0  0  0  0  0  0  0  0
    1.3352    0.4827   -4.0812 H   0  0  0  0  0  0  0  0  0  0  0  0
    3.0326    0.9133   -4.2245 H   0  0  0  0  0  0  0  0  0  0  0  0
    2.0628   -1.7585   -3.9065 H   0  0  0  0  0  0  0  0  0  0  0  0
    3.7287   -1.2895   -3.5842 H   0  0  0  0  0  0  0  0  0  0  0  0
    0.0887    1.5978   -2.2377 H   0  0  0  0  0  0  0  0  0  0  0  0
    1.1867    2.8881   -2.8470 H   0  0  0  0  0  0  0  0  0  0  0  0
    0.4664    2.3948   -0.2064 H   0  0  0  0  0  0  0  0  0  0  0  0
    3.6951    2.6629   -2.6139 H   0  0  0  0  0  0  0  0  0  0  0  0
    4.4409    1.1139   -2.0887 H   0  0  0  0  0  0  0  0  0  0  0  0
  1  2  2  0  0  0  0
  1  6  1  0  0  0  0
  2  3  1  0  0  0  0
  3  4  2  0  0  0  0
  4 30  1  0  0  0  0
  5  4  1  0  0  0  0
  5  7  1  0  0  0  0
  6 31  1  0  0  0  0
  6  5  2  0  0  0  0
  7  8  2  0  0  0  0
  9  7  1  0  0  0  0
  9 32  1  0  0  0  0
 10  3  1  0  0  0  0
 10 11  1  0  0  0  0
 11 12  1  0  0  0  0
 11 34  1  0  0  0  0
 12 36  1  0  0  0  0
 12 35  1  0  0  0  0
 13 38  1  0  0  0  0
 13 12  1  0  0  0  0
 14 11  1  0  0  0  0
 14 40  1  0  0  0  0
 15 42  1  0  0  0  0
 15 14  1  0  0  0  0
 16  2  1  0  0  0  0
 17 22  1  1  0  0  0
 17 24  1  0  0  0  0
 17 16  1  0  0  0  0
 18 19  1  0  0  0  0
 18 17  1  0  0  0  0
 19 20  1  0  0  0  0
 20 16  1  0  0  0  0
 20 21  2  0  0  0  0
 22 23  1  0  0  0  0
 23 51  1  0  0  0  0
 24 25  1  0  0  0  0
 25 28  1  0  0  0  0
 25 26  1  0  0  0  0
 25 27  1  0  0  0  0
 29  1  1  0  0  0  0
 33 10  1  0  0  0  0
 37 13  1  0  0  0  0
 39 13  1  0  0  0  0
 41 14  1  0  0  0  0
 43 15  1  0  0  0  0
 44 15  1  0  0  0  0
 45 18  1  0  0  0  0
 46 18  1  0  0  0  0
 47 19  1  0  0  0  0
 48 19  1  0  0  0  0
 49 22  1  0  0  0  0
 50 22  1  0  0  0  0
 52 24  1  0  0  0  0
 53 24  1  0  0  0  0
M  END
$$$$
