35
rmsd173.gzmat
O          0.00000        0.00000        0.00000
C          1.20340        0.00000        0.00000
O          1.90010        0.00000        1.16550
C          2.15030        0.00890       -1.15720
C          1.43210       -0.07450       -2.51580
H          2.20450        0.02130       -3.34530
C          0.74370       -1.42860       -2.68600
O         -0.35930       -1.67230       -3.08370
O          1.60930       -2.41930       -2.34210
N          0.44190        0.98080       -2.64310
C          0.38800        1.75190       -3.79370
O          1.26580        1.66940       -4.62890
C         -0.76930        2.72580       -3.90930
C         -1.95180        2.29270       -3.14430
C         -2.91310        1.37860       -3.55130
N         -3.83770        1.18370       -2.52540
H         -4.57270        0.51520       -2.52700
C         -3.45620        1.96460       -1.43320
C         -2.27610        2.68630       -1.79880
C         -1.68940        3.54870       -0.86670
C         -2.27100        3.67320        0.38100
C         -3.43620        2.95340        0.72580
C         -4.04500        2.09380       -0.16820
H          1.32340       -0.00130        1.97000
H          2.88130       -0.83070       -1.05740
H          2.76990        0.93670       -1.11820
H          1.23670       -3.32880       -2.44400
H         -0.33440        0.95020       -1.98100
H         -1.00820        2.85420       -4.99210
H         -0.42130        3.73160       -3.57810
H         -2.99970        0.85300       -4.48610
H         -0.79170        4.10290       -1.12680
H         -1.82960        4.33620        1.12190
H         -3.85620        3.08440        1.72250
H         -4.93580        1.53480        0.09410
