35

O         -0.00170       -0.42590        0.18790
C          1.18390       -0.20590        0.17570
O          1.89430        0.06290        1.28650
C          2.04530       -0.18460       -1.07030
C          3.44950       -0.79860       -0.87900
H          3.90050       -0.87000       -1.88400
C          4.37980        0.06560       -0.03990
O          5.01300       -0.32260        0.90800
O          4.43510        1.32600       -0.50030
N          3.40190       -2.10970       -0.28030
C          2.79200       -3.16430       -0.89440
O          2.46670       -3.14230       -2.07020
C          2.43680       -4.31860        0.04860
C          1.30220       -3.84290        0.91340
C         -0.02450       -3.77700        0.54760
N         -0.74040       -3.07250        1.49170
H         -1.69210       -2.75530        1.36850
C          0.11710       -2.61120        2.46240
C          1.41850       -3.10680        2.14900
C          2.49920       -2.75930        2.98080
C          2.27840       -1.91360        4.06320
C          0.98810       -1.40860        4.33880
C         -0.10830       -1.75700        3.54910
H          1.32530       -0.07920        2.06700
H          2.14340        0.85750       -1.41320
H          1.51360       -0.75130       -1.84410
H          5.03970        1.81440        0.08400
H          3.61500       -2.14260        0.71090
H          3.30550       -4.60890        0.66110
H          2.14950       -5.17370       -0.57610
H         -0.50830       -4.16250       -0.34750
H          3.50650       -3.13250        2.77690
H          3.11410       -1.62580        4.70420
H          0.84410       -0.74030        5.19100
H         -1.10510       -1.36510        3.76250
