rmsd136.gzmat
 OpenBabel08211713373D

 35 36  0  0  1  0  0  0  0  0999 V2000
    0.0000    0.0000    0.0000 O   0  0  0  0  0  0  0  0  0  0  0  0
    1.1997    0.0000    0.0000 C   0  0  0  0  0  0  0  0  0  0  0  0
    1.9133    0.0000    1.1555 O   0  0  0  0  0  0  0  0  0  0  0  0
    2.1515   -0.0028   -1.1612 C   0  0  0  0  0  0  0  0  0  0  0  0
    2.5356   -1.4534   -1.5308 C   0  0  1  0  0  0  0  0  0  0  0  0
    1.7480   -1.9073   -2.2108 H   0  0  0  0  0  0  0  0  0  0  0  0
    3.8638   -1.3963   -2.2860 C   0  0  0  0  0  0  0  0  0  0  0  0
    4.9765   -1.6071   -1.8966 O   0  0  0  0  0  0  0  0  0  0  0  0
    3.6176   -1.0104   -3.5646 O   0  0  0  0  0  0  0  0  0  0  0  0
    2.7038   -2.2845   -0.3507 N   0  0  0  0  0  0  0  0  0  0  0  0
    2.1484   -3.5563   -0.3116 C   0  0  0  0  0  0  0  0  0  0  0  0
    1.6538   -4.0465   -1.3021 O   0  0  0  0  0  0  0  0  0  0  0  0
    2.2071   -4.2496    1.0382 C   0  0  0  0  0  0  0  0  0  0  0  0
    1.4538   -3.4533    2.0248 C   0  0  0  0  0  0  0  0  0  0  0  0
    0.0761   -3.4376    2.1940 C   0  0  0  0  0  0  0  0  0  0  0  0
   -0.2655   -2.4995    3.1681 N   0  0  0  0  0  0  0  0  0  0  0  0
   -1.1885   -2.2720    3.4598 H   0  0  0  0  0  0  0  0  0  0  0  0
    0.9042   -1.8971    3.6294 C   0  0  0  0  0  0  0  0  0  0  0  0
    2.0082   -2.4881    2.9342 C   0  0  0  0  0  0  0  0  0  0  0  0
    3.3075   -2.0528    3.2214 C   0  0  0  0  0  0  0  0  0  0  0  0
    3.4790   -1.0481    4.1540 C   0  0  0  0  0  0  0  0  0  0  0  0
    2.3785   -0.4664    4.8224 C   0  0  0  0  0  0  0  0  0  0  0  0
    1.0836   -0.8787    4.5759 C   0  0  0  0  0  0  0  0  0  0  0  0
    1.3716   -0.1476    1.9745 H   0  0  0  0  0  0  0  0  0  0  0  0
    3.0552    0.5976   -0.9065 H   0  0  0  0  0  0  0  0  0  0  0  0
    1.6849    0.4983   -2.0390 H   0  0  0  0  0  0  0  0  0  0  0  0
    4.4221   -0.9713   -4.1368 H   0  0  0  0  0  0  0  0  0  0  0  0
    3.0595   -1.8310    0.4849 H   0  0  0  0  0  0  0  0  0  0  0  0
    3.2627   -4.4050    1.3515 H   0  0  0  0  0  0  0  0  0  0  0  0
    1.7822   -5.2755    0.9308 H   0  0  0  0  0  0  0  0  0  0  0  0
   -0.6776   -4.0142    1.6854 H   0  0  0  0  0  0  0  0  0  0  0  0
    4.1599   -2.5046    2.7176 H   0  0  0  0  0  0  0  0  0  0  0  0
    4.4802   -0.6881    4.3871 H   0  0  0  0  0  0  0  0  0  0  0  0
    2.5678    0.3235    5.5495 H   0  0  0  0  0  0  0  0  0  0  0  0
    0.2364   -0.4420    5.0939 H   0  0  0  0  0  0  0  0  0  0  0  0
  2  1  2  0  0  0  0
  2  3  1  0  0  0  0
  3 24  1  0  0  0  0
  4 25  1  0  0  0  0
  4  2  1  0  0  0  0
  5  6  1  6  0  0  0
  5  4  1  0  0  0  0
  5 10  1  0  0  0  0
  7  8  2  0  0  0  0
  7  5  1  0  0  0  0
  9  7  1  0  0  0  0
 10 11  1  0  0  0  0
 10 28  1  0  0  0  0
 11 13  1  0  0  0  0
 12 11  2  0  0  0  0
 13 29  1  0  0  0  0
 13 14  1  0  0  0  0
 14 15  2  0  0  0  0
 14 19  1  0  0  0  0
 15 16  1  0  0  0  0
 16 17  1  0  0  0  0
 16 18  1  0  0  0  0
 18 23  2  0  0  0  0
 19 20  2  0  0  0  0
 19 18  1  0  0  0  0
 20 21  1  0  0  0  0
 21 33  1  0  0  0  0
 21 22  2  0  0  0  0
 22 34  1  0  0  0  0
 23 22  1  0  0  0  0
 23 35  1  0  0  0  0
 26  4  1  0  0  0  0
 27  9  1  0  0  0  0
 30 13  1  0  0  0  0
 31 15  1  0  0  0  0
 32 20  1  0  0  0  0
M  END
$$$$
