35
rmsd111.gzmat
O          0.00000        0.00000        0.00000
C          1.19890        0.00000        0.00000
O          1.91670        0.00000        1.15230
C          2.13870        0.00720       -1.17050
C          2.57090       -1.43280       -1.51280
H          1.70930       -2.00970       -1.97420
C          3.70760       -1.33210       -2.53360
O          4.88220       -1.18470       -2.34970
O          3.18300       -1.39870       -3.78200
N          3.06990       -2.13720       -0.34170
C          2.80700       -3.49030       -0.18300
O          2.27600       -4.12300       -1.06980
C          3.25740       -4.10490        1.12910
C          2.92920       -3.24220        2.27830
C          3.80560       -2.72010        3.21780
N          3.10400       -1.90870        4.11250
H          3.49200       -1.43040        4.89140
C          1.75730       -1.91600        3.75160
C          1.61500       -2.75560        2.60150
C          0.34920       -2.93030        2.03080
C         -0.72600       -2.26990        2.59300
C         -0.56870       -1.43430        3.72120
C          0.66380       -1.24380        4.31570
H          1.37750       -0.15560        1.97310
H          3.02600        0.64240       -0.94230
H          1.63900        0.47300       -2.05050
H          3.85620       -1.38020       -4.50560
H          3.40750       -1.57230        0.43010
H          4.34600       -4.32920        1.07070
H          2.76270       -5.10260        1.23630
H          4.86690       -2.86030        3.31350
H          0.22810       -3.57460        1.15960
H         -1.72040       -2.38280        2.16140
H         -1.45000       -0.93440        4.12430
H          0.78490       -0.61060        5.18750
