rmsd239.gzmat
 OpenBabel08211713373D

 35 36  0  0  1  0  0  0  0  0999 V2000
    0.0000    0.0000    0.0000 O   0  0  0  0  0  0  0  0  0  0  0  0
    1.2017    0.0000    0.0000 C   0  0  0  0  0  0  0  0  0  0  0  0
    1.8933    0.0000    1.1689 O   0  0  0  0  0  0  0  0  0  0  0  0
    2.1092   -0.0054   -1.1904 C   0  0  0  0  0  0  0  0  0  0  0  0
    3.6140   -0.0992   -0.8908 C   0  0  1  0  0  0  0  0  0  0  0  0
    4.1882   -0.1065   -1.8720 H   0  0  0  0  0  0  0  0  0  0  0  0
    4.0896    1.1190   -0.0979 C   0  0  0  0  0  0  0  0  0  0  0  0
    4.8199    1.1673    0.8503 O   0  0  0  0  0  0  0  0  0  0  0  0
    3.5924    2.2492   -0.6682 O   0  0  0  0  0  0  0  0  0  0  0  0
    3.9181   -1.3101   -0.1450 N   0  0  0  0  0  0  0  0  0  0  0  0
    5.0921   -2.0023   -0.4004 C   0  0  0  0  0  0  0  0  0  0  0  0
    5.7529   -1.7386   -1.3853 O   0  0  0  0  0  0  0  0  0  0  0  0
    5.4907   -3.1036    0.5628 C   0  0  0  0  0  0  0  0  0  0  0  0
    4.5363   -3.3478    1.6585 C   0  0  0  0  0  0  0  0  0  0  0  0
    3.7280   -4.4617    1.8244 C   0  0  0  0  0  0  0  0  0  0  0  0
    2.9477   -4.3076    2.9732 N   0  0  0  0  0  0  0  0  0  0  0  0
    2.2695   -4.9514    3.3058 H   0  0  0  0  0  0  0  0  0  0  0  0
    3.2529   -3.0760    3.5522 C   0  0  0  0  0  0  0  0  0  0  0  0
    4.2612   -2.4521    2.7529 C   0  0  0  0  0  0  0  0  0  0  0  0
    4.7360   -1.1865    3.1162 C   0  0  0  0  0  0  0  0  0  0  0  0
    4.2073   -0.5789    4.2390 C   0  0  0  0  0  0  0  0  0  0  0  0
    3.2107   -1.2081    5.0171 C   0  0  0  0  0  0  0  0  0  0  0  0
    2.7183   -2.4570    4.6905 C   0  0  0  0  0  0  0  0  0  0  0  0
    1.3237    0.0106    1.9788 H   0  0  0  0  0  0  0  0  0  0  0  0
    1.9076    0.9184   -1.7902 H   0  0  0  0  0  0  0  0  0  0  0  0
    1.8125   -0.8569   -1.8505 H   0  0  0  0  0  0  0  0  0  0  0  0
    3.8753    3.0815   -0.2168 H   0  0  0  0  0  0  0  0  0  0  0  0
    3.4101   -1.4320    0.7278 H   0  0  0  0  0  0  0  0  0  0  0  0
    6.4948   -2.8329    0.9788 H   0  0  0  0  0  0  0  0  0  0  0  0
    5.6759   -4.0289   -0.0318 H   0  0  0  0  0  0  0  0  0  0  0  0
    3.6500   -5.3441    1.2167 H   0  0  0  0  0  0  0  0  0  0  0  0
    5.4933   -0.6882    2.5083 H   0  0  0  0  0  0  0  0  0  0  0  0
    4.5569    0.4093    4.5341 H   0  0  0  0  0  0  0  0  0  0  0  0
    2.8273   -0.6870    5.8941 H   0  0  0  0  0  0  0  0  0  0  0  0
    1.9542   -2.9433    5.2852 H   0  0  0  0  0  0  0  0  0  0  0  0
  1  2  2  0  0  0  0
  2  3  1  0  0  0  0
  3 24  1  0  0  0  0
  4  5  1  0  0  0  0
  4  2  1  0  0  0  0
  5  6  1  6  0  0  0
  5 10  1  0  0  0  0
  5  7  1  0  0  0  0
  7  8  2  0  0  0  0
  9 27  1  0  0  0  0
  9  7  1  0  0  0  0
 10 28  1  0  0  0  0
 11 10  1  0  0  0  0
 11 13  1  0  0  0  0
 12 11  2  0  0  0  0
 13 29  1  0  0  0  0
 13 14  1  0  0  0  0
 14 15  2  0  0  0  0
 14 19  1  0  0  0  0
 15 16  1  0  0  0  0
 16 17  1  0  0  0  0
 16 18  1  0  0  0  0
 18 23  2  0  0  0  0
 19 20  2  0  0  0  0
 19 18  1  0  0  0  0
 20 21  1  0  0  0  0
 21 33  1  0  0  0  0
 21 22  2  0  0  0  0
 22 34  1  0  0  0  0
 23 22  1  0  0  0  0
 23 35  1  0  0  0  0
 25  4  1  0  0  0  0
 26  4  1  0  0  0  0
 30 13  1  0  0  0  0
 31 15  1  0  0  0  0
 32 20  1  0  0  0  0
M  END
$$$$
