35
rmsd118.gzmat
O          0.00000        0.00000        0.00000
C          1.20280        0.00000        0.00000
O          1.91020        0.00000        1.15480
C          2.13490       -0.01950       -1.17380
C          2.52170        1.42860       -1.55300
H          3.01700        1.94270       -0.67070
C          3.48820        1.33870       -2.73140
O          3.23050        1.12120       -3.88290
O          4.75610        1.51760       -2.29760
N          1.37760        2.20380       -1.99970
C          0.79570        3.13800       -1.14780
O          1.34450        3.45610       -0.11550
C         -0.52410        3.72210       -1.61290
C         -1.36030        2.69410       -2.25880
C         -2.06940        1.68470       -1.62290
N         -2.68600        0.87500       -2.57590
H         -3.21040        0.05250       -2.38670
C         -2.35180        1.35230       -3.84470
C         -1.52150        2.50570       -3.67520
C         -1.03700        3.17120       -4.80600
C         -1.37090        2.68350       -6.05560
C         -2.19200        1.54460       -6.20620
C         -2.69630        0.86650       -5.11270
H          1.35180        0.09420        1.96700
H          1.64360       -0.53570       -2.02910
H          3.05140       -0.60510       -0.93370
H          5.43640        1.48590       -3.01640
H          0.87370        1.85840       -2.81290
H         -0.32960        4.57940       -2.29650
H         -1.04050        4.17130       -0.73130
H         -2.15570        1.47200       -0.56950
H         -0.40750        4.05080       -4.69410
H         -0.99590        3.17870       -6.94930
H         -2.42650        1.20010       -7.21270
H         -3.33050       -0.00550       -5.22560
