35
rmsd239.gzmat
O          0.00000        0.00000        0.00000
C          1.20170        0.00000        0.00000
O          1.89330        0.00000        1.16890
C          2.10920       -0.00540       -1.19040
C          3.61400       -0.09920       -0.89080
H          4.18820       -0.10650       -1.87200
C          4.08960        1.11900       -0.09790
O          4.81990        1.16730        0.85030
O          3.59240        2.24920       -0.66820
N          3.91810       -1.31010       -0.14500
C          5.09210       -2.00230       -0.40040
O          5.75290       -1.73860       -1.38530
C          5.49070       -3.10360        0.56280
C          4.53630       -3.34780        1.65850
C          3.72800       -4.46170        1.82440
N          2.94770       -4.30760        2.97320
H          2.26950       -4.95140        3.30580
C          3.25290       -3.07600        3.55220
C          4.26120       -2.45210        2.75290
C          4.73600       -1.18650        3.11620
C          4.20730       -0.57890        4.23900
C          3.21070       -1.20810        5.01710
C          2.71830       -2.45700        4.69050
H          1.32370        0.01060        1.97880
H          1.90760        0.91840       -1.79020
H          1.81250       -0.85690       -1.85050
H          3.87530        3.08150       -0.21680
H          3.41010       -1.43200        0.72780
H          6.49480       -2.83290        0.97880
H          5.67590       -4.02890       -0.03180
H          3.65000       -5.34410        1.21670
H          5.49330       -0.68820        2.50830
H          4.55690        0.40930        4.53410
H          2.82730       -0.68700        5.89410
H          1.95420       -2.94330        5.28520
