rmsd128.gzmat
 OpenBabel08211713373D

 35 36  0  0  1  0  0  0  0  0999 V2000
    0.0000    0.0000    0.0000 O   0  0  0  0  0  0  0  0  0  0  0  0
    1.2025    0.0000    0.0000 C   0  0  0  0  0  0  0  0  0  0  0  0
    1.8969    0.0000    1.1659 O   0  0  0  0  0  0  0  0  0  0  0  0
    2.1135    0.0023   -1.1885 C   0  0  0  0  0  0  0  0  0  0  0  0
    3.4372   -0.7673   -0.9803 C   0  0  1  0  0  0  0  0  0  0  0  0
    3.8606   -1.0454   -1.9951 H   0  0  0  0  0  0  0  0  0  0  0  0
    4.4525    0.1097   -0.2559 C   0  0  0  0  0  0  0  0  0  0  0  0
    5.0367   -0.0841    0.7710 O   0  0  0  0  0  0  0  0  0  0  0  0
    4.6684    1.2314   -0.9955 O   0  0  0  0  0  0  0  0  0  0  0  0
    3.2502   -1.9734   -0.1877 N   0  0  0  0  0  0  0  0  0  0  0  0
    2.8998   -3.1667   -0.8016 C   0  0  0  0  0  0  0  0  0  0  0  0
    2.9728   -3.2932   -2.0045 O   0  0  0  0  0  0  0  0  0  0  0  0
    2.4385   -4.2641    0.1437 C   0  0  0  0  0  0  0  0  0  0  0  0
    1.3088   -3.7677    0.9529 C   0  0  0  0  0  0  0  0  0  0  0  0
   -0.0311   -3.7728    0.5912 C   0  0  0  0  0  0  0  0  0  0  0  0
   -0.7862   -3.1401    1.5786 N   0  0  0  0  0  0  0  0  0  0  0  0
   -1.7583   -2.9366    1.5251 H   0  0  0  0  0  0  0  0  0  0  0  0
    0.0786   -2.6963    2.5777 C   0  0  0  0  0  0  0  0  0  0  0  0
    1.4063   -3.0977    2.2225 C   0  0  0  0  0  0  0  0  0  0  0  0
    2.4665   -2.7777    3.0789 C   0  0  0  0  0  0  0  0  0  0  0  0
    2.1974   -2.0609    4.2292 C   0  0  0  0  0  0  0  0  0  0  0  0
    0.8835   -1.6605    4.5583 C   0  0  0  0  0  0  0  0  0  0  0  0
   -0.1903   -1.9729    3.7479 C   0  0  0  0  0  0  0  0  0  0  0  0
    1.3273   -0.1086    1.9729 H   0  0  0  0  0  0  0  0  0  0  0  0
    2.3233    1.0546   -1.4940 H   0  0  0  0  0  0  0  0  0  0  0  0
    1.5637   -0.4492   -2.0507 H   0  0  0  0  0  0  0  0  0  0  0  0
    5.3222    1.8533   -0.5932 H   0  0  0  0  0  0  0  0  0  0  0  0
    3.0839   -1.8216    0.8065 H   0  0  0  0  0  0  0  0  0  0  0  0
    3.2839   -4.6024    0.7825 H   0  0  0  0  0  0  0  0  0  0  0  0
    2.1530   -5.1581   -0.4573 H   0  0  0  0  0  0  0  0  0  0  0  0
   -0.4949   -4.1757   -0.2922 H   0  0  0  0  0  0  0  0  0  0  0  0
    3.4808   -3.0909    2.8371 H   0  0  0  0  0  0  0  0  0  0  0  0
    3.0094   -1.7954    4.9050 H   0  0  0  0  0  0  0  0  0  0  0  0
    0.7240   -1.0975    5.4781 H   0  0  0  0  0  0  0  0  0  0  0  0
   -1.2026   -1.6768    4.0012 H   0  0  0  0  0  0  0  0  0  0  0  0
  2  1  2  0  0  0  0
  2  3  1  0  0  0  0
  3 24  1  0  0  0  0
  4  5  1  0  0  0  0
  4  2  1  0  0  0  0
  5  6  1  6  0  0  0
  5  7  1  0  0  0  0
  5 10  1  0  0  0  0
  7  8  2  0  0  0  0
  9 27  1  0  0  0  0
  9  7  1  0  0  0  0
 10 28  1  0  0  0  0
 11 10  1  0  0  0  0
 11 13  1  0  0  0  0
 12 11  2  0  0  0  0
 13 29  1  0  0  0  0
 13 14  1  0  0  0  0
 14 19  1  0  0  0  0
 15 14  2  0  0  0  0
 15 16  1  0  0  0  0
 16 18  1  0  0  0  0
 17 16  1  0  0  0  0
 18 23  1  0  0  0  0
 19 18  2  0  0  0  0
 19 20  1  0  0  0  0
 20 21  2  0  0  0  0
 21 22  1  0  0  0  0
 21 33  1  0  0  0  0
 22 34  1  0  0  0  0
 23 35  1  0  0  0  0
 23 22  2  0  0  0  0
 25  4  1  0  0  0  0
 26  4  1  0  0  0  0
 30 13  1  0  0  0  0
 31 15  1  0  0  0  0
 32 20  1  0  0  0  0
M  END
$$$$
