
     RDKit          3D

 35 36  0  0  0  0  0  0  0  0999 V2000
   -0.0017   -0.4259    0.1879 O   0  0  0  0  0  0  0  0  0  0  0  0
    1.1839   -0.2059    0.1757 C   0  0  0  0  0  0  0  0  0  0  0  0
    1.8943    0.0629    1.2865 O   0  0  0  0  0  0  0  0  0  0  0  0
    2.0453   -0.1846   -1.0703 C   0  0  0  0  0  0  0  0  0  0  0  0
    3.4495   -0.7986   -0.8790 C   0  0  1  0  0  0  0  0  0  0  0  0
    3.9005   -0.8700   -1.8840 H   0  0  0  0  0  0  0  0  0  0  0  0
    4.3798    0.0656   -0.0399 C   0  0  0  0  0  0  0  0  0  0  0  0
    5.0130   -0.3226    0.9080 O   0  0  0  0  0  0  0  0  0  0  0  0
    4.4351    1.3260   -0.5003 O   0  0  0  0  0  0  0  0  0  0  0  0
    3.4019   -2.1097   -0.2803 N   0  0  0  0  0  0  0  0  0  0  0  0
    2.7920   -3.1643   -0.8944 C   0  0  0  0  0  0  0  0  0  0  0  0
    2.4667   -3.1423   -2.0702 O   0  0  0  0  0  0  0  0  0  0  0  0
    2.4368   -4.3186    0.0486 C   0  0  0  0  0  0  0  0  0  0  0  0
    1.3022   -3.8429    0.9134 C   0  0  0  0  0  0  0  0  0  0  0  0
   -0.0245   -3.7770    0.5476 C   0  0  0  0  0  0  0  0  0  0  0  0
   -0.7404   -3.0725    1.4917 N   0  0  0  0  0  0  0  0  0  0  0  0
   -1.6921   -2.7553    1.3685 H   0  0  0  0  0  0  0  0  0  0  0  0
    0.1171   -2.6112    2.4624 C   0  0  0  0  0  0  0  0  0  0  0  0
    1.4185   -3.1068    2.1490 C   0  0  0  0  0  0  0  0  0  0  0  0
    2.4992   -2.7593    2.9808 C   0  0  0  0  0  0  0  0  0  0  0  0
    2.2784   -1.9136    4.0632 C   0  0  0  0  0  0  0  0  0  0  0  0
    0.9881   -1.4086    4.3388 C   0  0  0  0  0  0  0  0  0  0  0  0
   -0.1083   -1.7570    3.5491 C   0  0  0  0  0  0  0  0  0  0  0  0
    1.3253   -0.0792    2.0670 H   0  0  0  0  0  0  0  0  0  0  0  0
    2.1434    0.8575   -1.4132 H   0  0  0  0  0  0  0  0  0  0  0  0
    1.5136   -0.7513   -1.8441 H   0  0  0  0  0  0  0  0  0  0  0  0
    5.0397    1.8144    0.0840 H   0  0  0  0  0  0  0  0  0  0  0  0
    3.6150   -2.1426    0.7109 H   0  0  0  0  0  0  0  0  0  0  0  0
    3.3055   -4.6089    0.6611 H   0  0  0  0  0  0  0  0  0  0  0  0
    2.1495   -5.1737   -0.5761 H   0  0  0  0  0  0  0  0  0  0  0  0
   -0.5083   -4.1625   -0.3475 H   0  0  0  0  0  0  0  0  0  0  0  0
    3.5065   -3.1325    2.7769 H   0  0  0  0  0  0  0  0  0  0  0  0
    3.1141   -1.6258    4.7042 H   0  0  0  0  0  0  0  0  0  0  0  0
    0.8441   -0.7403    5.1910 H   0  0  0  0  0  0  0  0  0  0  0  0
   -1.1051   -1.3651    3.7625 H   0  0  0  0  0  0  0  0  0  0  0  0
  1  2  2  0
  2  3  1  0
  2  4  1  0
  3 24  1  0
  4  5  1  0
  4 25  1  0
  4 26  1  0
  5  6  1  6
  5  7  1  0
  5 10  1  0
  7  8  2  0
  7  9  1  0
  9 27  1  0
 10 11  1  0
 10 28  1  0
 11 12  2  0
 11 13  1  0
 13 14  1  0
 13 29  1  0
 13 30  1  0
 14 15  2  0
 14 19  1  0
 15 16  1  0
 15 31  1  0
 16 17  1  0
 16 18  1  0
 18 19  2  0
 18 23  1  0
 19 20  1  0
 20 21  2  0
 20 32  1  0
 21 22  1  0
 21 33  1  0
 22 23  2  0
 22 34  1  0
 23 35  1  0
M  END

