rmsd130.gzmat
 OpenBabel08211713373D

 35 36  0  0  1  0  0  0  0  0999 V2000
    0.0000    0.0000    0.0000 O   0  0  0  0  0  0  0  0  0  0  0  0
    1.2017    0.0000    0.0000 C   0  0  0  0  0  0  0  0  0  0  0  0
    1.8934    0.0000    1.1696 O   0  0  0  0  0  0  0  0  0  0  0  0
    2.1099    0.0108   -1.1895 C   0  0  0  0  0  0  0  0  0  0  0  0
    3.5901   -0.3001   -0.9025 C   0  0  1  0  0  0  0  0  0  0  0  0
    4.1516   -0.3678   -1.8878 H   0  0  0  0  0  0  0  0  0  0  0  0
    4.2246    0.8206   -0.0805 C   0  0  0  0  0  0  0  0  0  0  0  0
    4.8574    0.7530    0.9339 O   0  0  0  0  0  0  0  0  0  0  0  0
    4.0094    2.0093   -0.7063 O   0  0  0  0  0  0  0  0  0  0  0  0
    3.7161   -1.5526   -0.1776 N   0  0  0  0  0  0  0  0  0  0  0  0
    4.6079   -2.5277   -0.5913 C   0  0  0  0  0  0  0  0  0  0  0  0
    5.2019   -2.4156   -1.6442 O   0  0  0  0  0  0  0  0  0  0  0  0
    4.7338   -3.7537    0.2954 C   0  0  0  0  0  0  0  0  0  0  0  0
    4.2919   -3.5136    1.6806 C   0  0  0  0  0  0  0  0  0  0  0  0
    5.0842   -3.1173    2.7477 C   0  0  0  0  0  0  0  0  0  0  0  0
    4.2871   -2.9263    3.8774 N   0  0  0  0  0  0  0  0  0  0  0  0
    4.5960   -2.5707    4.7520 H   0  0  0  0  0  0  0  0  0  0  0  0
    2.9605   -3.1821    3.5303 C   0  0  0  0  0  0  0  0  0  0  0  0
    2.9327   -3.5683    2.1529 C   0  0  0  0  0  0  0  0  0  0  0  0
    1.7049   -3.8701    1.5535 C   0  0  0  0  0  0  0  0  0  0  0  0
    0.5553   -3.7818    2.3155 C   0  0  0  0  0  0  0  0  0  0  0  0
    0.6003   -3.4029    3.6755 C   0  0  0  0  0  0  0  0  0  0  0  0
    1.7936   -3.0994    4.3022 C   0  0  0  0  0  0  0  0  0  0  0  0
    1.3193   -0.0194    1.9761 H   0  0  0  0  0  0  0  0  0  0  0  0
    2.0276    1.0069   -1.6914 H   0  0  0  0  0  0  0  0  0  0  0  0
    1.7196   -0.7296   -1.9300 H   0  0  0  0  0  0  0  0  0  0  0  0
    4.4046    2.7836   -0.2371 H   0  0  0  0  0  0  0  0  0  0  0  0
    3.3173   -1.5607    0.7597 H   0  0  0  0  0  0  0  0  0  0  0  0
    5.7939   -4.0987    0.2581 H   0  0  0  0  0  0  0  0  0  0  0  0
    4.1520   -4.5825   -0.1726 H   0  0  0  0  0  0  0  0  0  0  0  0
    6.1464   -2.9505    2.7818 H   0  0  0  0  0  0  0  0  0  0  0  0
    1.6676   -4.1641    0.5071 H   0  0  0  0  0  0  0  0  0  0  0  0
   -0.4114   -4.0084    1.8686 H   0  0  0  0  0  0  0  0  0  0  0  0
   -0.3333   -3.3562    4.2360 H   0  0  0  0  0  0  0  0  0  0  0  0
    1.8331   -2.8121    5.3472 H   0  0  0  0  0  0  0  0  0  0  0  0
  1  2  2  0  0  0  0
  2  3  1  0  0  0  0
  3 24  1  0  0  0  0
  4  5  1  0  0  0  0
  4  2  1  0  0  0  0
  5  6  1  6  0  0  0
  5 10  1  0  0  0  0
  5  7  1  0  0  0  0
  7  8  2  0  0  0  0
  9 27  1  0  0  0  0
  9  7  1  0  0  0  0
 10 28  1  0  0  0  0
 11 10  1  0  0  0  0
 11 13  1  0  0  0  0
 12 11  2  0  0  0  0
 13 14  1  0  0  0  0
 14 19  1  0  0  0  0
 14 15  2  0  0  0  0
 15 31  1  0  0  0  0
 15 16  1  0  0  0  0
 16 17  1  0  0  0  0
 18 16  1  0  0  0  0
 18 23  2  0  0  0  0
 19 18  1  0  0  0  0
 20 19  2  0  0  0  0
 20 21  1  0  0  0  0
 21 22  2  0  0  0  0
 22 34  1  0  0  0  0
 22 23  1  0  0  0  0
 23 35  1  0  0  0  0
 25  4  1  0  0  0  0
 26  4  1  0  0  0  0
 29 13  1  0  0  0  0
 30 13  1  0  0  0  0
 32 20  1  0  0  0  0
 33 21  1  0  0  0  0
M  END
$$$$
