35

O         -0.56020       -0.81620       -0.52870
C          0.36200       -0.10910       -0.19260
O          0.41010        0.50800        0.99670
C          1.57540        0.18070       -1.04290
C          1.48910       -0.50630       -2.40750
H          2.40610       -0.27420       -2.97590
C          1.43440       -2.03140       -2.30710
O          0.81410       -2.75480       -3.04370
O          2.21430       -2.49720       -1.31390
N          0.39930       -0.01890       -3.20810
C          0.60190        0.36060       -4.51010
O          1.71630        0.50080       -4.98390
C         -0.66430        0.66380       -5.30520
C         -1.83860       -0.24310       -5.07110
C         -1.82300       -1.57390       -4.70180
N         -3.11520       -2.05730       -4.65620
H         -3.37030       -2.99330       -4.37390
C         -3.99890       -1.05560       -4.99220
C         -3.22490        0.11030       -5.26720
C         -3.88620        1.29310       -5.64600
C         -5.27490        1.29350       -5.73240
C         -6.02260        0.12950       -5.45070
C         -5.39700       -1.05750       -5.07830
H         -0.40410        0.27230        1.47480
H          2.47000       -0.14140       -0.48970
H          1.65830        1.27010       -1.17840
H          2.14950       -3.46750       -1.33380
H         -0.53880       -0.27750       -2.91790
H         -0.35400        0.67240       -6.36190
H         -0.95150        1.70310       -5.06480
H         -0.97940       -2.20970       -4.43730
H         -3.31730        2.19870       -5.87130
H         -5.79890        2.20650       -6.02480
H         -7.11200        0.15990       -5.52810
H         -5.97710       -1.95790       -4.86240
