35
rmsd128.gzmat
O          0.00000        0.00000        0.00000
C          1.20250        0.00000        0.00000
O          1.89690        0.00000        1.16590
C          2.11350        0.00230       -1.18850
C          3.43720       -0.76730       -0.98030
H          3.86060       -1.04540       -1.99510
C          4.45250        0.10970       -0.25590
O          5.03670       -0.08410        0.77100
O          4.66840        1.23140       -0.99550
N          3.25020       -1.97340       -0.18770
C          2.89980       -3.16670       -0.80160
O          2.97280       -3.29320       -2.00450
C          2.43850       -4.26410        0.14370
C          1.30880       -3.76770        0.95290
C         -0.03110       -3.77280        0.59120
N         -0.78620       -3.14010        1.57860
H         -1.75830       -2.93660        1.52510
C          0.07860       -2.69630        2.57770
C          1.40630       -3.09770        2.22250
C          2.46650       -2.77770        3.07890
C          2.19740       -2.06090        4.22920
C          0.88350       -1.66050        4.55830
C         -0.19030       -1.97290        3.74790
H          1.32730       -0.10860        1.97290
H          2.32330        1.05460       -1.49400
H          1.56370       -0.44920       -2.05070
H          5.32220        1.85330       -0.59320
H          3.08390       -1.82160        0.80650
H          3.28390       -4.60240        0.78250
H          2.15300       -5.15810       -0.45730
H         -0.49490       -4.17570       -0.29220
H          3.48080       -3.09090        2.83710
H          3.00940       -1.79540        4.90500
H          0.72400       -1.09750        5.47810
H         -1.20260       -1.67680        4.00120
