35

O         -0.17580       -0.89240       -0.52190
C          0.85310       -0.34370       -0.21810
O          1.13010        0.09380        1.02100
C          2.01110       -0.12130       -1.17060
C          2.62830       -1.48870       -1.52460
H          1.88000       -2.08740       -2.06760
C          3.83190       -1.32110       -2.44930
O          4.95950       -1.65080       -2.19170
O          3.47640       -0.73460       -3.60800
N          2.97250       -2.22550       -0.34110
C          2.76250       -3.57240       -0.23910
O          2.27930       -4.23670       -1.13690
C          3.18060       -4.18210        1.10510
C          2.95360       -3.27840        2.27600
C          3.88900       -2.75650        3.14230
N          3.27420       -1.91040        4.04690
H          3.74450       -1.40220        4.78280
C          1.92400       -1.85500        3.77620
C          1.68130       -2.71770        2.66740
C          0.37970       -2.82660        2.14950
C         -0.64000       -2.07920        2.73440
C         -0.38100       -1.22850        3.83350
C          0.90060       -1.10580        4.36960
H          0.41130       -0.20660        1.61260
H          2.76230        0.53690       -0.71020
H          1.63850        0.35180       -2.08890
H          4.28140       -0.65880       -4.14860
H          3.40900       -1.74330        0.43650
H          4.24630       -4.45450        1.02870
H          2.61580       -5.12270        1.19000
H          4.96280       -2.93130        3.18400
H          0.17600       -3.45650        1.28150
H         -1.65140       -2.13910        2.32830
H         -1.20130       -0.65540        4.27190
H          1.09710       -0.44190        5.21450
