35

O          0.28590        0.29190        0.61750
C          1.49190        0.36720        0.64090
O          2.18170        0.80760        1.70080
C          2.40040        0.00850       -0.51160
C          2.78570        1.27580       -1.32510
H          3.32610        1.95730       -0.64980
C          3.70140        0.87390       -2.47000
O          3.39720        0.90760       -3.63540
O          4.88780        0.43080       -2.02500
N          1.64680        1.97310       -1.85390
C          1.00170        2.93770       -1.13320
O          1.39390        3.29360       -0.03320
C         -0.21650        3.54940       -1.81710
C         -1.13780        2.56250       -2.47700
C         -1.47960        1.30850       -2.01120
N         -2.38960        0.72850       -2.87140
H         -2.78750       -0.19320       -2.75650
C         -2.66100        1.58980       -3.91240
C         -1.88510        2.76710       -3.69490
C         -1.97620        3.82230       -4.62160
C         -2.81390        3.68440       -5.72370
C         -3.57080        2.50900       -5.92150
C         -3.50500        1.44880       -5.02130
H          1.53650        1.15580        2.34020
H          1.86380       -0.69370       -1.16420
H          3.31690       -0.46340       -0.13160
H          5.40530        0.16000       -2.80320
H          1.27970        1.67730       -2.75270
H          0.15430        4.26680       -2.56970
H         -0.72660        4.14410       -1.04390
H         -1.12250        0.78290       -1.12580
H         -1.39870        4.73890       -4.47720
H         -2.89140        4.49730       -6.44950
H         -4.22080        2.43030       -6.79610
H         -4.09220        0.54030       -5.17520
