
     RDKit          3D

 35 36  0  0  0  0  0  0  0  0999 V2000
   -0.5602   -0.8162   -0.5287 O   0  0  0  0  0  0  0  0  0  0  0  0
    0.3620   -0.1091   -0.1926 C   0  0  0  0  0  0  0  0  0  0  0  0
    0.4101    0.5080    0.9967 O   0  0  0  0  0  0  0  0  0  0  0  0
    1.5754    0.1807   -1.0429 C   0  0  0  0  0  0  0  0  0  0  0  0
    1.4891   -0.5063   -2.4075 C   0  0  1  0  0  0  0  0  0  0  0  0
    2.4061   -0.2742   -2.9759 H   0  0  0  0  0  0  0  0  0  0  0  0
    1.4344   -2.0314   -2.3071 C   0  0  0  0  0  0  0  0  0  0  0  0
    0.8141   -2.7548   -3.0437 O   0  0  0  0  0  0  0  0  0  0  0  0
    2.2143   -2.4972   -1.3139 O   0  0  0  0  0  0  0  0  0  0  0  0
    0.3993   -0.0189   -3.2081 N   0  0  0  0  0  0  0  0  0  0  0  0
    0.6019    0.3606   -4.5101 C   0  0  0  0  0  0  0  0  0  0  0  0
    1.7163    0.5008   -4.9839 O   0  0  0  0  0  0  0  0  0  0  0  0
   -0.6643    0.6638   -5.3052 C   0  0  0  0  0  0  0  0  0  0  0  0
   -1.8386   -0.2431   -5.0711 C   0  0  0  0  0  0  0  0  0  0  0  0
   -1.8230   -1.5739   -4.7018 C   0  0  0  0  0  0  0  0  0  0  0  0
   -3.1152   -2.0573   -4.6562 N   0  0  0  0  0  0  0  0  0  0  0  0
   -3.3703   -2.9933   -4.3739 H   0  0  0  0  0  0  0  0  0  0  0  0
   -3.9989   -1.0556   -4.9922 C   0  0  0  0  0  0  0  0  0  0  0  0
   -3.2249    0.1103   -5.2672 C   0  0  0  0  0  0  0  0  0  0  0  0
   -3.8862    1.2931   -5.6460 C   0  0  0  0  0  0  0  0  0  0  0  0
   -5.2749    1.2935   -5.7324 C   0  0  0  0  0  0  0  0  0  0  0  0
   -6.0226    0.1295   -5.4507 C   0  0  0  0  0  0  0  0  0  0  0  0
   -5.3970   -1.0575   -5.0783 C   0  0  0  0  0  0  0  0  0  0  0  0
   -0.4041    0.2723    1.4748 H   0  0  0  0  0  0  0  0  0  0  0  0
    2.4700   -0.1414   -0.4897 H   0  0  0  0  0  0  0  0  0  0  0  0
    1.6583    1.2701   -1.1784 H   0  0  0  0  0  0  0  0  0  0  0  0
    2.1495   -3.4675   -1.3338 H   0  0  0  0  0  0  0  0  0  0  0  0
   -0.5388   -0.2775   -2.9179 H   0  0  0  0  0  0  0  0  0  0  0  0
   -0.3540    0.6724   -6.3619 H   0  0  0  0  0  0  0  0  0  0  0  0
   -0.9515    1.7031   -5.0648 H   0  0  0  0  0  0  0  0  0  0  0  0
   -0.9794   -2.2097   -4.4373 H   0  0  0  0  0  0  0  0  0  0  0  0
   -3.3173    2.1987   -5.8713 H   0  0  0  0  0  0  0  0  0  0  0  0
   -5.7989    2.2065   -6.0248 H   0  0  0  0  0  0  0  0  0  0  0  0
   -7.1120    0.1599   -5.5281 H   0  0  0  0  0  0  0  0  0  0  0  0
   -5.9771   -1.9579   -4.8624 H   0  0  0  0  0  0  0  0  0  0  0  0
  1  2  2  0
  2  3  1  0
  2  4  1  0
  3 24  1  0
  4  5  1  0
  4 25  1  0
  4 26  1  0
  5  6  1  6
  5  7  1  0
  5 10  1  0
  7  8  2  0
  7  9  1  0
  9 27  1  0
 10 11  1  0
 10 28  1  0
 11 12  2  0
 11 13  1  0
 13 14  1  0
 13 29  1  0
 13 30  1  0
 14 15  2  0
 14 19  1  0
 15 16  1  0
 15 31  1  0
 16 17  1  0
 16 18  1  0
 18 19  2  0
 18 23  1  0
 19 20  1  0
 20 21  2  0
 20 32  1  0
 21 22  1  0
 21 33  1  0
 22 23  2  0
 22 34  1  0
 23 35  1  0
M  END

