38
rmsd126.gzmat
O          0.00000        0.00000        0.00000
C          1.38500        0.00000        0.00000
O          2.06430        0.00000        0.99250
N          1.77390        0.01290       -1.32470
C          3.12390        0.07250       -1.74800
C          3.36170       -0.10190       -3.12330
C          4.66650       -0.04000       -3.59710
C          5.72930        0.19450       -2.72690
C          5.48640        0.36840       -1.36330
C          4.18220        0.30620       -0.86750
C          6.61120        0.61990       -0.41800
C         -0.65310       -0.07530        1.21050
C         -1.80270        0.71460        1.28440
C         -2.58440        0.61300        2.43060
C         -2.22750       -0.23890        3.47390
C         -1.06300       -1.01010        3.37350
N         -0.62450       -1.88560        4.38880
C         -1.30330       -2.10240        5.57740
O         -2.35580       -1.63470        5.93630
O         -0.56000       -2.98110        6.32420
C         -1.13050       -3.29450        7.59290
C         -0.25640       -0.93860        2.22160
H          1.05420       -0.02090       -2.04490
H          2.54190       -0.28670       -3.81060
H          4.85970       -0.17740       -4.66080
H          6.74430        0.24170       -3.11120
H          4.00850        0.44290        0.20150
H          6.42550        1.51050        0.20180
H          7.57090        0.77590       -0.92740
H          6.74280       -0.22880        0.27170
H         -2.06680        1.38080        0.46970
H         -3.49110        1.21400        2.52010
H         -2.86170       -0.29170        4.36130
H          0.26510       -2.36260        4.24480
H         -0.39630       -3.99120        8.01560
H         -2.10800       -3.77070        7.46230
H         -1.22200       -2.38870        8.20200
H          0.65470       -1.52530        2.12930
