38
rmsd188.gzmat
O          0.00000        0.00000        0.00000
C          1.38480        0.00000        0.00000
O          2.06400        0.00000        0.99270
N          1.77580       -0.01090       -1.32420
C          3.12810       -0.02850       -1.74460
C          3.36370        0.14310       -3.11970
C          4.67260        0.12970       -3.58890
C          5.73900       -0.05280       -2.71280
C          5.49810       -0.22900       -1.34720
C          4.19220       -0.21630       -0.85720
C          6.64360       -0.42800       -0.41420
C         -0.65940        0.11470        1.20400
C         -1.85520       -0.60630        1.25800
C         -2.64360       -0.46910        2.39570
C         -2.25100        0.35280        3.45040
C         -1.04400        1.05790        3.36870
N         -0.56990        1.90280        4.39390
C         -1.26340        2.17560        5.56220
O         -2.35400        1.78260        5.89520
O         -0.48220        3.00670        6.32470
C         -1.07150        3.38150        7.56820
C         -0.22810        0.94740        2.22630
H          1.05760        0.00930       -2.04610
H          2.54080        0.28870       -3.81270
H          4.86450        0.26450       -4.65350
H          6.75780       -0.05850       -3.08940
H          4.01710       -0.35350        0.21150
H          6.32440       -0.73470        0.59230
H          7.22260        0.50070       -0.29760
H          7.33440       -1.20080       -0.78100
H         -2.14940       -1.24780        0.43400
H         -3.58460       -1.01760        2.46860
H         -2.89150        0.43440        4.33110
H          0.35330        2.31750        4.26980
H         -0.27060        3.96330        8.04100
H         -1.32390        2.49330        8.15920
H         -1.96390        3.99190        7.39050
H          0.71600        1.48280        2.15110
