38
rmsd128.gzmat
O          0.00000        0.00000        0.00000
C          1.38400        0.00000        0.00000
O          2.07110        0.00000        0.98680
N          1.76330        0.01110       -1.32800
C          3.10790        0.04590       -1.76980
C          3.30910        0.07700       -3.16220
C          4.60640        0.11250       -3.65780
C          5.69850        0.11590       -2.79240
C          5.49270        0.08330       -1.41210
C          4.19580        0.04840       -0.89440
C          6.64960        0.08200       -0.47200
C         -0.68620       -0.04330        1.19110
C         -1.92990        0.59370        1.12370
C         -2.75670        0.52350        2.23890
C         -2.35650       -0.15050        3.39130
C         -1.10230       -0.77110        3.43030
N         -0.61720       -1.45320        4.56670
C         -1.40010       -1.78770        5.66040
O         -2.57290       -1.56600        5.83680
O         -0.60040       -2.44590        6.55970
C         -1.27990       -2.87660        7.73750
C         -0.24560       -0.72730        2.31410
H          1.03490        0.01210       -2.04120
H          2.46610        0.07380       -3.84640
H          4.77060        0.13810       -4.73510
H          6.70740        0.14390       -3.19390
H          4.05260        0.02510        0.18740
H          6.56600        0.89300        0.26800
H          7.61430        0.20720       -0.98060
H          6.69950       -0.86240        0.09200
H         -2.22980        1.11990        0.22310
H         -3.73490        1.00700        2.21650
H         -3.02690       -0.18540        4.25230
H          0.36240       -1.73470        4.56230
H         -0.46670       -3.30640        8.33510
H         -2.03310       -3.62990        7.48130
H         -1.74540       -2.02530        8.24690
H          0.73060       -1.20790        2.33420
