rmsd142.gzmat
 OpenBabel08211713393D

 38 39  0  0  0  0  0  0  0  0999 V2000
    0.0000    0.0000    0.0000 O   0  0  0  0  0  0  0  0  0  0  0  0
    1.3848    0.0000    0.0000 C   0  0  0  0  0  0  0  0  0  0  0  0
    2.0663    0.0000    0.9909 O   0  0  0  0  0  0  0  0  0  0  0  0
    1.7776   -0.0111   -1.3235 N   0  0  0  0  0  0  0  0  0  0  0  0
    3.1338   -0.0011   -1.7329 C   0  0  0  0  0  0  0  0  0  0  0  0
    4.1891   -0.2688   -0.8544 C   0  0  0  0  0  0  0  0  0  0  0  0
    5.4938   -0.2422   -1.3392 C   0  0  0  0  0  0  0  0  0  0  0  0
    5.7531    0.0404   -2.6771 C   0  0  0  0  0  0  0  0  0  0  0  0
    4.6952    0.3003   -3.5530 C   0  0  0  0  0  0  0  0  0  0  0  0
    3.3819    0.2808   -3.0859 C   0  0  0  0  0  0  0  0  0  0  0  0
    4.9654    0.6183   -4.9844 C   0  0  0  0  0  0  0  0  0  0  0  0
   -0.6573    0.1099    1.2056 C   0  0  0  0  0  0  0  0  0  0  0  0
   -1.8557   -0.6066    1.2598 C   0  0  0  0  0  0  0  0  0  0  0  0
   -2.6371   -0.4751    2.4032 C   0  0  0  0  0  0  0  0  0  0  0  0
   -2.2337    0.3331    3.4644 C   0  0  0  0  0  0  0  0  0  0  0  0
   -1.0240    1.0332    3.3822 C   0  0  0  0  0  0  0  0  0  0  0  0
   -0.5361    1.8631    4.4129 N   0  0  0  0  0  0  0  0  0  0  0  0
   -1.2043    2.1080    5.6019 C   0  0  0  0  0  0  0  0  0  0  0  0
   -2.2780    1.6896    5.9587 O   0  0  0  0  0  0  0  0  0  0  0  0
   -0.4210    2.9511    6.3488 O   0  0  0  0  0  0  0  0  0  0  0  0
   -0.9635    3.2770    7.6268 C   0  0  0  0  0  0  0  0  0  0  0  0
   -0.2189    0.9339    2.2317 C   0  0  0  0  0  0  0  0  0  0  0  0
    1.0634    0.0210   -2.0479 H   0  0  0  0  0  0  0  0  0  0  0  0
    4.0079   -0.4970    0.1975 H   0  0  0  0  0  0  0  0  0  0  0  0
    6.3211   -0.4469   -0.6585 H   0  0  0  0  0  0  0  0  0  0  0  0
    6.7770    0.0592   -3.0396 H   0  0  0  0  0  0  0  0  0  0  0  0
    2.5626    0.4897   -3.7670 H   0  0  0  0  0  0  0  0  0  0  0  0
    4.2227    0.1669   -5.6570 H   0  0  0  0  0  0  0  0  0  0  0  0
    5.9521    0.2667   -5.3156 H   0  0  0  0  0  0  0  0  0  0  0  0
    4.9378    1.7064   -5.1530 H   0  0  0  0  0  0  0  0  0  0  0  0
   -2.1564   -1.2406    0.4321 H   0  0  0  0  0  0  0  0  0  0  0  0
   -3.5811   -1.0178    2.4761 H   0  0  0  0  0  0  0  0  0  0  0  0
   -2.8664    0.4081    4.3512 H   0  0  0  0  0  0  0  0  0  0  0  0
    0.3797    2.2901    4.2752 H   0  0  0  0  0  0  0  0  0  0  0  0
   -0.2679    4.0432    7.9895 H   0  0  0  0  0  0  0  0  0  0  0  0
   -0.9552    2.3893    8.2684 H   0  0  0  0  0  0  0  0  0  0  0  0
   -1.9805    3.6736    7.5309 H   0  0  0  0  0  0  0  0  0  0  0  0
    0.7236    1.4712    2.1546 H   0  0  0  0  0  0  0  0  0  0  0  0
  1  2  1  0  0  0  0
  1 12  1  0  0  0  0
  2  3  2  0  0  0  0
  4  2  1  0  0  0  0
  5  4  1  0  0  0  0
  5  6  2  0  0  0  0
  6 24  1  0  0  0  0
  7  6  1  0  0  0  0
  7 25  1  0  0  0  0
  8  7  2  0  0  0  0
  9 10  2  0  0  0  0
  9  8  1  0  0  0  0
 10  5  1  0  0  0  0
 11  9  1  0  0  0  0
 12 13  2  0  0  0  0
 12 22  1  0  0  0  0
 13 14  1  0  0  0  0
 14 32  1  0  0  0  0
 14 15  2  0  0  0  0
 15 33  1  0  0  0  0
 16 15  1  0  0  0  0
 16 17  1  0  0  0  0
 17 18  1  0  0  0  0
 18 19  2  0  0  0  0
 18 20  1  0  0  0  0
 20 21  1  0  0  0  0
 21 35  1  0  0  0  0
 21 36  1  0  0  0  0
 22 16  2  0  0  0  0
 23  4  1  0  0  0  0
 26  8  1  0  0  0  0
 27 10  1  0  0  0  0
 28 11  1  0  0  0  0
 29 11  1  0  0  0  0
 30 11  1  0  0  0  0
 31 13  1  0  0  0  0
 34 17  1  0  0  0  0
 37 21  1  0  0  0  0
 38 22  1  0  0  0  0
M  END
$$$$
