
     RDKit          3D

 38 39  0  0  0  0  0  0  0  0999 V2000
    0.0582    0.0113    0.0352 O   0  0  0  0  0  0  0  0  0  0  0  0
    1.4274    0.0015    0.0483 C   0  0  0  0  0  0  0  0  0  0  0  0
    2.1172    0.0511    1.0377 O   0  0  0  0  0  0  0  0  0  0  0  0
    1.8470   -0.0718   -1.2498 N   0  0  0  0  0  0  0  0  0  0  0  0
    3.1649   -0.0986   -1.7416 C   0  0  0  0  0  0  0  0  0  0  0  0
    3.3291   -0.1646   -3.1368 C   0  0  0  0  0  0  0  0  0  0  0  0
    4.6083   -0.1936   -3.6834 C   0  0  0  0  0  0  0  0  0  0  0  0
    5.7341   -0.1575   -2.8557 C   0  0  0  0  0  0  0  0  0  0  0  0
    5.5834   -0.0922   -1.4648 C   0  0  0  0  0  0  0  0  0  0  0  0
    4.2940   -0.0632   -0.9122 C   0  0  0  0  0  0  0  0  0  0  0  0
    6.7814   -0.0534   -0.5492 C   0  0  0  0  0  0  0  0  0  0  0  0
   -0.7096    0.0719    1.1857 C   0  0  0  0  0  0  0  0  0  0  0  0
   -1.9498   -0.5678    1.1134 C   0  0  0  0  0  0  0  0  0  0  0  0
   -2.8048   -0.4970    2.2123 C   0  0  0  0  0  0  0  0  0  0  0  0
   -2.4463    0.1882    3.3744 C   0  0  0  0  0  0  0  0  0  0  0  0
   -1.1949    0.8233    3.4310 C   0  0  0  0  0  0  0  0  0  0  0  0
   -0.7439    1.5301    4.5560 N   0  0  0  0  0  0  0  0  0  0  0  0
   -1.3964    1.7420    5.7429 C   0  0  0  0  0  0  0  0  0  0  0  0
   -2.5025    1.3589    6.0487 O   0  0  0  0  0  0  0  0  0  0  0  0
   -0.5945    2.4707    6.5559 O   0  0  0  0  0  0  0  0  0  0  0  0
   -1.1339    2.7738    7.8382 C   0  0  0  0  0  0  0  0  0  0  0  0
   -0.3244    0.7706    2.3283 C   0  0  0  0  0  0  0  0  0  0  0  0
    1.1044   -0.1131   -1.9379 H   0  0  0  0  0  0  0  0  0  0  0  0
    2.4503   -0.1927   -3.7870 H   0  0  0  0  0  0  0  0  0  0  0  0
    4.7286   -0.2450   -4.7681 H   0  0  0  0  0  0  0  0  0  0  0  0
    6.7351   -0.1808   -3.2928 H   0  0  0  0  0  0  0  0  0  0  0  0
    4.1592   -0.0143    0.1663 H   0  0  0  0  0  0  0  0  0  0  0  0
    6.7824    0.8626    0.0641 H   0  0  0  0  0  0  0  0  0  0  0  0
    7.7242   -0.0848   -1.1142 H   0  0  0  0  0  0  0  0  0  0  0  0
    6.7743   -0.9062    0.1492 H   0  0  0  0  0  0  0  0  0  0  0  0
   -2.2225   -1.1019    0.2025 H   0  0  0  0  0  0  0  0  0  0  0  0
   -3.7781   -0.9912    2.1672 H   0  0  0  0  0  0  0  0  0  0  0  0
   -3.1129    0.2376    4.2313 H   0  0  0  0  0  0  0  0  0  0  0  0
    0.1845    1.9320    4.4992 H   0  0  0  0  0  0  0  0  0  0  0  0
   -0.3664    3.3586    8.3601 H   0  0  0  0  0  0  0  0  0  0  0  0
   -1.3574    1.8536    8.3992 H   0  0  0  0  0  0  0  0  0  0  0  0
   -2.0615    3.3592    7.7472 H   0  0  0  0  0  0  0  0  0  0  0  0
    0.6512    1.2498    2.3725 H   0  0  0  0  0  0  0  0  0  0  0  0
  1  2  1  0
  1 12  1  0
  2  3  2  0
  2  4  1  0
  4  5  1  0
  4 23  1  0
  5  6  2  0
  5 10  1  0
  6  7  1  0
  6 24  1  0
  7  8  2  0
  7 25  1  0
  8  9  1  0
  8 26  1  0
  9 10  2  0
  9 11  1  0
 10 27  1  0
 11 28  1  0
 11 29  1  0
 11 30  1  0
 12 13  2  0
 12 22  1  0
 13 14  1  0
 13 31  1  0
 14 15  2  0
 14 32  1  0
 15 16  1  0
 15 33  1  0
 16 17  1  0
 16 22  2  0
 17 18  1  0
 17 34  1  0
 18 19  2  0
 18 20  1  0
 20 21  1  0
 21 35  1  0
 21 36  1  0
 21 37  1  0
 22 38  1  0
M  END

