rmsd242.gzmat
 OpenBabel08211713393D

 38 39  0  0  0  0  0  0  0  0999 V2000
    0.0000    0.0000    0.0000 O   0  0  0  0  0  0  0  0  0  0  0  0
    1.3852    0.0000    0.0000 C   0  0  0  0  0  0  0  0  0  0  0  0
    2.0659    0.0000    0.9915 O   0  0  0  0  0  0  0  0  0  0  0  0
    1.7787   -0.0102   -1.3232 N   0  0  0  0  0  0  0  0  0  0  0  0
    3.1335    0.0038   -1.7361 C   0  0  0  0  0  0  0  0  0  0  0  0
    4.1986   -0.1763   -0.8476 C   0  0  0  0  0  0  0  0  0  0  0  0
    5.5005   -0.1459   -1.3397 C   0  0  0  0  0  0  0  0  0  0  0  0
    5.7485    0.0572   -2.6940 C   0  0  0  0  0  0  0  0  0  0  0  0
    4.6811    0.2308   -3.5795 C   0  0  0  0  0  0  0  0  0  0  0  0
    3.3704    0.2045   -3.1058 C   0  0  0  0  0  0  0  0  0  0  0  0
    4.9357    0.4628   -5.0302 C   0  0  0  0  0  0  0  0  0  0  0  0
   -0.6566    0.1369    1.2031 C   0  0  0  0  0  0  0  0  0  0  0  0
   -1.8691   -0.5555    1.2638 C   0  0  0  0  0  0  0  0  0  0  0  0
   -2.6469   -0.4000    2.4064 C   0  0  0  0  0  0  0  0  0  0  0  0
   -2.2283    0.4097    3.4605 C   0  0  0  0  0  0  0  0  0  0  0  0
   -1.0061    1.0868    3.3711 C   0  0  0  0  0  0  0  0  0  0  0  0
   -0.5011    1.9169    4.3932 N   0  0  0  0  0  0  0  0  0  0  0  0
   -1.1530    2.1670    5.5902 C   0  0  0  0  0  0  0  0  0  0  0  0
   -2.2299    1.7654    5.9569 O   0  0  0  0  0  0  0  0  0  0  0  0
   -0.3479    2.9931    6.3330 O   0  0  0  0  0  0  0  0  0  0  0  0
   -0.8752    3.3229    7.6162 C   0  0  0  0  0  0  0  0  0  0  0  0
   -0.2035    0.9631    2.2210 C   0  0  0  0  0  0  0  0  0  0  0  0
    1.0630    0.0080   -2.0468 H   0  0  0  0  0  0  0  0  0  0  0  0
    4.0292   -0.3392    0.2182 H   0  0  0  0  0  0  0  0  0  0  0  0
    6.3345   -0.2829   -0.6503 H   0  0  0  0  0  0  0  0  0  0  0  0
    6.7705    0.0817   -3.0615 H   0  0  0  0  0  0  0  0  0  0  0  0
    2.5444    0.3444   -3.7965 H   0  0  0  0  0  0  0  0  0  0  0  0
    4.2157   -0.0703   -5.6670 H   0  0  0  0  0  0  0  0  0  0  0  0
    5.9381    0.1381   -5.3404 H   0  0  0  0  0  0  0  0  0  0  0  0
    4.8544    1.5338   -5.2734 H   0  0  0  0  0  0  0  0  0  0  0  0
   -2.1831   -1.1904    0.4416 H   0  0  0  0  0  0  0  0  0  0  0  0
   -3.6007   -0.9250    2.4838 H   0  0  0  0  0  0  0  0  0  0  0  0
   -2.8590    0.5044    4.3468 H   0  0  0  0  0  0  0  0  0  0  0  0
    0.4211    2.3286    4.2480 H   0  0  0  0  0  0  0  0  0  0  0  0
   -0.1266    4.0243    8.0044 H   0  0  0  0  0  0  0  0  0  0  0  0
   -0.9422    2.4218    8.2357 H   0  0  0  0  0  0  0  0  0  0  0  0
   -1.8577    3.7977    7.5194 H   0  0  0  0  0  0  0  0  0  0  0  0
    0.7482    1.4839    2.1392 H   0  0  0  0  0  0  0  0  0  0  0  0
  1  2  1  0  0  0  0
  1 12  1  0  0  0  0
  2  3  2  0  0  0  0
  4  2  1  0  0  0  0
  5  4  1  0  0  0  0
  5  6  2  0  0  0  0
  6 24  1  0  0  0  0
  7  6  1  0  0  0  0
  7 25  1  0  0  0  0
  8  7  2  0  0  0  0
  9 10  2  0  0  0  0
  9  8  1  0  0  0  0
 10  5  1  0  0  0  0
 11  9  1  0  0  0  0
 12 13  2  0  0  0  0
 12 22  1  0  0  0  0
 13 14  1  0  0  0  0
 14 32  1  0  0  0  0
 14 15  2  0  0  0  0
 15 33  1  0  0  0  0
 16 15  1  0  0  0  0
 16 17  1  0  0  0  0
 17 18  1  0  0  0  0
 18 19  2  0  0  0  0
 18 20  1  0  0  0  0
 20 21  1  0  0  0  0
 21 35  1  0  0  0  0
 21 36  1  0  0  0  0
 22 16  2  0  0  0  0
 23  4  1  0  0  0  0
 26  8  1  0  0  0  0
 27 10  1  0  0  0  0
 28 11  1  0  0  0  0
 29 11  1  0  0  0  0
 30 11  1  0  0  0  0
 31 13  1  0  0  0  0
 34 17  1  0  0  0  0
 37 21  1  0  0  0  0
 38 22  1  0  0  0  0
M  END
$$$$
