rmsd56.gzmat
 OpenBabel08211713393D

 38 39  0  0  0  0  0  0  0  0999 V2000
    0.0000    0.0000    0.0000 O   0  0  0  0  0  0  0  0  0  0  0  0
    1.3844    0.0000    0.0000 C   0  0  0  0  0  0  0  0  0  0  0  0
    2.0670    0.0000    0.9899 O   0  0  0  0  0  0  0  0  0  0  0  0
    1.7662   -0.0102   -1.3272 N   0  0  0  0  0  0  0  0  0  0  0  0
    3.1117   -0.0401   -1.7665 C   0  0  0  0  0  0  0  0  0  0  0  0
    3.3197    0.0390   -3.1547 C   0  0  0  0  0  0  0  0  0  0  0  0
    4.6198    0.0148   -3.6470 C   0  0  0  0  0  0  0  0  0  0  0  0
    5.7049   -0.0897   -2.7809 C   0  0  0  0  0  0  0  0  0  0  0  0
    5.4915   -0.1717   -1.4021 C   0  0  0  0  0  0  0  0  0  0  0  0
    4.1942   -0.1477   -0.8889 C   0  0  0  0  0  0  0  0  0  0  0  0
    6.6571   -0.2938   -0.4807 C   0  0  0  0  0  0  0  0  0  0  0  0
   -0.6689    0.0372    1.2026 C   0  0  0  0  0  0  0  0  0  0  0  0
   -1.8527   -0.7058    1.2015 C   0  0  0  0  0  0  0  0  0  0  0  0
   -2.6545   -0.6462    2.3359 C   0  0  0  0  0  0  0  0  0  0  0  0
   -2.2853    0.1194    3.4400 C   0  0  0  0  0  0  0  0  0  0  0  0
   -1.0902    0.8486    3.4131 C   0  0  0  0  0  0  0  0  0  0  0  0
   -0.6474    1.6440    4.4910 N   0  0  0  0  0  0  0  0  0  0  0  0
   -1.3435    1.7954    5.6799 C   0  0  0  0  0  0  0  0  0  0  0  0
   -2.4050    1.3146    5.9928 O   0  0  0  0  0  0  0  0  0  0  0  0
   -0.6115    2.6234    6.4931 O   0  0  0  0  0  0  0  0  0  0  0  0
   -1.2184    2.8723    7.7602 C   0  0  0  0  0  0  0  0  0  0  0  0
   -0.2615    0.8178    2.2745 C   0  0  0  0  0  0  0  0  0  0  0  0
    1.0396    0.0075   -2.0416 H   0  0  0  0  0  0  0  0  0  0  0  0
    2.4813    0.1203   -3.8397 H   0  0  0  0  0  0  0  0  0  0  0  0
    4.7904    0.0799   -4.7216 H   0  0  0  0  0  0  0  0  0  0  0  0
    6.7163   -0.1084   -3.1769 H   0  0  0  0  0  0  0  0  0  0  0  0
    4.0398   -0.2153    0.1897 H   0  0  0  0  0  0  0  0  0  0  0  0
    6.3753   -0.1887    0.5770 H   0  0  0  0  0  0  0  0  0  0  0  0
    7.4201    0.4701   -0.6889 H   0  0  0  0  0  0  0  0  0  0  0  0
    7.1418   -1.2766   -0.5879 H   0  0  0  0  0  0  0  0  0  0  0  0
   -2.1273   -1.3042    0.3387 H   0  0  0  0  0  0  0  0  0  0  0  0
   -3.5878   -1.2110    2.3673 H   0  0  0  0  0  0  0  0  0  0  0  0
   -2.9357    0.1379    4.3169 H   0  0  0  0  0  0  0  0  0  0  0  0
    0.2525    2.1134    4.3907 H   0  0  0  0  0  0  0  0  0  0  0  0
   -0.4827    3.5206    8.2510 H   0  0  0  0  0  0  0  0  0  0  0  0
   -1.3561    1.9335    8.3081 H   0  0  0  0  0  0  0  0  0  0  0  0
   -2.1782    3.3830    7.6251 H   0  0  0  0  0  0  0  0  0  0  0  0
    0.6728    1.3736    2.2388 H   0  0  0  0  0  0  0  0  0  0  0  0
  1  2  1  0  0  0  0
  1 12  1  0  0  0  0
  2  3  2  0  0  0  0
  4  2  1  0  0  0  0
  5  4  1  0  0  0  0
  5 10  2  0  0  0  0
  6  5  1  0  0  0  0
  7  6  2  0  0  0  0
  7  8  1  0  0  0  0
  8  9  2  0  0  0  0
  9 10  1  0  0  0  0
  9 11  1  0  0  0  0
 10 27  1  0  0  0  0
 11 28  1  0  0  0  0
 12 22  1  0  0  0  0
 13 12  2  0  0  0  0
 13 14  1  0  0  0  0
 14 32  1  0  0  0  0
 14 15  2  0  0  0  0
 15 33  1  0  0  0  0
 16 15  1  0  0  0  0
 16 17  1  0  0  0  0
 17 18  1  0  0  0  0
 18 19  2  0  0  0  0
 18 20  1  0  0  0  0
 20 21  1  0  0  0  0
 21 35  1  0  0  0  0
 21 36  1  0  0  0  0
 22 16  2  0  0  0  0
 23  4  1  0  0  0  0
 24  6  1  0  0  0  0
 25  7  1  0  0  0  0
 26  8  1  0  0  0  0
 29 11  1  0  0  0  0
 30 11  1  0  0  0  0
 31 13  1  0  0  0  0
 34 17  1  0  0  0  0
 37 21  1  0  0  0  0
 38 22  1  0  0  0  0
M  END
$$$$
