rmsd126.gzmat
 OpenBabel08211713393D

 38 39  0  0  0  0  0  0  0  0999 V2000
    0.0000    0.0000    0.0000 O   0  0  0  0  0  0  0  0  0  0  0  0
    1.3850    0.0000    0.0000 C   0  0  0  0  0  0  0  0  0  0  0  0
    2.0643    0.0000    0.9925 O   0  0  0  0  0  0  0  0  0  0  0  0
    1.7739    0.0129   -1.3247 N   0  0  0  0  0  0  0  0  0  0  0  0
    3.1239    0.0725   -1.7480 C   0  0  0  0  0  0  0  0  0  0  0  0
    3.3617   -0.1019   -3.1233 C   0  0  0  0  0  0  0  0  0  0  0  0
    4.6665   -0.0400   -3.5971 C   0  0  0  0  0  0  0  0  0  0  0  0
    5.7293    0.1945   -2.7269 C   0  0  0  0  0  0  0  0  0  0  0  0
    5.4864    0.3684   -1.3633 C   0  0  0  0  0  0  0  0  0  0  0  0
    4.1822    0.3062   -0.8675 C   0  0  0  0  0  0  0  0  0  0  0  0
    6.6112    0.6199   -0.4180 C   0  0  0  0  0  0  0  0  0  0  0  0
   -0.6531   -0.0753    1.2105 C   0  0  0  0  0  0  0  0  0  0  0  0
   -1.8027    0.7146    1.2844 C   0  0  0  0  0  0  0  0  0  0  0  0
   -2.5844    0.6130    2.4306 C   0  0  0  0  0  0  0  0  0  0  0  0
   -2.2275   -0.2389    3.4739 C   0  0  0  0  0  0  0  0  0  0  0  0
   -1.0630   -1.0101    3.3735 C   0  0  0  0  0  0  0  0  0  0  0  0
   -0.6245   -1.8856    4.3888 N   0  0  0  0  0  0  0  0  0  0  0  0
   -1.3033   -2.1024    5.5774 C   0  0  0  0  0  0  0  0  0  0  0  0
   -2.3558   -1.6347    5.9363 O   0  0  0  0  0  0  0  0  0  0  0  0
   -0.5600   -2.9811    6.3242 O   0  0  0  0  0  0  0  0  0  0  0  0
   -1.1305   -3.2945    7.5929 C   0  0  0  0  0  0  0  0  0  0  0  0
   -0.2564   -0.9386    2.2216 C   0  0  0  0  0  0  0  0  0  0  0  0
    1.0542   -0.0209   -2.0449 H   0  0  0  0  0  0  0  0  0  0  0  0
    2.5419   -0.2867   -3.8106 H   0  0  0  0  0  0  0  0  0  0  0  0
    4.8597   -0.1774   -4.6608 H   0  0  0  0  0  0  0  0  0  0  0  0
    6.7443    0.2417   -3.1112 H   0  0  0  0  0  0  0  0  0  0  0  0
    4.0085    0.4429    0.2015 H   0  0  0  0  0  0  0  0  0  0  0  0
    6.4255    1.5105    0.2018 H   0  0  0  0  0  0  0  0  0  0  0  0
    7.5709    0.7759   -0.9274 H   0  0  0  0  0  0  0  0  0  0  0  0
    6.7428   -0.2288    0.2717 H   0  0  0  0  0  0  0  0  0  0  0  0
   -2.0668    1.3808    0.4697 H   0  0  0  0  0  0  0  0  0  0  0  0
   -3.4911    1.2140    2.5201 H   0  0  0  0  0  0  0  0  0  0  0  0
   -2.8617   -0.2917    4.3613 H   0  0  0  0  0  0  0  0  0  0  0  0
    0.2651   -2.3626    4.2448 H   0  0  0  0  0  0  0  0  0  0  0  0
   -0.3963   -3.9912    8.0156 H   0  0  0  0  0  0  0  0  0  0  0  0
   -2.1080   -3.7707    7.4623 H   0  0  0  0  0  0  0  0  0  0  0  0
   -1.2220   -2.3887    8.2020 H   0  0  0  0  0  0  0  0  0  0  0  0
    0.6547   -1.5253    2.1293 H   0  0  0  0  0  0  0  0  0  0  0  0
  1  2  1  0  0  0  0
  1 12  1  0  0  0  0
  2  3  2  0  0  0  0
  4  2  1  0  0  0  0
  5  4  1  0  0  0  0
  5 10  2  0  0  0  0
  6  5  1  0  0  0  0
  7  6  2  0  0  0  0
  7  8  1  0  0  0  0
  8  9  2  0  0  0  0
  9 10  1  0  0  0  0
  9 11  1  0  0  0  0
 10 27  1  0  0  0  0
 11 28  1  0  0  0  0
 11 30  1  0  0  0  0
 12 13  2  0  0  0  0
 12 22  1  0  0  0  0
 13 14  1  0  0  0  0
 14 32  1  0  0  0  0
 14 15  2  0  0  0  0
 15 33  1  0  0  0  0
 16 15  1  0  0  0  0
 16 17  1  0  0  0  0
 17 18  1  0  0  0  0
 18 19  2  0  0  0  0
 18 20  1  0  0  0  0
 20 21  1  0  0  0  0
 21 35  1  0  0  0  0
 21 37  1  0  0  0  0
 22 16  2  0  0  0  0
 23  4  1  0  0  0  0
 24  6  1  0  0  0  0
 25  7  1  0  0  0  0
 26  8  1  0  0  0  0
 29 11  1  0  0  0  0
 31 13  1  0  0  0  0
 34 17  1  0  0  0  0
 36 21  1  0  0  0  0
 38 22  1  0  0  0  0
M  END
$$$$
