rmsd52.gzmat
 OpenBabel08211713393D

 38 39  0  0  0  0  0  0  0  0999 V2000
    0.0000    0.0000    0.0000 O   0  0  0  0  0  0  0  0  0  0  0  0
    1.3846    0.0000    0.0000 C   0  0  0  0  0  0  0  0  0  0  0  0
    2.0690    0.0000    0.9888 O   0  0  0  0  0  0  0  0  0  0  0  0
    1.7677   -0.0118   -1.3265 N   0  0  0  0  0  0  0  0  0  0  0  0
    3.1145   -0.0450   -1.7625 C   0  0  0  0  0  0  0  0  0  0  0  0
    3.3258    0.0369   -3.1507 C   0  0  0  0  0  0  0  0  0  0  0  0
    4.6257    0.0020   -3.6410 C   0  0  0  0  0  0  0  0  0  0  0  0
    5.7099   -0.1074   -2.7732 C   0  0  0  0  0  0  0  0  0  0  0  0
    5.4940   -0.1849   -1.3955 C   0  0  0  0  0  0  0  0  0  0  0  0
    4.1948   -0.1573   -0.8842 C   0  0  0  0  0  0  0  0  0  0  0  0
    6.6485   -0.3164   -0.4618 C   0  0  0  0  0  0  0  0  0  0  0  0
   -0.6762    0.1207    1.1920 C   0  0  0  0  0  0  0  0  0  0  0  0
   -1.9159   -0.5259    1.1888 C   0  0  0  0  0  0  0  0  0  0  0  0
   -2.7279   -0.3783    2.3080 C   0  0  0  0  0  0  0  0  0  0  0  0
   -2.3177    0.3815    3.4019 C   0  0  0  0  0  0  0  0  0  0  0  0
   -1.0672    1.0106    3.3773 C   0  0  0  0  0  0  0  0  0  0  0  0
   -0.5705    1.7839    4.4476 N   0  0  0  0  0  0  0  0  0  0  0  0
   -1.3300    2.1782    5.5377 C   0  0  0  0  0  0  0  0  0  0  0  0
   -2.4873    1.9318    5.7729 O   0  0  0  0  0  0  0  0  0  0  0  0
   -0.5256    2.9355    6.3507 O   0  0  0  0  0  0  0  0  0  0  0  0
   -1.1842    3.4494    7.5065 C   0  0  0  0  0  0  0  0  0  0  0  0
   -0.2247    0.8879    2.2555 C   0  0  0  0  0  0  0  0  0  0  0  0
    1.0425   -0.0011   -2.0421 H   0  0  0  0  0  0  0  0  0  0  0  0
    2.4895    0.1287   -3.8366 H   0  0  0  0  0  0  0  0  0  0  0  0
    4.7979    0.0611   -4.7156 H   0  0  0  0  0  0  0  0  0  0  0  0
    6.7212   -0.1333   -3.1694 H   0  0  0  0  0  0  0  0  0  0  0  0
    4.0415   -0.2265    0.1945 H   0  0  0  0  0  0  0  0  0  0  0  0
    6.4662    0.1877    0.4985 H   0  0  0  0  0  0  0  0  0  0  0  0
    7.5740    0.1058   -0.8753 H   0  0  0  0  0  0  0  0  0  0  0  0
    6.8457   -1.3767   -0.2365 H   0  0  0  0  0  0  0  0  0  0  0  0
   -2.2243   -1.1182    0.3335 H   0  0  0  0  0  0  0  0  0  0  0  0
   -3.7031   -0.8679    2.3346 H   0  0  0  0  0  0  0  0  0  0  0  0
   -2.9770    0.4773    4.2670 H   0  0  0  0  0  0  0  0  0  0  0  0
    0.4021    2.0861    4.3953 H   0  0  0  0  0  0  0  0  0  0  0  0
   -0.3717    3.9695    8.0288 H   0  0  0  0  0  0  0  0  0  0  0  0
   -1.5925    2.6316    8.1107 H   0  0  0  0  0  0  0  0  0  0  0  0
   -1.9799    4.1417    7.2092 H   0  0  0  0  0  0  0  0  0  0  0  0
    0.7507    1.3698    2.2277 H   0  0  0  0  0  0  0  0  0  0  0  0
  1  2  1  0  0  0  0
  1 12  1  0  0  0  0
  2  3  2  0  0  0  0
  4  2  1  0  0  0  0
  5  4  1  0  0  0  0
  5 10  2  0  0  0  0
  6  5  1  0  0  0  0
  7  6  2  0  0  0  0
  7  8  1  0  0  0  0
  8  9  2  0  0  0  0
  9 10  1  0  0  0  0
  9 11  1  0  0  0  0
 10 27  1  0  0  0  0
 11 30  1  0  0  0  0
 11 28  1  0  0  0  0
 12 22  1  0  0  0  0
 13 12  2  0  0  0  0
 13 14  1  0  0  0  0
 14 32  1  0  0  0  0
 14 15  2  0  0  0  0
 15 33  1  0  0  0  0
 16 15  1  0  0  0  0
 16 17  1  0  0  0  0
 17 18  1  0  0  0  0
 18 19  2  0  0  0  0
 18 20  1  0  0  0  0
 20 21  1  0  0  0  0
 21 35  1  0  0  0  0
 21 36  1  0  0  0  0
 22 16  2  0  0  0  0
 23  4  1  0  0  0  0
 24  6  1  0  0  0  0
 25  7  1  0  0  0  0
 26  8  1  0  0  0  0
 29 11  1  0  0  0  0
 31 13  1  0  0  0  0
 34 17  1  0  0  0  0
 37 21  1  0  0  0  0
 38 22  1  0  0  0  0
M  END
$$$$
