38
rmsd242.gzmat
O          0.00000        0.00000        0.00000
C          1.38520        0.00000        0.00000
O          2.06590        0.00000        0.99150
N          1.77870       -0.01020       -1.32320
C          3.13350        0.00380       -1.73610
C          4.19860       -0.17630       -0.84760
C          5.50050       -0.14590       -1.33970
C          5.74850        0.05720       -2.69400
C          4.68110        0.23080       -3.57950
C          3.37040        0.20450       -3.10580
C          4.93570        0.46280       -5.03020
C         -0.65660        0.13690        1.20310
C         -1.86910       -0.55550        1.26380
C         -2.64690       -0.40000        2.40640
C         -2.22830        0.40970        3.46050
C         -1.00610        1.08680        3.37110
N         -0.50110        1.91690        4.39320
C         -1.15300        2.16700        5.59020
O         -2.22990        1.76540        5.95690
O         -0.34790        2.99310        6.33300
C         -0.87520        3.32290        7.61620
C         -0.20350        0.96310        2.22100
H          1.06300        0.00800       -2.04680
H          4.02920       -0.33920        0.21820
H          6.33450       -0.28290       -0.65030
H          6.77050        0.08170       -3.06150
H          2.54440        0.34440       -3.79650
H          4.21570       -0.07030       -5.66700
H          5.93810        0.13810       -5.34040
H          4.85440        1.53380       -5.27340
H         -2.18310       -1.19040        0.44160
H         -3.60070       -0.92500        2.48380
H         -2.85900        0.50440        4.34680
H          0.42110        2.32860        4.24800
H         -0.12660        4.02430        8.00440
H         -0.94220        2.42180        8.23570
H         -1.85770        3.79770        7.51940
H          0.74820        1.48390        2.13920
