rmsd188.gzmat
 OpenBabel08211713393D

 38 39  0  0  0  0  0  0  0  0999 V2000
    0.0000    0.0000    0.0000 O   0  0  0  0  0  0  0  0  0  0  0  0
    1.3848    0.0000    0.0000 C   0  0  0  0  0  0  0  0  0  0  0  0
    2.0640    0.0000    0.9927 O   0  0  0  0  0  0  0  0  0  0  0  0
    1.7758   -0.0109   -1.3242 N   0  0  0  0  0  0  0  0  0  0  0  0
    3.1281   -0.0285   -1.7446 C   0  0  0  0  0  0  0  0  0  0  0  0
    3.3637    0.1431   -3.1197 C   0  0  0  0  0  0  0  0  0  0  0  0
    4.6726    0.1297   -3.5889 C   0  0  0  0  0  0  0  0  0  0  0  0
    5.7390   -0.0528   -2.7128 C   0  0  0  0  0  0  0  0  0  0  0  0
    5.4981   -0.2290   -1.3472 C   0  0  0  0  0  0  0  0  0  0  0  0
    4.1922   -0.2163   -0.8572 C   0  0  0  0  0  0  0  0  0  0  0  0
    6.6436   -0.4280   -0.4142 C   0  0  0  0  0  0  0  0  0  0  0  0
   -0.6594    0.1147    1.2040 C   0  0  0  0  0  0  0  0  0  0  0  0
   -1.8552   -0.6063    1.2580 C   0  0  0  0  0  0  0  0  0  0  0  0
   -2.6436   -0.4691    2.3957 C   0  0  0  0  0  0  0  0  0  0  0  0
   -2.2510    0.3528    3.4504 C   0  0  0  0  0  0  0  0  0  0  0  0
   -1.0440    1.0579    3.3687 C   0  0  0  0  0  0  0  0  0  0  0  0
   -0.5699    1.9028    4.3939 N   0  0  0  0  0  0  0  0  0  0  0  0
   -1.2634    2.1756    5.5622 C   0  0  0  0  0  0  0  0  0  0  0  0
   -2.3540    1.7826    5.8952 O   0  0  0  0  0  0  0  0  0  0  0  0
   -0.4822    3.0067    6.3247 O   0  0  0  0  0  0  0  0  0  0  0  0
   -1.0715    3.3815    7.5682 C   0  0  0  0  0  0  0  0  0  0  0  0
   -0.2281    0.9474    2.2263 C   0  0  0  0  0  0  0  0  0  0  0  0
    1.0576    0.0093   -2.0461 H   0  0  0  0  0  0  0  0  0  0  0  0
    2.5408    0.2887   -3.8127 H   0  0  0  0  0  0  0  0  0  0  0  0
    4.8645    0.2645   -4.6535 H   0  0  0  0  0  0  0  0  0  0  0  0
    6.7578   -0.0585   -3.0894 H   0  0  0  0  0  0  0  0  0  0  0  0
    4.0171   -0.3535    0.2115 H   0  0  0  0  0  0  0  0  0  0  0  0
    6.3244   -0.7347    0.5923 H   0  0  0  0  0  0  0  0  0  0  0  0
    7.2226    0.5007   -0.2976 H   0  0  0  0  0  0  0  0  0  0  0  0
    7.3344   -1.2008   -0.7810 H   0  0  0  0  0  0  0  0  0  0  0  0
   -2.1494   -1.2478    0.4340 H   0  0  0  0  0  0  0  0  0  0  0  0
   -3.5846   -1.0176    2.4686 H   0  0  0  0  0  0  0  0  0  0  0  0
   -2.8915    0.4344    4.3311 H   0  0  0  0  0  0  0  0  0  0  0  0
    0.3533    2.3175    4.2698 H   0  0  0  0  0  0  0  0  0  0  0  0
   -0.2706    3.9633    8.0410 H   0  0  0  0  0  0  0  0  0  0  0  0
   -1.3239    2.4933    8.1592 H   0  0  0  0  0  0  0  0  0  0  0  0
   -1.9639    3.9919    7.3905 H   0  0  0  0  0  0  0  0  0  0  0  0
    0.7160    1.4828    2.1511 H   0  0  0  0  0  0  0  0  0  0  0  0
  1  2  1  0  0  0  0
  1 12  1  0  0  0  0
  2  3  2  0  0  0  0
  4  2  1  0  0  0  0
  5  4  1  0  0  0  0
  5 10  2  0  0  0  0
  6  5  1  0  0  0  0
  7  6  2  0  0  0  0
  7  8  1  0  0  0  0
  8  9  2  0  0  0  0
  9 10  1  0  0  0  0
  9 11  1  0  0  0  0
 10 27  1  0  0  0  0
 11 29  1  0  0  0  0
 11 28  1  0  0  0  0
 12 13  2  0  0  0  0
 12 22  1  0  0  0  0
 13 14  1  0  0  0  0
 14 32  1  0  0  0  0
 14 15  2  0  0  0  0
 15 33  1  0  0  0  0
 16 15  1  0  0  0  0
 16 17  1  0  0  0  0
 17 18  1  0  0  0  0
 18 19  2  0  0  0  0
 18 20  1  0  0  0  0
 20 21  1  0  0  0  0
 21 35  1  0  0  0  0
 21 36  1  0  0  0  0
 22 16  2  0  0  0  0
 23  4  1  0  0  0  0
 24  6  1  0  0  0  0
 25  7  1  0  0  0  0
 26  8  1  0  0  0  0
 30 11  1  0  0  0  0
 31 13  1  0  0  0  0
 34 17  1  0  0  0  0
 37 21  1  0  0  0  0
 38 22  1  0  0  0  0
M  END
$$$$
