rmsd51.gzmat
 OpenBabel08211713393D

 38 39  0  0  0  0  0  0  0  0999 V2000
    0.0000    0.0000    0.0000 O   0  0  0  0  0  0  0  0  0  0  0  0
    1.3846    0.0000    0.0000 C   0  0  0  0  0  0  0  0  0  0  0  0
    2.0673    0.0000    0.9899 O   0  0  0  0  0  0  0  0  0  0  0  0
    1.7725    0.0095   -1.3255 N   0  0  0  0  0  0  0  0  0  0  0  0
    3.1225    0.0201   -1.7524 C   0  0  0  0  0  0  0  0  0  0  0  0
    4.2006    0.0849   -0.8641 C   0  0  0  0  0  0  0  0  0  0  0  0
    5.4967    0.0908   -1.3740 C   0  0  0  0  0  0  0  0  0  0  0  0
    5.7261    0.0315   -2.7450 C   0  0  0  0  0  0  0  0  0  0  0  0
    4.6454   -0.0331   -3.6304 C   0  0  0  0  0  0  0  0  0  0  0  0
    3.3414   -0.0371   -3.1400 C   0  0  0  0  0  0  0  0  0  0  0  0
    4.8871   -0.0825   -5.1009 C   0  0  0  0  0  0  0  0  0  0  0  0
   -0.6657   -0.0431    1.2047 C   0  0  0  0  0  0  0  0  0  0  0  0
   -1.8686    0.6690    1.2021 C   0  0  0  0  0  0  0  0  0  0  0  0
   -2.6610    0.6062    2.3435 C   0  0  0  0  0  0  0  0  0  0  0  0
   -2.2653   -0.1320    3.4575 C   0  0  0  0  0  0  0  0  0  0  0  0
   -1.0518   -0.8296    3.4311 C   0  0  0  0  0  0  0  0  0  0  0  0
   -0.5738   -1.5949    4.5151 N   0  0  0  0  0  0  0  0  0  0  0  0
   -1.2371   -1.7377    5.7236 C   0  0  0  0  0  0  0  0  0  0  0  0
   -2.3002   -1.2744    6.0551 O   0  0  0  0  0  0  0  0  0  0  0  0
   -0.4621   -2.5334    6.5289 O   0  0  0  0  0  0  0  0  0  0  0  0
   -1.0233   -2.7835    7.8158 C   0  0  0  0  0  0  0  0  0  0  0  0
   -0.2343   -0.7988    2.2847 C   0  0  0  0  0  0  0  0  0  0  0  0
    1.0508    0.0003   -2.0448 H   0  0  0  0  0  0  0  0  0  0  0  0
    4.0473    0.1303    0.2155 H   0  0  0  0  0  0  0  0  0  0  0  0
    6.3407    0.1434   -0.6850 H   0  0  0  0  0  0  0  0  0  0  0  0
    6.7428    0.0374   -3.1277 H   0  0  0  0  0  0  0  0  0  0  0  0
    2.5046   -0.0856   -3.8305 H   0  0  0  0  0  0  0  0  0  0  0  0
    4.1001   -0.6287   -5.6383 H   0  0  0  0  0  0  0  0  0  0  0  0
    5.8410   -0.5679   -5.3509 H   0  0  0  0  0  0  0  0  0  0  0  0
    4.9215    0.9341   -5.5234 H   0  0  0  0  0  0  0  0  0  0  0  0
   -2.1645    1.2468    0.3326 H   0  0  0  0  0  0  0  0  0  0  0  0
   -3.6085    1.1474    2.3722 H   0  0  0  0  0  0  0  0  0  0  0  0
   -2.9072   -0.1549    4.3407 H   0  0  0  0  0  0  0  0  0  0  0  0
    0.3351   -2.0445    4.4053 H   0  0  0  0  0  0  0  0  0  0  0  0
   -0.2581   -3.4117    8.2875 H   0  0  0  0  0  0  0  0  0  0  0  0
   -1.9757   -3.3154    7.7169 H   0  0  0  0  0  0  0  0  0  0  0  0
   -1.1633   -1.8432    8.3603 H   0  0  0  0  0  0  0  0  0  0  0  0
    0.7116   -1.3358    2.2511 H   0  0  0  0  0  0  0  0  0  0  0  0
  1  2  1  0  0  0  0
  1 12  1  0  0  0  0
  2  3  2  0  0  0  0
  4  2  1  0  0  0  0
  5  4  1  0  0  0  0
  5  6  2  0  0  0  0
  6 24  1  0  0  0  0
  7  6  1  0  0  0  0
  7 25  1  0  0  0  0
  8  7  2  0  0  0  0
  9 10  2  0  0  0  0
  9  8  1  0  0  0  0
 10  5  1  0  0  0  0
 11  9  1  0  0  0  0
 12 22  1  0  0  0  0
 13 12  2  0  0  0  0
 13 14  1  0  0  0  0
 14 32  1  0  0  0  0
 14 15  2  0  0  0  0
 15 33  1  0  0  0  0
 16 15  1  0  0  0  0
 16 17  1  0  0  0  0
 17 18  1  0  0  0  0
 18 19  2  0  0  0  0
 18 20  1  0  0  0  0
 20 21  1  0  0  0  0
 21 35  1  0  0  0  0
 21 37  1  0  0  0  0
 22 16  2  0  0  0  0
 23  4  1  0  0  0  0
 26  8  1  0  0  0  0
 27 10  1  0  0  0  0
 28 11  1  0  0  0  0
 29 11  1  0  0  0  0
 30 11  1  0  0  0  0
 31 13  1  0  0  0  0
 34 17  1  0  0  0  0
 36 21  1  0  0  0  0
 38 22  1  0  0  0  0
M  END
$$$$
