51
rmsd57.gzmat
N          0.00000        0.00000        0.00000
C          1.30670        0.00000        0.00000
N          2.01100        0.00000        1.22880
N          3.40060        0.15640        1.21150
C          3.85130        1.52810        1.22460
O          3.01970        2.39050        1.10400
C          5.31460        1.76650        1.32570
C          4.18450       -0.97050        1.60820
O          5.38220       -0.83350        1.57950
C          3.49600       -2.27580        1.96710
H          2.57790       -2.06480        2.57920
C          4.44870       -3.11410        2.82500
C          3.13620       -3.01690        0.71000
C          1.86250       -3.57110        0.57540
C          1.53100       -4.27840       -0.57840
C          2.46640       -4.43070       -1.59980
C          3.73800       -3.87440       -1.46630
C          4.07440       -3.17100       -0.31320
C          1.36250        0.18360        2.49910
O          2.04860        0.23710        3.49140
C         -0.09100        0.19750        2.43090
C         -0.84980        0.33100        3.60340
C         -2.23000        0.35770        3.52270
C         -2.86830        0.25700        2.27340
C         -2.13690        0.13020        1.10800
C         -0.72780        0.10420        1.17880
C          2.06810       -0.03670       -1.31250
C          1.39860       -1.01570       -2.27900
C          2.07790        1.38070       -1.89250
H          5.88040        1.25390        0.52870
H          5.73030        1.39080        2.27880
H          5.53560        2.84460        1.26600
H          4.00320       -4.08610        3.06860
H          4.68680       -2.60580        3.76870
H          5.40010       -3.30310        2.30960
H          1.12470       -3.45500        1.36760
H          0.53730       -4.71000       -0.68290
H          2.20570       -4.98340       -2.49920
H          4.46890       -3.99030       -2.26380
H          5.07350       -2.74580       -0.20660
H         -0.33590        0.41360        4.56520
H         -2.83060        0.45930        4.42390
H         -3.95770        0.28320        2.23070
H         -2.61710        0.05550        0.13310
H          3.12080       -0.37700       -1.13700
H          1.40740       -2.03940       -1.88270
H          1.90920       -1.02600       -3.24680
H          0.34640       -0.74950       -2.45730
H          1.06420        1.70740       -2.16310
H          2.69460        1.43240       -2.79550
H          2.46880        2.11630       -1.17630
