rmsd57.gzmat
 OpenBabel08211713393D

 51 53  0  0  1  0  0  0  0  0999 V2000
    0.0000    0.0000    0.0000 N   0  0  0  0  0  0  0  0  0  0  0  0
    1.3067    0.0000    0.0000 C   0  0  0  0  0  0  0  0  0  0  0  0
    2.0110    0.0000    1.2288 N   0  0  0  0  0  0  0  0  0  0  0  0
    3.4006    0.1564    1.2115 N   0  0  0  0  0  0  0  0  0  0  0  0
    3.8513    1.5281    1.2246 C   0  0  0  0  0  0  0  0  0  0  0  0
    3.0197    2.3905    1.1040 O   0  0  0  0  0  0  0  0  0  0  0  0
    5.3146    1.7665    1.3257 C   0  0  0  0  0  0  0  0  0  0  0  0
    4.1845   -0.9705    1.6082 C   0  0  0  0  0  0  0  0  0  0  0  0
    5.3822   -0.8335    1.5795 O   0  0  0  0  0  0  0  0  0  0  0  0
    3.4960   -2.2758    1.9671 C   0  0  2  0  0  0  0  0  0  0  0  0
    2.5779   -2.0648    2.5792 H   0  0  0  0  0  0  0  0  0  0  0  0
    4.4487   -3.1141    2.8250 C   0  0  0  0  0  0  0  0  0  0  0  0
    3.1362   -3.0169    0.7100 C   0  0  0  0  0  0  0  0  0  0  0  0
    1.8625   -3.5711    0.5754 C   0  0  0  0  0  0  0  0  0  0  0  0
    1.5310   -4.2784   -0.5784 C   0  0  0  0  0  0  0  0  0  0  0  0
    2.4664   -4.4307   -1.5998 C   0  0  0  0  0  0  0  0  0  0  0  0
    3.7380   -3.8744   -1.4663 C   0  0  0  0  0  0  0  0  0  0  0  0
    4.0744   -3.1710   -0.3132 C   0  0  0  0  0  0  0  0  0  0  0  0
    1.3625    0.1836    2.4991 C   0  0  0  0  0  0  0  0  0  0  0  0
    2.0486    0.2371    3.4914 O   0  0  0  0  0  0  0  0  0  0  0  0
   -0.0910    0.1975    2.4309 C   0  0  1  0  0  0  0  0  0  0  0  0
   -0.8498    0.3310    3.6034 C   0  0  0  0  0  0  0  0  0  0  0  0
   -2.2300    0.3577    3.5227 C   0  0  0  0  0  0  0  0  0  0  0  0
   -2.8683    0.2570    2.2734 C   0  0  0  0  0  0  0  0  0  0  0  0
   -2.1369    0.1302    1.1080 C   0  0  0  0  0  0  0  0  0  0  0  0
   -0.7278    0.1042    1.1788 C   0  0  0  0  0  0  0  0  0  0  0  0
    2.0681   -0.0367   -1.3125 C   0  0  0  0  0  0  0  0  0  0  0  0
    1.3986   -1.0157   -2.2790 C   0  0  0  0  0  0  0  0  0  0  0  0
    2.0779    1.3807   -1.8925 C   0  0  0  0  0  0  0  0  0  0  0  0
    5.8804    1.2539    0.5287 H   0  0  0  0  0  0  0  0  0  0  0  0
    5.7303    1.3908    2.2788 H   0  0  0  0  0  0  0  0  0  0  0  0
    5.5356    2.8446    1.2660 H   0  0  0  0  0  0  0  0  0  0  0  0
    4.0032   -4.0861    3.0686 H   0  0  0  0  0  0  0  0  0  0  0  0
    4.6868   -2.6058    3.7687 H   0  0  0  0  0  0  0  0  0  0  0  0
    5.4001   -3.3031    2.3096 H   0  0  0  0  0  0  0  0  0  0  0  0
    1.1247   -3.4550    1.3676 H   0  0  0  0  0  0  0  0  0  0  0  0
    0.5373   -4.7100   -0.6829 H   0  0  0  0  0  0  0  0  0  0  0  0
    2.2057   -4.9834   -2.4992 H   0  0  0  0  0  0  0  0  0  0  0  0
    4.4689   -3.9903   -2.2638 H   0  0  0  0  0  0  0  0  0  0  0  0
    5.0735   -2.7458   -0.2066 H   0  0  0  0  0  0  0  0  0  0  0  0
   -0.3359    0.4136    4.5652 H   0  0  0  0  0  0  0  0  0  0  0  0
   -2.8306    0.4593    4.4239 H   0  0  0  0  0  0  0  0  0  0  0  0
   -3.9577    0.2832    2.2307 H   0  0  0  0  0  0  0  0  0  0  0  0
   -2.6171    0.0555    0.1331 H   0  0  0  0  0  0  0  0  0  0  0  0
    3.1208   -0.3770   -1.1370 H   0  0  0  0  0  0  0  0  0  0  0  0
    1.4074   -2.0394   -1.8827 H   0  0  0  0  0  0  0  0  0  0  0  0
    1.9092   -1.0260   -3.2468 H   0  0  0  0  0  0  0  0  0  0  0  0
    0.3464   -0.7495   -2.4573 H   0  0  0  0  0  0  0  0  0  0  0  0
    1.0642    1.7074   -2.1631 H   0  0  0  0  0  0  0  0  0  0  0  0
    2.6946    1.4324   -2.7955 H   0  0  0  0  0  0  0  0  0  0  0  0
    2.4688    2.1163   -1.1763 H   0  0  0  0  0  0  0  0  0  0  0  0
  1  2  2  0  0  0  0
  1 26  2  0  0  0  0
  2  3  1  0  0  0  0
  3 19  1  0  0  0  0
  4  5  1  0  0  0  0
  4  3  1  0  0  0  0
  4  8  1  0  0  0  0
  5  7  1  0  0  0  0
  6  5  2  0  0  0  0
  7 31  1  0  0  0  0
  8 10  1  0  0  0  0
  9  8  2  0  0  0  0
 10 11  1  1  0  0  0
 10 12  1  0  0  0  0
 12 33  1  0  0  0  0
 12 34  1  0  0  0  0
 13 10  1  0  0  0  0
 14 13  1  0  0  0  0
 14 36  1  0  0  0  0
 15 14  2  0  0  0  0
 16 17  2  0  0  0  0
 16 15  1  0  0  0  0
 17 18  1  0  0  0  0
 18 40  1  0  0  0  0
 18 13  2  0  0  0  0
 19 20  2  0  0  0  0
 21 26  1  6  0  0  0
 21 19  1  0  0  0  0
 21 22  1  0  0  0  0
 22 41  1  0  0  0  0
 23 22  2  0  0  0  0
 23 42  1  0  0  0  0
 24 23  1  0  0  0  0
 25 26  1  0  0  0  0
 25 24  2  0  0  0  0
 27 45  1  0  0  0  0
 27  2  1  0  0  0  0
 28 46  1  0  0  0  0
 28 27  1  0  0  0  0
 29 27  1  0  0  0  0
 29 51  1  0  0  0  0
 30  7  1  0  0  0  0
 32  7  1  0  0  0  0
 35 12  1  0  0  0  0
 37 15  1  0  0  0  0
 38 16  1  0  0  0  0
 39 17  1  0  0  0  0
 43 24  1  0  0  0  0
 44 25  1  0  0  0  0
 47 28  1  0  0  0  0
 48 28  1  0  0  0  0
 49 29  1  0  0  0  0
 50 29  1  0  0  0  0
M  RAD  1  21   2
M  END
$$$$
