51

N          0.19750       -0.11960       -0.14410
C          1.47760        0.00960       -0.07860
N          2.13900        0.11070        1.15110
N          3.50950        0.30310        1.19870
C          3.90370        1.68170        1.24490
O          3.04890        2.52140        1.10220
C          5.35380        2.00470        1.46610
C          4.33920       -0.80760        1.49160
O          5.54010       -0.72160        1.38340
C          3.64340       -2.09210        1.94420
H          2.82530       -1.81090        2.61670
C          4.63620       -2.95190        2.73770
C          3.05850       -2.86160        0.76960
C          1.70860       -3.23640        0.76750
C          1.19240       -4.03250       -0.25780
C          2.02210       -4.46140       -1.29680
C          3.36550       -4.07350       -1.31460
C          3.87920       -3.27530       -0.29040
C          1.46680        0.21360        2.39860
O          2.10080        0.37620        3.42330
C          0.02090        0.03870        2.28900
C         -0.77850        0.03520        3.44590
C         -2.14930       -0.14870        3.33580
C         -2.73270       -0.32670        2.06570
C         -1.95290       -0.31900        0.91790
C         -0.55710       -0.13510        1.00950
C          2.27880        0.10220       -1.36270
C          1.76230       -0.90110       -2.39700
C          2.19570        1.54050       -1.91130
H          5.97520        1.60230        0.65560
H          5.72250        1.54800        2.39500
H          5.43380        3.09740        1.51590
H          4.13940       -3.87600        3.06700
H          4.99920       -2.40990        3.62340
H          5.50720       -3.21890        2.12440
H          1.05640       -2.90510        1.57950
H          0.13730       -4.31470       -0.24460
H          1.62040       -5.08530       -2.09840
H          4.01650       -4.39250       -2.13190
H          4.93070       -2.97780       -0.30560
H         -0.29110        0.17640        4.41210
H         -2.77640       -0.15520        4.22980
H         -3.81300       -0.47000        1.98370
H         -2.38660       -0.44870       -0.07480
H          3.32870       -0.13060       -1.13820
H          1.83810       -1.93140       -2.03070
H          2.35220       -0.81660       -3.32270
H          0.70770       -0.69740       -2.62890
H          1.15260        1.77260       -2.17580
H          2.81140        1.62910       -2.82000
H          2.53350        2.28480       -1.17920
