rmsd133.gzmat
 OpenBabel08211713393D

 51 53  0  0  1  0  0  0  0  0999 V2000
    0.0000    0.0000    0.0000 N   0  0  0  0  0  0  0  0  0  0  0  0
    1.3068    0.0000    0.0000 C   0  0  0  0  0  0  0  0  0  0  0  0
    2.0118    0.0000    1.2279 N   0  0  0  0  0  0  0  0  0  0  0  0
    3.4041    0.1295    1.2072 N   0  0  0  0  0  0  0  0  0  0  0  0
    3.8857    1.4894    1.1543 C   0  0  0  0  0  0  0  0  0  0  0  0
    3.0710    2.3683    1.0403 O   0  0  0  0  0  0  0  0  0  0  0  0
    5.3575    1.6931    1.1731 C   0  0  0  0  0  0  0  0  0  0  0  0
    4.1676   -0.9984    1.6370 C   0  0  0  0  0  0  0  0  0  0  0  0
    5.3664   -0.8678    1.6548 O   0  0  0  0  0  0  0  0  0  0  0  0
    3.4627   -2.3055    1.9581 C   0  0  2  0  0  0  0  0  0  0  0  0
    2.4844   -2.1038    2.4703 H   0  0  0  0  0  0  0  0  0  0  0  0
    4.3388   -3.1115    2.9213 C   0  0  0  0  0  0  0  0  0  0  0  0
    3.2429   -3.0663    0.6798 C   0  0  0  0  0  0  0  0  0  0  0  0
    1.9900   -3.6179    0.4100 C   0  0  0  0  0  0  0  0  0  0  0  0
    1.7842   -4.3300   -0.7702 C   0  0  0  0  0  0  0  0  0  0  0  0
    2.8249   -4.4885   -1.6833 C   0  0  0  0  0  0  0  0  0  0  0  0
    4.0780   -3.9410   -1.4112 C   0  0  0  0  0  0  0  0  0  0  0  0
    4.2886   -3.2345   -0.2308 C   0  0  0  0  0  0  0  0  0  0  0  0
    1.3657    0.1987    2.4981 C   0  0  0  0  0  0  0  0  0  0  0  0
    2.0516    0.2502    3.4899 O   0  0  0  0  0  0  0  0  0  0  0  0
   -0.0883    0.2240    2.4284 C   0  0  1  0  0  0  0  0  0  0  0  0
   -0.8467    0.3791    3.5986 C   0  0  0  0  0  0  0  0  0  0  0  0
   -2.2269    0.4065    3.5187 C   0  0  0  0  0  0  0  0  0  0  0  0
   -2.8669    0.2830    2.2729 C   0  0  0  0  0  0  0  0  0  0  0  0
   -2.1364    0.1381    1.1090 C   0  0  0  0  0  0  0  0  0  0  0  0
   -0.7269    0.1147    1.1783 C   0  0  0  0  0  0  0  0  0  0  0  0
    2.0664   -0.0303   -1.3138 C   0  0  0  0  0  0  0  0  0  0  0  0
    1.4367   -1.0536   -2.2605 C   0  0  0  0  0  0  0  0  0  0  0  0
    2.0156    1.3767   -1.9168 C   0  0  0  0  0  0  0  0  0  0  0  0
    5.8785    1.0924    0.4082 H   0  0  0  0  0  0  0  0  0  0  0  0
    5.8003    1.3940    2.1417 H   0  0  0  0  0  0  0  0  0  0  0  0
    5.6042    2.7536    1.0026 H   0  0  0  0  0  0  0  0  0  0  0  0
    3.9001   -4.0967    3.1199 H   0  0  0  0  0  0  0  0  0  0  0  0
    4.4528   -2.5934    3.8828 H   0  0  0  0  0  0  0  0  0  0  0  0
    5.3476   -3.2719    2.5168 H   0  0  0  0  0  0  0  0  0  0  0  0
    1.1695   -3.4945    1.1153 H   0  0  0  0  0  0  0  0  0  0  0  0
    0.8059   -4.7590   -0.9787 H   0  0  0  0  0  0  0  0  0  0  0  0
    2.6613   -5.0388   -2.6070 H   0  0  0  0  0  0  0  0  0  0  0  0
    4.8928   -4.0657   -2.1218 H   0  0  0  0  0  0  0  0  0  0  0  0
    5.2722   -2.8146   -0.0149 H   0  0  0  0  0  0  0  0  0  0  0  0
   -0.3319    0.4774    4.5584 H   0  0  0  0  0  0  0  0  0  0  0  0
   -2.8263    0.5259    4.4184 H   0  0  0  0  0  0  0  0  0  0  0  0
   -3.9564    0.3060    2.2315 H   0  0  0  0  0  0  0  0  0  0  0  0
   -2.6181    0.0475    0.1363 H   0  0  0  0  0  0  0  0  0  0  0  0
    3.1327   -0.3229   -1.1378 H   0  0  0  0  0  0  0  0  0  0  0  0
    1.4810   -2.0675   -1.8428 H   0  0  0  0  0  0  0  0  0  0  0  0
    1.9532   -1.0675   -3.2253 H   0  0  0  0  0  0  0  0  0  0  0  0
    0.3771   -0.8280   -2.4496 H   0  0  0  0  0  0  0  0  0  0  0  0
    0.9889    1.6537   -2.1936 H   0  0  0  0  0  0  0  0  0  0  0  0
    2.6313    1.4406   -2.8195 H   0  0  0  0  0  0  0  0  0  0  0  0
    2.3719    2.1400   -1.2114 H   0  0  0  0  0  0  0  0  0  0  0  0
  1  2  2  0  0  0  0
  1 26  2  0  0  0  0
  2  3  1  0  0  0  0
  3 19  1  0  0  0  0
  4  3  1  0  0  0  0
  4  8  1  0  0  0  0
  5  7  1  0  0  0  0
  5  4  1  0  0  0  0
  6  5  2  0  0  0  0
  7 31  1  0  0  0  0
  8  9  2  0  0  0  0
  8 10  1  0  0  0  0
 10 11  1  1  0  0  0
 10 12  1  0  0  0  0
 12 33  1  0  0  0  0
 12 34  1  0  0  0  0
 13 10  1  0  0  0  0
 14 13  1  0  0  0  0
 14 36  1  0  0  0  0
 15 14  2  0  0  0  0
 16 17  2  0  0  0  0
 16 15  1  0  0  0  0
 17 18  1  0  0  0  0
 18 40  1  0  0  0  0
 18 13  2  0  0  0  0
 19 20  2  0  0  0  0
 21 26  1  6  0  0  0
 21 19  1  0  0  0  0
 21 22  1  0  0  0  0
 22 41  1  0  0  0  0
 23 22  2  0  0  0  0
 23 42  1  0  0  0  0
 24 23  1  0  0  0  0
 25 26  1  0  0  0  0
 25 24  2  0  0  0  0
 27 45  1  0  0  0  0
 27  2  1  0  0  0  0
 28 46  1  0  0  0  0
 28 27  1  0  0  0  0
 29 27  1  0  0  0  0
 29 51  1  0  0  0  0
 30  7  1  0  0  0  0
 32  7  1  0  0  0  0
 35 12  1  0  0  0  0
 37 15  1  0  0  0  0
 38 16  1  0  0  0  0
 39 17  1  0  0  0  0
 43 24  1  0  0  0  0
 44 25  1  0  0  0  0
 47 28  1  0  0  0  0
 48 28  1  0  0  0  0
 49 29  1  0  0  0  0
 50 29  1  0  0  0  0
M  RAD  1  21   2
M  END
$$$$
