51
rmsd120.gzmat
N          0.00000        0.00000        0.00000
C          1.30690        0.00000        0.00000
N          2.01130        0.00000        1.22800
N          3.40290        0.13160        1.20710
C          3.88250        1.49180        1.15760
O          3.06760        2.36810        1.02480
C          5.35330        1.69930        1.21000
C          4.16860       -1.00090        1.62040
O          5.36850       -0.88270        1.59100
C          3.46130       -2.29150        1.99600
H          2.53250       -2.06220        2.58470
C          4.39110       -3.11810        2.88970
C          3.12190       -3.05800        0.74820
C          1.84190       -3.59110        0.59150
C          1.53010       -4.32670       -0.55030
C          2.49330       -4.53000       -1.53670
C          3.77140       -3.99460       -1.38120
C          4.08680       -3.26110       -0.24110
C          1.36460        0.19380        2.49780
O          2.05070        0.25250        3.48960
C         -0.08940        0.20670        2.42960
C         -0.84830        0.34400        3.60130
C         -2.22860        0.36610        3.52090
C         -2.86790        0.25580        2.27320
C         -2.13650        0.12610        1.10810
C         -0.72720        0.10580        1.17870
C          2.06540       -0.03280       -1.31440
C          1.43440       -1.06670       -2.24880
C          2.00540        1.37060       -1.92540
H          5.88920        1.12170        0.43710
H          5.77960        1.37610        2.17750
H          5.60000        2.76480        1.07390
H          3.93970       -4.08760        3.13320
H          4.60280       -2.59800        3.83310
H          5.35630       -3.31330        2.40260
H          1.08370       -3.43630        1.35710
H          0.53060       -4.74000       -0.67110
H          2.25020       -5.10570       -2.42670
H          4.52530       -4.15140       -2.15020
H          5.08970       -2.84980       -0.11850
H         -0.33470        0.43180        4.56280
H         -2.82930        0.47110        4.42160
H         -3.95750        0.27600        2.23220
H         -2.61660        0.04490        0.13370
H          3.13440       -0.31810       -1.14120
H          1.47490       -2.07510       -1.81700
H          1.95010       -1.09340       -3.21330
H          0.37490       -0.84080       -2.44020
H          0.97250        1.65310       -2.17320
H          2.59470        1.42480       -2.84620
H          2.38890        2.13470       -1.23480
