51
rmsd248.gzmat
N          0.00000        0.00000        0.00000
C          1.30670        0.00000        0.00000
N          2.01140        0.00000        1.22810
N          3.40350        0.13070        1.20810
C          3.88470        1.49200        1.20990
O          3.07020        2.37340        1.11410
C          5.35580        1.69710        1.26320
C          4.16680       -1.01440        1.58880
O          5.36680       -0.89420        1.57930
C          3.45640       -2.31980        1.90330
H          2.51230       -2.11370        2.47520
C          4.36810       -3.17280        2.79090
C          3.15070       -3.04590        0.62290
C          1.88830       -3.61040        0.43450
C          1.60680       -4.30720       -0.73900
C          2.58210       -4.43990       -1.72570
C          3.84270       -3.87520       -1.53740
C          4.12830       -3.18040       -0.36550
C          1.36480        0.19200        2.49840
O          2.05100        0.24410        3.49030
C         -0.08950        0.21050        2.42960
C         -0.84820        0.35130        3.60120
C         -2.22880        0.37160        3.52170
C         -2.86850        0.25380        2.27530
C         -2.13730        0.12360        1.10990
C         -0.72760        0.10690        1.17880
C          2.06940       -0.03390       -1.31170
C          1.39360       -1.00020       -2.28630
C          2.08880        1.38820       -1.87970
H          5.88800        1.14980        0.46620
H          5.78810        1.33670        2.21510
H          5.60130        2.76760        1.16810
H          3.92740       -4.16040        2.97160
H          4.53610       -2.69510        3.76490
H          5.35330       -3.32820        2.32950
H          1.12030       -3.51030        1.19990
H          0.62140       -4.74580       -0.88530
H          2.36090       -4.98330       -2.64150
H          4.60630       -3.97870       -2.30570
H          5.11850       -2.74710       -0.21720
H         -0.33430        0.44370        4.56210
H         -2.82850        0.48050        4.42240
H         -3.95850        0.26900        2.23500
H         -2.61850        0.03890        0.13640
H          3.11940       -0.38360       -1.13870
H          1.36720       -2.02190       -1.88540
H          1.92310       -1.02840       -3.24350
H          0.35220       -0.70770       -2.48520
H          1.07450        1.73100       -2.12780
H          2.68840        1.43860       -2.79410
H          2.50430        2.11150       -1.16490
