51
rmsd39.gzmat
N          0.00000        0.00000        0.00000
C          1.30640        0.00000        0.00000
N          2.01220        0.00000        1.22850
N          3.40120        0.15620        1.20470
C          3.85750        1.52470        1.24710
O          3.02840        2.39420        1.17110
C          5.32450        1.75170        1.32300
C          4.19060       -0.98400        1.54810
O          5.38590       -0.86200        1.44680
C          3.50690       -2.27480        1.96230
H          2.67100       -2.03970        2.67660
C          4.52390       -3.15280        2.69800
C          2.98440       -2.99440        0.75140
C          1.67690       -3.48300        0.74720
C          1.19770       -4.17570       -0.36250
C          2.02320       -4.38820       -1.46520
C          3.32890       -3.89870       -1.46160
C          3.80920       -3.20070       -0.35710
C          1.36440        0.17180        2.49970
O          2.04950        0.21460        3.49340
C         -0.08960        0.18810        2.43140
C         -0.84850        0.31910        3.60420
C         -2.22890        0.34690        3.52350
C         -2.86780        0.24580        2.27480
C         -2.13650        0.12190        1.10900
C         -0.72720        0.09920        1.17930
C          2.06940       -0.04050       -1.31140
C          1.35360       -0.95490       -2.30770
C          2.15720        1.38820       -1.85510
H          5.86720        1.26520        0.49410
H          5.76110        1.34050        2.25120
H          5.55140        2.82980        1.29550
H          4.08520       -4.12190        2.96360
H          4.87000       -2.67370        3.62250
H          5.41240       -3.34730        2.08190
H          1.02770       -3.32680        1.60720
H          0.17530       -4.55020       -0.36760
H          1.64970       -4.93510       -2.32770
H          3.97480       -4.06300       -2.32190
H          4.83190       -2.82200       -0.35380
H         -0.33400        0.39970        4.56570
H         -2.82960        0.44980        4.42450
H         -3.95720        0.26930        2.23250
H         -2.61700        0.04810        0.13430
H          3.10080       -0.44310       -1.14040
H          1.25090       -1.97480       -1.91440
H          1.89970       -1.01110       -3.25390
H          0.33770       -0.59460       -2.52480
H          1.16060        1.78590       -2.09220
H          2.75390        1.42360       -2.77230
H          2.61230        2.07760       -1.13240
