
     RDKit          3D

 51 53  0  0  0  0  0  0  0  0999 V2000
    0.1975   -0.1196   -0.1441 N   0  0  0  0  0  0  0  0  0  0  0  0
    1.4776    0.0096   -0.0786 C   0  0  0  0  0  0  0  0  0  0  0  0
    2.1390    0.1107    1.1511 N   0  0  0  0  0  0  0  0  0  0  0  0
    3.5095    0.3031    1.1987 N   0  0  0  0  0  0  0  0  0  0  0  0
    3.9037    1.6817    1.2449 C   0  0  0  0  0  0  0  0  0  0  0  0
    3.0489    2.5214    1.1022 O   0  0  0  0  0  0  0  0  0  0  0  0
    5.3538    2.0047    1.4661 C   0  0  0  0  0  0  0  0  0  0  0  0
    4.3392   -0.8076    1.4916 C   0  0  0  0  0  0  0  0  0  0  0  0
    5.5401   -0.7216    1.3834 O   0  0  0  0  0  0  0  0  0  0  0  0
    3.6434   -2.0921    1.9442 C   0  0  2  0  0  0  0  0  0  0  0  0
    2.8253   -1.8109    2.6167 H   0  0  0  0  0  0  0  0  0  0  0  0
    4.6362   -2.9519    2.7377 C   0  0  0  0  0  0  0  0  0  0  0  0
    3.0585   -2.8616    0.7696 C   0  0  0  0  0  0  0  0  0  0  0  0
    1.7086   -3.2364    0.7675 C   0  0  0  0  0  0  0  0  0  0  0  0
    1.1924   -4.0325   -0.2578 C   0  0  0  0  0  0  0  0  0  0  0  0
    2.0221   -4.4614   -1.2968 C   0  0  0  0  0  0  0  0  0  0  0  0
    3.3655   -4.0735   -1.3146 C   0  0  0  0  0  0  0  0  0  0  0  0
    3.8792   -3.2753   -0.2904 C   0  0  0  0  0  0  0  0  0  0  0  0
    1.4668    0.2136    2.3986 C   0  0  0  0  0  0  0  0  0  0  0  0
    2.1008    0.3762    3.4233 O   0  0  0  0  0  0  0  0  0  0  0  0
    0.0209    0.0387    2.2890 C   0  0  0  0  0  0  0  0  0  0  0  0
   -0.7785    0.0352    3.4459 C   0  0  0  0  0  0  0  0  0  0  0  0
   -2.1493   -0.1487    3.3358 C   0  0  0  0  0  0  0  0  0  0  0  0
   -2.7327   -0.3267    2.0657 C   0  0  0  0  0  0  0  0  0  0  0  0
   -1.9529   -0.3190    0.9179 C   0  0  0  0  0  0  0  0  0  0  0  0
   -0.5571   -0.1351    1.0095 C   0  0  0  0  0  0  0  0  0  0  0  0
    2.2788    0.1022   -1.3627 C   0  0  0  0  0  0  0  0  0  0  0  0
    1.7623   -0.9011   -2.3970 C   0  0  0  0  0  0  0  0  0  0  0  0
    2.1957    1.5405   -1.9113 C   0  0  0  0  0  0  0  0  0  0  0  0
    5.9752    1.6023    0.6556 H   0  0  0  0  0  0  0  0  0  0  0  0
    5.7225    1.5480    2.3950 H   0  0  0  0  0  0  0  0  0  0  0  0
    5.4338    3.0974    1.5159 H   0  0  0  0  0  0  0  0  0  0  0  0
    4.1394   -3.8760    3.0670 H   0  0  0  0  0  0  0  0  0  0  0  0
    4.9992   -2.4099    3.6234 H   0  0  0  0  0  0  0  0  0  0  0  0
    5.5072   -3.2189    2.1244 H   0  0  0  0  0  0  0  0  0  0  0  0
    1.0564   -2.9051    1.5795 H   0  0  0  0  0  0  0  0  0  0  0  0
    0.1373   -4.3147   -0.2446 H   0  0  0  0  0  0  0  0  0  0  0  0
    1.6204   -5.0853   -2.0984 H   0  0  0  0  0  0  0  0  0  0  0  0
    4.0165   -4.3925   -2.1319 H   0  0  0  0  0  0  0  0  0  0  0  0
    4.9307   -2.9778   -0.3056 H   0  0  0  0  0  0  0  0  0  0  0  0
   -0.2911    0.1764    4.4121 H   0  0  0  0  0  0  0  0  0  0  0  0
   -2.7764   -0.1552    4.2298 H   0  0  0  0  0  0  0  0  0  0  0  0
   -3.8130   -0.4700    1.9837 H   0  0  0  0  0  0  0  0  0  0  0  0
   -2.3866   -0.4487   -0.0748 H   0  0  0  0  0  0  0  0  0  0  0  0
    3.3287   -0.1306   -1.1382 H   0  0  0  0  0  0  0  0  0  0  0  0
    1.8381   -1.9314   -2.0307 H   0  0  0  0  0  0  0  0  0  0  0  0
    2.3522   -0.8166   -3.3227 H   0  0  0  0  0  0  0  0  0  0  0  0
    0.7077   -0.6974   -2.6289 H   0  0  0  0  0  0  0  0  0  0  0  0
    1.1526    1.7726   -2.1758 H   0  0  0  0  0  0  0  0  0  0  0  0
    2.8114    1.6291   -2.8200 H   0  0  0  0  0  0  0  0  0  0  0  0
    2.5335    2.2848   -1.1792 H   0  0  0  0  0  0  0  0  0  0  0  0
  1  2  2  0
  1 26  1  0
  2  3  1  0
  2 27  1  0
  3  4  1  0
  3 19  1  0
  4  5  1  0
  4  8  1  0
  5  6  2  0
  5  7  1  0
  7 30  1  0
  7 31  1  0
  7 32  1  0
  8  9  2  0
  8 10  1  0
 10 11  1  1
 10 12  1  0
 10 13  1  0
 12 33  1  0
 12 34  1  0
 12 35  1  0
 13 14  2  0
 13 18  1  0
 14 15  1  0
 14 36  1  0
 15 16  2  0
 15 37  1  0
 16 17  1  0
 16 38  1  0
 17 18  2  0
 17 39  1  0
 18 40  1  0
 19 20  2  0
 19 21  1  0
 21 22  1  0
 21 26  2  0
 22 23  2  0
 22 41  1  0
 23 24  1  0
 23 42  1  0
 24 25  2  0
 24 43  1  0
 25 26  1  0
 25 44  1  0
 27 28  1  0
 27 29  1  0
 27 45  1  0
 28 46  1  0
 28 47  1  0
 28 48  1  0
 29 49  1  0
 29 50  1  0
 29 51  1  0
M  END

