51
rmsd136.gzmat
N          0.00000        0.00000        0.00000
C          1.30710        0.00000        0.00000
N          2.01070        0.00000        1.22810
N          3.40490        0.10890        1.21150
C          3.90590        1.46360        1.19460
O          3.10540        2.35530        1.08100
C          5.38030        1.64530        1.25050
C          4.14780       -1.03420        1.64090
O          5.34930       -0.93050        1.64260
C          3.41760       -2.31970        1.99030
H          2.48920       -2.08390        2.57660
C          4.32800       -3.17650        2.87550
C          3.07360       -3.05950        0.72780
C          1.79110       -3.58460        0.56300
C          1.47290       -4.29120       -0.59500
C          2.43170       -4.47210       -1.59000
C          3.71250       -3.94610       -1.42560
C          4.03530       -3.24290       -0.26850
C          1.36390        0.20030        2.49670
O          2.04970        0.25830        3.48890
C         -0.08990        0.21610        2.42820
C         -0.84820        0.36010        3.59980
C         -2.22870        0.36940        3.52140
C         -2.86820        0.23990        2.27560
C         -2.13740        0.10940        1.11020
C         -0.72800        0.10370        1.17840
C          2.06440       -0.02920       -1.31510
C          1.39370       -1.00850       -2.28080
C          2.06010        1.39130       -1.88810
H          5.90730        1.06560        0.47310
H          5.80020        1.30460        2.21540
H          5.64650        2.70730        1.12600
H          3.85940       -4.14150        3.10270
H          4.54500       -2.67430        3.82740
H          5.29180       -3.38150        2.38980
H          1.03570       -3.44580        1.33470
H          0.47230       -4.70110       -0.72070
H          2.18370       -5.02410       -2.49380
H          4.46260       -4.08680       -2.20120
H          5.04110       -2.84110       -0.13810
H         -0.33280        0.46370        4.55870
H         -2.82880        0.47820        4.42190
H         -3.95810        0.24610        2.23620
H         -2.61910        0.01750        0.13760
H          3.12010       -0.36260       -1.14740
H          1.36300       -2.02450       -1.86560
H          1.92760       -1.05050       -3.23490
H          0.35430       -0.71610       -2.48960
H          1.03740        1.72630       -2.11210
H          2.63700        1.44340       -2.81690
H          2.48690        2.12010       -1.18530
