
     RDKit          3D

 44 45  0  0  0  0  0  0  0  0999 V2000
    0.0508    0.0625   -0.1697 N   0  0  0  0  0  0  0  0  0  0  0  0
    1.4595   -0.0011   -0.1261 N   0  0  0  0  0  0  0  0  0  0  0  0
    1.8604   -0.0663    0.8063 H   0  0  0  0  0  0  0  0  0  0  0  0
    1.9099   -0.9654   -1.0213 C   0  0  0  0  0  0  0  0  0  0  0  0
    3.0302   -1.4092   -1.0898 O   0  0  0  0  0  0  0  0  0  0  0  0
    0.7860   -1.3018   -1.7863 N   0  0  0  0  0  0  0  0  0  0  0  0
   -0.3600   -0.6432   -1.2971 C   0  0  0  0  0  0  0  0  0  0  0  0
   -1.4687   -0.6733   -1.7816 O   0  0  0  0  0  0  0  0  0  0  0  0
    0.7987   -2.1914   -2.8974 C   0  0  0  0  0  0  0  0  0  0  0  0
   -0.3121   -3.0047   -3.1592 C   0  0  0  0  0  0  0  0  0  0  0  0
   -0.2886   -3.8686   -4.2550 C   0  0  0  0  0  0  0  0  0  0  0  0
    0.8347   -3.9373   -5.0828 C   0  0  0  0  0  0  0  0  0  0  0  0
    1.9405   -3.1280   -4.8105 C   0  0  0  0  0  0  0  0  0  0  0  0
    1.9277   -2.2503   -3.7258 C   0  0  0  0  0  0  0  0  0  0  0  0
   -0.5731    1.3814    0.1982 C   0  0  0  0  0  0  0  0  0  0  0  0
   -0.3605    2.3136   -1.0242 C   0  0  0  0  0  0  0  0  0  0  0  0
   -0.6394    3.8420   -1.0067 C   0  0  0  0  0  0  0  0  0  0  0  0
   -0.5413    4.2976   -2.4772 C   0  0  0  0  0  0  0  0  0  0  0  0
   -2.0415    4.1962   -0.4863 C   0  0  0  0  0  0  0  0  0  0  0  0
    0.4173    4.6225   -0.2033 C   0  0  0  0  0  0  0  0  0  0  0  0
   -2.0480    1.0987    0.5217 C   0  0  0  0  0  0  0  0  0  0  0  0
    0.1281    1.8555    1.4764 C   0  0  0  0  0  0  0  0  0  0  0  0
   -1.1915   -2.9444   -2.5211 H   0  0  0  0  0  0  0  0  0  0  0  0
   -1.1593   -4.4962   -4.4584 H   0  0  0  0  0  0  0  0  0  0  0  0
    0.8486   -4.6190   -5.9362 H   0  0  0  0  0  0  0  0  0  0  0  0
    2.8255   -3.1743   -5.4494 H   0  0  0  0  0  0  0  0  0  0  0  0
    2.7940   -1.6282   -3.5080 H   0  0  0  0  0  0  0  0  0  0  0  0
   -0.9654    1.8797   -1.8357 H   0  0  0  0  0  0  0  0  0  0  0  0
    0.6939    2.1893   -1.3243 H   0  0  0  0  0  0  0  0  0  0  0  0
    0.4447    4.0529   -2.9039 H   0  0  0  0  0  0  0  0  0  0  0  0
   -0.6842    5.3867   -2.5605 H   0  0  0  0  0  0  0  0  0  0  0  0
   -1.3073    3.8060   -3.0978 H   0  0  0  0  0  0  0  0  0  0  0  0
   -2.1403    4.0152    0.5941 H   0  0  0  0  0  0  0  0  0  0  0  0
   -2.8221    3.6156   -1.0022 H   0  0  0  0  0  0  0  0  0  0  0  0
   -2.2494    5.2649   -0.6562 H   0  0  0  0  0  0  0  0  0  0  0  0
    0.3459    4.4429    0.8775 H   0  0  0  0  0  0  0  0  0  0  0  0
    0.2896    5.7055   -0.3612 H   0  0  0  0  0  0  0  0  0  0  0  0
    1.4371    4.3566   -0.5250 H   0  0  0  0  0  0  0  0  0  0  0  0
   -2.1138    0.2616    1.2330 H   0  0  0  0  0  0  0  0  0  0  0  0
   -2.6122    0.8265   -0.3765 H   0  0  0  0  0  0  0  0  0  0  0  0
   -2.5084    1.9785    0.9863 H   0  0  0  0  0  0  0  0  0  0  0  0
    0.1021    1.0606    2.2391 H   0  0  0  0  0  0  0  0  0  0  0  0
   -0.4005    2.7235    1.8896 H   0  0  0  0  0  0  0  0  0  0  0  0
    1.1709    2.1508    1.2973 H   0  0  0  0  0  0  0  0  0  0  0  0
  1  2  1  0
  1  7  1  0
  1 15  1  0
  2  3  1  0
  2  4  1  0
  4  5  2  0
  4  6  1  0
  6  7  1  0
  6  9  1  0
  7  8  2  0
  9 10  2  0
  9 14  1  0
 10 11  1  0
 10 23  1  0
 11 12  2  0
 11 24  1  0
 12 13  1  0
 12 25  1  0
 13 14  2  0
 13 26  1  0
 14 27  1  0
 15 16  1  0
 15 21  1  0
 15 22  1  0
 17 16  1  0
 16 28  1  0
 16 29  1  0
 17 18  1  0
 17 19  1  0
 17 20  1  0
 18 30  1  0
 18 31  1  0
 18 32  1  0
 19 33  1  0
 19 34  1  0
 19 35  1  0
 20 36  1  0
 20 37  1  0
 20 38  1  0
 21 39  1  0
 21 40  1  0
 21 41  1  0
 22 42  1  0
 22 43  1  0
 22 44  1  0
M  END

