rmsd12.gzmat
 OpenBabel08211713373D

 44 45  0  0  0  0  0  0  0  0999 V2000
    0.0000    0.0000    0.0000 N   0  0  0  0  0  0  0  0  0  0  0  0
    1.4343    0.0000    0.0000 N   0  0  0  0  0  0  0  0  0  0  0  0
    1.8165    0.0000    0.9483 H   0  0  0  0  0  0  0  0  0  0  0  0
    1.8935   -0.9823   -0.9266 C   0  0  0  0  0  0  0  0  0  0  0  0
    3.0246   -1.3704   -1.0268 O   0  0  0  0  0  0  0  0  0  0  0  0
    0.7638   -1.3425   -1.7062 N   0  0  0  0  0  0  0  0  0  0  0  0
   -0.4009   -0.7003   -1.1957 C   0  0  0  0  0  0  0  0  0  0  0  0
   -1.5168   -0.8183   -1.6192 O   0  0  0  0  0  0  0  0  0  0  0  0
    0.7988   -2.1865   -2.8469 C   0  0  0  0  0  0  0  0  0  0  0  0
   -0.3345   -2.9345   -3.1904 C   0  0  0  0  0  0  0  0  0  0  0  0
   -0.2913   -3.7505   -4.3171 C   0  0  0  0  0  0  0  0  0  0  0  0
    0.8661   -3.8293   -5.0897 C   0  0  0  0  0  0  0  0  0  0  0  0
    1.9926   -3.0905   -4.7324 C   0  0  0  0  0  0  0  0  0  0  0  0
    1.9686   -2.2627   -3.6143 C   0  0  0  0  0  0  0  0  0  0  0  0
   -0.5899    1.3695    0.2282 C   0  0  0  0  0  0  0  0  0  0  0  0
    0.0469    2.0432    1.4697 C   0  0  0  0  0  0  0  0  0  0  0  0
   -0.2053    1.4857    2.8939 C   0  0  0  0  0  0  0  0  0  0  0  0
    0.8432    2.1461    3.8199 C   0  0  0  0  0  0  0  0  0  0  0  0
   -1.6004    1.8826    3.4060 C   0  0  0  0  0  0  0  0  0  0  0  0
   -0.0460   -0.0345    2.9942 C   0  0  0  0  0  0  0  0  0  0  0  0
   -0.3101    2.2752   -0.9909 C   0  0  0  0  0  0  0  0  0  0  0  0
   -2.1009    1.1672    0.3746 C   0  0  0  0  0  0  0  0  0  0  0  0
   -1.2438   -2.8797   -2.5905 H   0  0  0  0  0  0  0  0  0  0  0  0
   -1.1705   -4.3316   -4.5929 H   0  0  0  0  0  0  0  0  0  0  0  0
    0.8905   -4.4669   -5.9700 H   0  0  0  0  0  0  0  0  0  0  0  0
    2.9009   -3.1589   -5.3305 H   0  0  0  0  0  0  0  0  0  0  0  0
    2.8558   -1.6908   -3.3401 H   0  0  0  0  0  0  0  0  0  0  0  0
   -0.2930    3.1013    1.4684 H   0  0  0  0  0  0  0  0  0  0  0  0
    1.1422    2.1069    1.3064 H   0  0  0  0  0  0  0  0  0  0  0  0
    1.8636    1.8857    3.5245 H   0  0  0  0  0  0  0  0  0  0  0  0
    0.7147    1.8193    4.8571 H   0  0  0  0  0  0  0  0  0  0  0  0
    0.7580    3.2367    3.8092 H   0  0  0  0  0  0  0  0  0  0  0  0
   -2.3908    1.2940    2.9301 H   0  0  0  0  0  0  0  0  0  0  0  0
   -1.8134    2.9403    3.2253 H   0  0  0  0  0  0  0  0  0  0  0  0
   -1.6873    1.7121    4.4852 H   0  0  0  0  0  0  0  0  0  0  0  0
   -0.7132   -0.5577    2.2971 H   0  0  0  0  0  0  0  0  0  0  0  0
   -0.2926   -0.3901    4.0013 H   0  0  0  0  0  0  0  0  0  0  0  0
    0.9763   -0.3578    2.7821 H   0  0  0  0  0  0  0  0  0  0  0  0
   -0.7658    1.8748   -1.9053 H   0  0  0  0  0  0  0  0  0  0  0  0
    0.7661    2.3790   -1.1761 H   0  0  0  0  0  0  0  0  0  0  0  0
   -0.7210    3.2786   -0.8439 H   0  0  0  0  0  0  0  0  0  0  0  0
   -2.5843    0.9329   -0.5857 H   0  0  0  0  0  0  0  0  0  0  0  0
   -2.5760    2.0736    0.7649 H   0  0  0  0  0  0  0  0  0  0  0  0
   -2.3390    0.3360    1.0515 H   0  0  0  0  0  0  0  0  0  0  0  0
  1  2  1  0  0  0  0
  1 15  1  0  0  0  0
  2  3  1  0  0  0  0
  4  2  1  0  0  0  0
  5  4  2  0  0  0  0
  6  7  1  0  0  0  0
  6  4  1  0  0  0  0
  7  1  1  0  0  0  0
  8  7  2  0  0  0  0
  9  6  1  0  0  0  0
 10  9  1  0  0  0  0
 10 23  1  0  0  0  0
 11 10  2  0  0  0  0
 12 13  2  0  0  0  0
 12 11  1  0  0  0  0
 13 14  1  0  0  0  0
 14 27  1  0  0  0  0
 14  9  2  0  0  0  0
 15 22  1  0  0  0  0
 15 16  1  0  0  0  0
 16 17  1  0  0  0  0
 17 20  1  0  0  0  0
 17 19  1  0  0  0  0
 17 18  1  0  0  0  0
 18 31  1  0  0  0  0
 19 35  1  0  0  0  0
 20 37  1  0  0  0  0
 21 41  1  0  0  0  0
 21 15  1  0  0  0  0
 22 43  1  0  0  0  0
 22 44  1  0  0  0  0
 24 11  1  0  0  0  0
 25 12  1  0  0  0  0
 26 13  1  0  0  0  0
 28 16  1  0  0  0  0
 29 16  1  0  0  0  0
 30 18  1  0  0  0  0
 32 18  1  0  0  0  0
 33 19  1  0  0  0  0
 34 19  1  0  0  0  0
 36 20  1  0  0  0  0
 38 20  1  0  0  0  0
 39 21  1  0  0  0  0
 40 21  1  0  0  0  0
 42 22  1  0  0  0  0
M  END
$$$$
