rmsd68.gzmat
 OpenBabel08211713373D

 44 45  0  0  0  0  0  0  0  0999 V2000
    0.0000    0.0000    0.0000 N   0  0  0  0  0  0  0  0  0  0  0  0
    1.4336    0.0000    0.0000 N   0  0  0  0  0  0  0  0  0  0  0  0
    1.8166    0.0000    0.9480 H   0  0  0  0  0  0  0  0  0  0  0  0
    1.8906   -0.9821   -0.9278 C   0  0  0  0  0  0  0  0  0  0  0  0
    3.0202   -1.3760   -1.0239 O   0  0  0  0  0  0  0  0  0  0  0  0
    0.7635   -1.3252   -1.7190 N   0  0  0  0  0  0  0  0  0  0  0  0
   -0.3990   -0.6775   -1.2093 C   0  0  0  0  0  0  0  0  0  0  0  0
   -1.5128   -0.7792   -1.6423 O   0  0  0  0  0  0  0  0  0  0  0  0
    0.7979   -2.1684   -2.8609 C   0  0  0  0  0  0  0  0  0  0  0  0
    1.7615   -3.1824   -2.9413 C   0  0  0  0  0  0  0  0  0  0  0  0
    1.7862   -4.0072   -4.0618 C   0  0  0  0  0  0  0  0  0  0  0  0
    0.8609   -3.8318   -5.0893 C   0  0  0  0  0  0  0  0  0  0  0  0
   -0.0937   -2.8204   -5.0003 C   0  0  0  0  0  0  0  0  0  0  0  0
   -0.1302   -1.9788   -3.8924 C   0  0  0  0  0  0  0  0  0  0  0  0
   -0.5980    1.3594    0.2630 C   0  0  0  0  0  0  0  0  0  0  0  0
    0.0801    2.0424    1.4771 C   0  0  0  0  0  0  0  0  0  0  0  0
   -0.1126    1.4864    2.9108 C   0  0  0  0  0  0  0  0  0  0  0  0
    0.9759    2.1445    3.7908 C   0  0  0  0  0  0  0  0  0  0  0  0
   -1.4827    1.8915    3.4818 C   0  0  0  0  0  0  0  0  0  0  0  0
    0.0432   -0.0341    3.0104 C   0  0  0  0  0  0  0  0  0  0  0  0
   -0.3895    2.2763   -0.9619 C   0  0  0  0  0  0  0  0  0  0  0  0
   -2.0970    1.1276    0.4786 C   0  0  0  0  0  0  0  0  0  0  0  0
    2.4910   -3.3243   -2.1429 H   0  0  0  0  0  0  0  0  0  0  0  0
    2.5364   -4.7942   -4.1330 H   0  0  0  0  0  0  0  0  0  0  0  0
    0.8863   -4.4820   -5.9608 H   0  0  0  0  0  0  0  0  0  0  0  0
   -0.8172   -2.6835   -5.8031 H   0  0  0  0  0  0  0  0  0  0  0  0
   -0.8788   -1.1889   -3.8319 H   0  0  0  0  0  0  0  0  0  0  0  0
   -0.2701    3.0975    1.4872 H   0  0  0  0  0  0  0  0  0  0  0  0
    1.1673    2.1201    1.2707 H   0  0  0  0  0  0  0  0  0  0  0  0
    1.9828    1.8876    3.4494 H   0  0  0  0  0  0  0  0  0  0  0  0
    0.8913    1.8155    4.8319 H   0  0  0  0  0  0  0  0  0  0  0  0
    0.8870    3.2350    3.7870 H   0  0  0  0  0  0  0  0  0  0  0  0
   -2.2947    1.2956    3.0545 H   0  0  0  0  0  0  0  0  0  0  0  0
   -1.7068    2.9455    3.2946 H   0  0  0  0  0  0  0  0  0  0  0  0
   -1.5156    1.7409    4.5667 H   0  0  0  0  0  0  0  0  0  0  0  0
   -0.6325   -0.5584    2.3222 H   0  0  0  0  0  0  0  0  0  0  0  0
   -0.1925   -0.3866    4.0215 H   0  0  0  0  0  0  0  0  0  0  0  0
    1.0624   -0.3611    2.7894 H   0  0  0  0  0  0  0  0  0  0  0  0
   -0.8797    1.8745   -1.8572 H   0  0  0  0  0  0  0  0  0  0  0  0
    0.6752    2.4017   -1.1940 H   0  0  0  0  0  0  0  0  0  0  0  0
   -0.8111    3.2713   -0.7890 H   0  0  0  0  0  0  0  0  0  0  0  0
   -2.6133    0.8523   -0.4530 H   0  0  0  0  0  0  0  0  0  0  0  0
   -2.5766    2.0344    0.8626 H   0  0  0  0  0  0  0  0  0  0  0  0
   -2.2868    0.3132    1.1904 H   0  0  0  0  0  0  0  0  0  0  0  0
  1  2  1  0  0  0  0
  1 15  1  0  0  0  0
  2  3  1  0  0  0  0
  4  2  1  0  0  0  0
  5  4  2  0  0  0  0
  6  7  1  0  0  0  0
  6  4  1  0  0  0  0
  7  1  1  0  0  0  0
  8  7  2  0  0  0  0
  9  6  1  0  0  0  0
 10  9  1  0  0  0  0
 10 23  1  0  0  0  0
 11 10  2  0  0  0  0
 12 13  2  0  0  0  0
 12 11  1  0  0  0  0
 13 14  1  0  0  0  0
 14 27  1  0  0  0  0
 14  9  2  0  0  0  0
 15 22  1  0  0  0  0
 15 16  1  0  0  0  0
 16 28  1  0  0  0  0
 16 17  1  0  0  0  0
 17 20  1  0  0  0  0
 17 19  1  0  0  0  0
 17 18  1  0  0  0  0
 18 31  1  0  0  0  0
 19 35  1  0  0  0  0
 20 37  1  0  0  0  0
 21 41  1  0  0  0  0
 21 15  1  0  0  0  0
 22 43  1  0  0  0  0
 22 44  1  0  0  0  0
 24 11  1  0  0  0  0
 25 12  1  0  0  0  0
 26 13  1  0  0  0  0
 29 16  1  0  0  0  0
 30 18  1  0  0  0  0
 32 18  1  0  0  0  0
 33 19  1  0  0  0  0
 34 19  1  0  0  0  0
 36 20  1  0  0  0  0
 38 20  1  0  0  0  0
 39 21  1  0  0  0  0
 40 21  1  0  0  0  0
 42 22  1  0  0  0  0
M  END
$$$$
