rmsd42.gzmat
 OpenBabel08211713373D

 44 45  0  0  0  0  0  0  0  0999 V2000
    0.0000    0.0000    0.0000 N   0  0  0  0  0  0  0  0  0  0  0  0
    1.4336    0.0000    0.0000 N   0  0  0  0  0  0  0  0  0  0  0  0
    1.8173    0.0000    0.9477 H   0  0  0  0  0  0  0  0  0  0  0  0
    1.8903   -0.9816   -0.9282 C   0  0  0  0  0  0  0  0  0  0  0  0
    3.0211   -1.3721   -1.0254 O   0  0  0  0  0  0  0  0  0  0  0  0
    0.7624   -1.3285   -1.7167 N   0  0  0  0  0  0  0  0  0  0  0  0
   -0.4008   -0.6841   -1.2043 C   0  0  0  0  0  0  0  0  0  0  0  0
   -1.5164   -0.7948   -1.6301 O   0  0  0  0  0  0  0  0  0  0  0  0
    0.7977   -2.1627   -2.8649 C   0  0  0  0  0  0  0  0  0  0  0  0
    1.7840   -3.1528   -2.9687 C   0  0  0  0  0  0  0  0  0  0  0  0
    1.8170   -3.9610   -4.1006 C   0  0  0  0  0  0  0  0  0  0  0  0
    0.8783   -3.7932   -5.1173 C   0  0  0  0  0  0  0  0  0  0  0  0
   -0.1012   -2.8085   -5.0032 C   0  0  0  0  0  0  0  0  0  0  0  0
   -0.1500   -1.9868   -3.8813 C   0  0  0  0  0  0  0  0  0  0  0  0
   -0.5945    1.3621    0.2549 C   0  0  0  0  0  0  0  0  0  0  0  0
    0.0471    2.0175    1.5034 C   0  0  0  0  0  0  0  0  0  0  0  0
   -0.1925    1.4295    2.9176 C   0  0  0  0  0  0  0  0  0  0  0  0
    0.8738    2.0582    3.8446 C   0  0  0  0  0  0  0  0  0  0  0  0
   -1.5775    1.8282    3.4556 C   0  0  0  0  0  0  0  0  0  0  0  0
   -0.0494   -0.0941    2.9848 C   0  0  0  0  0  0  0  0  0  0  0  0
   -0.3282    2.2910   -0.9496 C   0  0  0  0  0  0  0  0  0  0  0  0
   -2.1031    1.1473    0.4093 C   0  0  0  0  0  0  0  0  0  0  0  0
    2.5239   -3.2905   -2.1791 H   0  0  0  0  0  0  0  0  0  0  0  0
    2.5837   -4.7303   -4.1885 H   0  0  0  0  0  0  0  0  0  0  0  0
    0.9107   -4.4298   -5.9984 H   0  0  0  0  0  0  0  0  0  0  0  0
   -0.8361   -2.6772   -5.7964 H   0  0  0  0  0  0  0  0  0  0  0  0
   -0.9226   -1.2222   -3.8005 H   0  0  0  0  0  0  0  0  0  0  0  0
   -0.2994    3.0733    1.5254 H   0  0  0  0  0  0  0  0  0  0  0  0
    1.1408    2.0937    1.3323 H   0  0  0  0  0  0  0  0  0  0  0  0
    1.8890    1.8103    3.5207 H   0  0  0  0  0  0  0  0  0  0  0  0
    0.7638    1.6961    4.8721 H   0  0  0  0  0  0  0  0  0  0  0  0
    0.7878    3.1485    3.8721 H   0  0  0  0  0  0  0  0  0  0  0  0
   -2.3801    1.2684    2.9655 H   0  0  0  0  0  0  0  0  0  0  0  0
   -1.7776    2.8941    3.3148 H   0  0  0  0  0  0  0  0  0  0  0  0
   -1.6576    1.6213    4.5287 H   0  0  0  0  0  0  0  0  0  0  0  0
   -0.7231   -0.5970    2.2792 H   0  0  0  0  0  0  0  0  0  0  0  0
   -0.2965   -0.4681    3.9850 H   0  0  0  0  0  0  0  0  0  0  0  0
    0.9686   -0.4230    2.7624 H   0  0  0  0  0  0  0  0  0  0  0  0
   -0.7683    1.8947   -1.8730 H   0  0  0  0  0  0  0  0  0  0  0  0
    0.7468    2.4224   -1.1263 H   0  0  0  0  0  0  0  0  0  0  0  0
   -0.7638    3.2822   -0.7896 H   0  0  0  0  0  0  0  0  0  0  0  0
   -2.5894    0.9094   -0.5482 H   0  0  0  0  0  0  0  0  0  0  0  0
   -2.5842    2.0480    0.8045 H   0  0  0  0  0  0  0  0  0  0  0  0
   -2.3303    0.3130    1.0861 H   0  0  0  0  0  0  0  0  0  0  0  0
  1  2  1  0  0  0  0
  1 15  1  0  0  0  0
  2  3  1  0  0  0  0
  4  2  1  0  0  0  0
  5  4  2  0  0  0  0
  6  7  1  0  0  0  0
  6  4  1  0  0  0  0
  7  1  1  0  0  0  0
  8  7  2  0  0  0  0
  9  6  1  0  0  0  0
 10  9  1  0  0  0  0
 10 23  1  0  0  0  0
 11 10  2  0  0  0  0
 12 13  2  0  0  0  0
 12 11  1  0  0  0  0
 13 14  1  0  0  0  0
 14 27  1  0  0  0  0
 14  9  2  0  0  0  0
 15 22  1  0  0  0  0
 15 16  1  0  0  0  0
 16 28  1  0  0  0  0
 16 17  1  0  0  0  0
 17 20  1  0  0  0  0
 17 19  1  0  0  0  0
 17 18  1  0  0  0  0
 18 32  1  0  0  0  0
 18 31  1  0  0  0  0
 19 35  1  0  0  0  0
 20 37  1  0  0  0  0
 21 41  1  0  0  0  0
 21 15  1  0  0  0  0
 22 43  1  0  0  0  0
 22 44  1  0  0  0  0
 24 11  1  0  0  0  0
 25 12  1  0  0  0  0
 26 13  1  0  0  0  0
 29 16  1  0  0  0  0
 30 18  1  0  0  0  0
 33 19  1  0  0  0  0
 34 19  1  0  0  0  0
 36 20  1  0  0  0  0
 38 20  1  0  0  0  0
 39 21  1  0  0  0  0
 40 21  1  0  0  0  0
 42 22  1  0  0  0  0
M  END
$$$$
