44
rmsd55.gzmat
N          0.00000        0.00000        0.00000
N          1.43440        0.00000        0.00000
H          1.82000        0.00000        0.94390
C          1.89650       -0.97650       -0.93060
O          3.03010       -1.35420       -1.03910
N          0.76580       -1.34220       -1.70620
C         -0.40350       -0.71710       -1.18490
O         -1.52040       -0.85330       -1.59930
C          0.80460       -2.18950       -2.84410
C          1.96800       -2.24090       -3.62320
C          2.00360       -3.08120       -4.73130
C          0.89330       -3.85400       -5.06780
C         -0.26250       -3.78870       -4.29150
C         -0.31580       -2.96290       -3.17260
C         -0.58110        1.39220        0.21350
C         -0.17280        2.28950       -0.97810
C         -0.85720        3.66060       -1.19460
C          0.01730        4.43070       -2.21240
C         -2.25710        3.49910       -1.80700
C         -0.94780        4.49660        0.08680
C         -2.08820        1.16850        0.35620
C         -0.00440        1.88950        1.55060
H          2.84000       -1.63940       -3.36440
H          2.90620       -3.13200       -5.33910
H          0.93000       -4.50790       -5.93560
H         -1.13170       -4.38910       -4.55740
H         -1.22090       -2.92140       -2.56540
H         -0.31050        1.71180       -1.91710
H          0.92390        2.45880       -0.90250
H          1.01920        4.62160       -1.81510
H         -0.42540        5.40000       -2.46140
H          0.12600        3.87330       -3.14860
H         -2.96950        3.06180       -1.10240
H         -2.23510        2.85440       -2.69310
H         -2.66630        4.46780       -2.11480
H         -1.65960        4.07050        0.80030
H         -1.28780        5.51550       -0.13200
H          0.02620        4.57850        0.58030
H         -2.30860        0.33520        1.03790
H         -2.56520        0.92450       -0.60450
H         -2.58230        2.06030        0.75570
H         -0.02730        1.10010        2.31270
H         -0.59410        2.72310        1.94750
H          1.02660        2.24470        1.44860
