rmsd8.gzmat
 OpenBabel08211713373D

 44 45  0  0  0  0  0  0  0  0999 V2000
    0.0000    0.0000    0.0000 N   0  0  0  0  0  0  0  0  0  0  0  0
    1.4338    0.0000    0.0000 N   0  0  0  0  0  0  0  0  0  0  0  0
    1.8167    0.0000    0.9483 H   0  0  0  0  0  0  0  0  0  0  0  0
    1.8903   -0.9829   -0.9269 C   0  0  0  0  0  0  0  0  0  0  0  0
    3.0200   -1.3756   -1.0252 O   0  0  0  0  0  0  0  0  0  0  0  0
    0.7613   -1.3345   -1.7114 N   0  0  0  0  0  0  0  0  0  0  0  0
   -0.4012   -0.6874   -1.2020 C   0  0  0  0  0  0  0  0  0  0  0  0
   -1.5162   -0.7939   -1.6309 O   0  0  0  0  0  0  0  0  0  0  0  0
    0.7994   -2.1664   -2.8607 C   0  0  0  0  0  0  0  0  0  0  0  0
   -0.3397   -2.8932   -3.2300 C   0  0  0  0  0  0  0  0  0  0  0  0
   -0.2888   -3.7036   -4.3603 C   0  0  0  0  0  0  0  0  0  0  0  0
    0.8811   -3.7968   -5.1120 C   0  0  0  0  0  0  0  0  0  0  0  0
    2.0107   -3.0727   -4.7344 C   0  0  0  0  0  0  0  0  0  0  0  0
    1.9792   -2.2513   -3.6120 C   0  0  0  0  0  0  0  0  0  0  0  0
   -0.5963    1.3612    0.2535 C   0  0  0  0  0  0  0  0  0  0  0  0
    0.0571    2.0298    1.4891 C   0  0  0  0  0  0  0  0  0  0  0  0
   -0.1565    1.4518    2.9114 C   0  0  0  0  0  0  0  0  0  0  0  0
    0.9060    2.1130    3.8210 C   0  0  0  0  0  0  0  0  0  0  0  0
   -1.5436    1.8278    3.4604 C   0  0  0  0  0  0  0  0  0  0  0  0
    0.0194   -0.0676    2.9943 C   0  0  0  0  0  0  0  0  0  0  0  0
   -0.3504    2.2838   -0.9600 C   0  0  0  0  0  0  0  0  0  0  0  0
   -2.1019    1.1384    0.4269 C   0  0  0  0  0  0  0  0  0  0  0  0
   -1.2590   -2.8269   -2.6472 H   0  0  0  0  0  0  0  0  0  0  0  0
   -1.1719   -4.2691   -4.6556 H   0  0  0  0  0  0  0  0  0  0  0  0
    0.9135   -4.4346   -5.9920 H   0  0  0  0  0  0  0  0  0  0  0  0
    2.9267   -3.1478   -5.3193 H   0  0  0  0  0  0  0  0  0  0  0  0
    2.8688   -1.6908   -3.3218 H   0  0  0  0  0  0  0  0  0  0  0  0
   -0.2983    3.0828    1.5086 H   0  0  0  0  0  0  0  0  0  0  0  0
    1.1474    2.1140    1.3014 H   0  0  0  0  0  0  0  0  0  0  0  0
    1.9226    1.8744    3.4956 H   0  0  0  0  0  0  0  0  0  0  0  0
    0.8066    1.7679    4.8554 H   0  0  0  0  0  0  0  0  0  0  0  0
    0.8017    3.2021    3.8303 H   0  0  0  0  0  0  0  0  0  0  0  0
   -2.3390    1.2418    2.9891 H   0  0  0  0  0  0  0  0  0  0  0  0
   -1.7697    2.8867    3.3053 H   0  0  0  0  0  0  0  0  0  0  0  0
   -1.6053    1.6360    4.5375 H   0  0  0  0  0  0  0  0  0  0  0  0
   -0.6536   -0.5923    2.3046 H   0  0  0  0  0  0  0  0  0  0  0  0
   -0.2058   -0.4346    4.0025 H   0  0  0  0  0  0  0  0  0  0  0  0
    1.0420   -0.3778    2.7641 H   0  0  0  0  0  0  0  0  0  0  0  0
   -0.8006    1.8783   -1.8748 H   0  0  0  0  0  0  0  0  0  0  0  0
    0.7203    2.4202   -1.1522 H   0  0  0  0  0  0  0  0  0  0  0  0
   -0.7896    3.2737   -0.8019 H   0  0  0  0  0  0  0  0  0  0  0  0
   -2.5972    0.8946   -0.5250 H   0  0  0  0  0  0  0  0  0  0  0  0
   -2.5835    2.0381    0.8240 H   0  0  0  0  0  0  0  0  0  0  0  0
   -2.3162    0.3056    1.1097 H   0  0  0  0  0  0  0  0  0  0  0  0
  1  2  1  0  0  0  0
  1 15  1  0  0  0  0
  2  3  1  0  0  0  0
  4  2  1  0  0  0  0
  5  4  2  0  0  0  0
  6  7  1  0  0  0  0
  6  4  1  0  0  0  0
  7  1  1  0  0  0  0
  8  7  2  0  0  0  0
  9  6  1  0  0  0  0
 10  9  1  0  0  0  0
 10 23  1  0  0  0  0
 11 10  2  0  0  0  0
 12 13  2  0  0  0  0
 12 11  1  0  0  0  0
 13 14  1  0  0  0  0
 14 27  1  0  0  0  0
 14  9  2  0  0  0  0
 15 22  1  0  0  0  0
 15 16  1  0  0  0  0
 16 28  1  0  0  0  0
 16 17  1  0  0  0  0
 17 20  1  0  0  0  0
 17 19  1  0  0  0  0
 17 18  1  0  0  0  0
 18 32  1  0  0  0  0
 18 31  1  0  0  0  0
 19 35  1  0  0  0  0
 20 37  1  0  0  0  0
 21 41  1  0  0  0  0
 21 15  1  0  0  0  0
 22 43  1  0  0  0  0
 22 44  1  0  0  0  0
 24 11  1  0  0  0  0
 25 12  1  0  0  0  0
 26 13  1  0  0  0  0
 29 16  1  0  0  0  0
 30 18  1  0  0  0  0
 33 19  1  0  0  0  0
 34 19  1  0  0  0  0
 36 20  1  0  0  0  0
 38 20  1  0  0  0  0
 39 21  1  0  0  0  0
 40 21  1  0  0  0  0
 42 22  1  0  0  0  0
M  END
$$$$
