44
rmsd60.gzmat
N          0.00000        0.00000        0.00000
N          1.43470        0.00000        0.00000
H          1.81710        0.00000        0.94730
C          1.89330       -0.98530       -0.92530
O          3.02570       -1.36700       -1.03260
N          0.76060       -1.35620       -1.69430
C         -0.40390       -0.71270       -1.18560
O         -1.52080       -0.84770       -1.60120
C          0.78910       -2.20610       -2.83080
C          1.93850       -2.25020       -3.63070
C          1.95660       -3.08420       -4.74440
C          0.84430       -3.86170       -5.06280
C         -0.29270       -3.81380       -4.25840
C         -0.33040       -2.99110       -3.13650
C         -0.58520        1.37040        0.22560
C         -0.08470        1.95600        1.57070
C         -0.46620        1.29600        2.92030
C          0.35870        2.02210        4.00980
C         -1.95340        1.49240        3.25560
C         -0.13020       -0.19730        2.97370
C         -0.14030        2.33180       -0.89850
C         -2.10800        1.21200        0.18090
H          2.81360       -1.64850       -3.38310
H          2.84790       -3.12730       -5.36940
H          0.86450       -4.50580       -5.93860
H         -1.16060       -4.42430       -4.50510
H         -1.22400       -2.95870       -2.51190
H         -0.43990        3.00850        1.60910
H          1.02080        2.03460        1.52510
H          1.43400        1.91880        3.84130
H          0.14670        1.61200        5.00270
H          0.12450        3.09010        4.04190
H         -2.59370        0.81730        2.67810
H         -2.27950        2.51830        3.06200
H         -2.15040        1.28010        4.31260
H         -0.67970       -0.75990        2.20770
H         -0.40350       -0.62790        3.94390
H          0.93650       -0.38250        2.82640
H         -0.44420        1.96600       -1.88660
H          0.95020        2.45340       -0.91900
H         -0.58470        3.32360       -0.77050
H         -2.48590        1.11590       -0.84750
H         -2.60510        2.07800        0.62980
H         -2.44120        0.31230        0.71670
