44
rmsd68.gzmat
N          0.00000        0.00000        0.00000
N          1.43360        0.00000        0.00000
H          1.81660        0.00000        0.94800
C          1.89060       -0.98210       -0.92780
O          3.02020       -1.37600       -1.02390
N          0.76350       -1.32520       -1.71900
C         -0.39900       -0.67750       -1.20930
O         -1.51280       -0.77920       -1.64230
C          0.79790       -2.16840       -2.86090
C          1.76150       -3.18240       -2.94130
C          1.78620       -4.00720       -4.06180
C          0.86090       -3.83180       -5.08930
C         -0.09370       -2.82040       -5.00030
C         -0.13020       -1.97880       -3.89240
C         -0.59800        1.35940        0.26300
C          0.08010        2.04240        1.47710
C         -0.11260        1.48640        2.91080
C          0.97590        2.14450        3.79080
C         -1.48270        1.89150        3.48180
C          0.04320       -0.03410        3.01040
C         -0.38950        2.27630       -0.96190
C         -2.09700        1.12760        0.47860
H          2.49100       -3.32430       -2.14290
H          2.53640       -4.79420       -4.13300
H          0.88630       -4.48200       -5.96080
H         -0.81720       -2.68350       -5.80310
H         -0.87880       -1.18890       -3.83190
H         -0.27010        3.09750        1.48720
H          1.16730        2.12010        1.27070
H          1.98280        1.88760        3.44940
H          0.89130        1.81550        4.83190
H          0.88700        3.23500        3.78700
H         -2.29470        1.29560        3.05450
H         -1.70680        2.94550        3.29460
H         -1.51560        1.74090        4.56670
H         -0.63250       -0.55840        2.32220
H         -0.19250       -0.38660        4.02150
H          1.06240       -0.36110        2.78940
H         -0.87970        1.87450       -1.85720
H          0.67520        2.40170       -1.19400
H         -0.81110        3.27130       -0.78900
H         -2.61330        0.85230       -0.45300
H         -2.57660        2.03440        0.86260
H         -2.28680        0.31320        1.19040
