44

N          0.04660        0.16100       -0.12570
N          1.45560        0.10490       -0.07980
H          1.85570        0.05750        0.85420
C          1.90710       -0.87700       -0.95550
O          3.02930       -1.31680       -1.01820
N          0.78200       -1.23440       -1.70940
C         -0.36540       -0.57210       -1.22810
O         -1.48060       -0.63010       -1.69940
C          0.79430       -2.15410       -2.79600
C          1.92030       -2.22920       -3.62720
C          1.93440       -3.13700       -4.68670
C          0.83280       -3.96080       -4.93130
C         -0.28750       -3.87580       -4.10110
C         -0.31230       -2.98140       -3.03010
C         -0.59060        1.45930        0.25980
C         -2.09340        1.25030        0.56630
C         -2.61430        0.37560        1.74140
C         -4.13260        0.23580        1.50690
C         -2.00090       -1.03440        1.75990
C         -2.41440        1.03980        3.11670
C          0.18340        2.02540        1.45700
C         -0.46470        2.43160       -0.92700
H          2.78350       -1.59580       -3.43060
H          2.81710       -3.19580       -5.32780
H          0.84770       -4.66630       -5.76510
H         -1.15500       -4.51450       -4.28310
H         -1.18970       -2.90870       -2.39070
H         -2.54330        0.86130       -0.35490
H         -2.50510        2.26420        0.70610
H         -4.62400        1.22220        1.47870
H         -4.60100       -0.35030        2.31360
H         -4.33950       -0.27210        0.55190
H         -0.92590       -1.01540        1.98910
H         -2.13210       -1.53420        0.78880
H         -2.49700       -1.64880        2.52910
H         -1.36310        1.05670        3.43290
H         -2.97350        0.48620        3.88820
H         -2.78570        2.07760        3.11770
H          1.18080        2.37560        1.15460
H          0.29850        1.28590        2.26130
H         -0.36360        2.88380        1.86990
H          0.58980        2.52440       -1.22930
H         -0.83340        3.43070       -0.65040
H         -1.04980        2.07330       -1.78620
