
     RDKit          3D

 44 45  0  0  0  0  0  0  0  0999 V2000
    0.0466    0.1610   -0.1257 N   0  0  0  0  0  0  0  0  0  0  0  0
    1.4556    0.1049   -0.0798 N   0  0  0  0  0  0  0  0  0  0  0  0
    1.8557    0.0575    0.8542 H   0  0  0  0  0  0  0  0  0  0  0  0
    1.9071   -0.8770   -0.9555 C   0  0  0  0  0  0  0  0  0  0  0  0
    3.0293   -1.3168   -1.0182 O   0  0  0  0  0  0  0  0  0  0  0  0
    0.7820   -1.2344   -1.7094 N   0  0  0  0  0  0  0  0  0  0  0  0
   -0.3654   -0.5721   -1.2281 C   0  0  0  0  0  0  0  0  0  0  0  0
   -1.4806   -0.6301   -1.6994 O   0  0  0  0  0  0  0  0  0  0  0  0
    0.7943   -2.1541   -2.7960 C   0  0  0  0  0  0  0  0  0  0  0  0
    1.9203   -2.2292   -3.6272 C   0  0  0  0  0  0  0  0  0  0  0  0
    1.9344   -3.1370   -4.6867 C   0  0  0  0  0  0  0  0  0  0  0  0
    0.8328   -3.9608   -4.9313 C   0  0  0  0  0  0  0  0  0  0  0  0
   -0.2875   -3.8758   -4.1011 C   0  0  0  0  0  0  0  0  0  0  0  0
   -0.3123   -2.9814   -3.0301 C   0  0  0  0  0  0  0  0  0  0  0  0
   -0.5906    1.4593    0.2598 C   0  0  0  0  0  0  0  0  0  0  0  0
   -2.0934    1.2503    0.5663 C   0  0  0  0  0  0  0  0  0  0  0  0
   -2.6143    0.3756    1.7414 C   0  0  0  0  0  0  0  0  0  0  0  0
   -4.1326    0.2358    1.5069 C   0  0  0  0  0  0  0  0  0  0  0  0
   -2.0009   -1.0344    1.7599 C   0  0  0  0  0  0  0  0  0  0  0  0
   -2.4144    1.0398    3.1167 C   0  0  0  0  0  0  0  0  0  0  0  0
    0.1834    2.0254    1.4570 C   0  0  0  0  0  0  0  0  0  0  0  0
   -0.4647    2.4316   -0.9270 C   0  0  0  0  0  0  0  0  0  0  0  0
    2.7835   -1.5958   -3.4306 H   0  0  0  0  0  0  0  0  0  0  0  0
    2.8171   -3.1958   -5.3278 H   0  0  0  0  0  0  0  0  0  0  0  0
    0.8477   -4.6663   -5.7651 H   0  0  0  0  0  0  0  0  0  0  0  0
   -1.1550   -4.5145   -4.2831 H   0  0  0  0  0  0  0  0  0  0  0  0
   -1.1897   -2.9087   -2.3907 H   0  0  0  0  0  0  0  0  0  0  0  0
   -2.5433    0.8613   -0.3549 H   0  0  0  0  0  0  0  0  0  0  0  0
   -2.5051    2.2642    0.7061 H   0  0  0  0  0  0  0  0  0  0  0  0
   -4.6240    1.2222    1.4787 H   0  0  0  0  0  0  0  0  0  0  0  0
   -4.6010   -0.3503    2.3136 H   0  0  0  0  0  0  0  0  0  0  0  0
   -4.3395   -0.2721    0.5519 H   0  0  0  0  0  0  0  0  0  0  0  0
   -0.9259   -1.0154    1.9891 H   0  0  0  0  0  0  0  0  0  0  0  0
   -2.1321   -1.5342    0.7888 H   0  0  0  0  0  0  0  0  0  0  0  0
   -2.4970   -1.6488    2.5291 H   0  0  0  0  0  0  0  0  0  0  0  0
   -1.3631    1.0567    3.4329 H   0  0  0  0  0  0  0  0  0  0  0  0
   -2.9735    0.4862    3.8882 H   0  0  0  0  0  0  0  0  0  0  0  0
   -2.7857    2.0776    3.1177 H   0  0  0  0  0  0  0  0  0  0  0  0
    1.1808    2.3756    1.1546 H   0  0  0  0  0  0  0  0  0  0  0  0
    0.2985    1.2859    2.2613 H   0  0  0  0  0  0  0  0  0  0  0  0
   -0.3636    2.8838    1.8699 H   0  0  0  0  0  0  0  0  0  0  0  0
    0.5898    2.5244   -1.2293 H   0  0  0  0  0  0  0  0  0  0  0  0
   -0.8334    3.4307   -0.6504 H   0  0  0  0  0  0  0  0  0  0  0  0
   -1.0498    2.0733   -1.7862 H   0  0  0  0  0  0  0  0  0  0  0  0
  1  2  1  0
  1  7  1  0
  1 15  1  0
  2  3  1  0
  2  4  1  0
  4  5  2  0
  4  6  1  0
  6  7  1  0
  6  9  1  0
  7  8  2  0
  9 10  2  0
  9 14  1  0
 10 11  1  0
 10 23  1  0
 11 12  2  0
 11 24  1  0
 12 13  1  0
 12 25  1  0
 13 14  2  0
 13 26  1  0
 14 27  1  0
 15 16  1  0
 15 21  1  0
 15 22  1  0
 17 16  1  0
 16 28  1  0
 16 29  1  0
 17 18  1  0
 17 19  1  0
 17 20  1  0
 18 30  1  0
 18 31  1  0
 18 32  1  0
 19 33  1  0
 19 34  1  0
 19 35  1  0
 20 36  1  0
 20 37  1  0
 20 38  1  0
 21 39  1  0
 21 40  1  0
 21 41  1  0
 22 42  1  0
 22 43  1  0
 22 44  1  0
M  END

