44
rmsd42.gzmat
N          0.00000        0.00000        0.00000
N          1.43360        0.00000        0.00000
H          1.81730        0.00000        0.94770
C          1.89030       -0.98160       -0.92820
O          3.02110       -1.37210       -1.02540
N          0.76240       -1.32850       -1.71670
C         -0.40080       -0.68410       -1.20430
O         -1.51640       -0.79480       -1.63010
C          0.79770       -2.16270       -2.86490
C          1.78400       -3.15280       -2.96870
C          1.81700       -3.96100       -4.10060
C          0.87830       -3.79320       -5.11730
C         -0.10120       -2.80850       -5.00320
C         -0.15000       -1.98680       -3.88130
C         -0.59450        1.36210        0.25490
C          0.04710        2.01750        1.50340
C         -0.19250        1.42950        2.91760
C          0.87380        2.05820        3.84460
C         -1.57750        1.82820        3.45560
C         -0.04940       -0.09410        2.98480
C         -0.32820        2.29100       -0.94960
C         -2.10310        1.14730        0.40930
H          2.52390       -3.29050       -2.17910
H          2.58370       -4.73030       -4.18850
H          0.91070       -4.42980       -5.99840
H         -0.83610       -2.67720       -5.79640
H         -0.92260       -1.22220       -3.80050
H         -0.29940        3.07330        1.52540
H          1.14080        2.09370        1.33230
H          1.88900        1.81030        3.52070
H          0.76380        1.69610        4.87210
H          0.78780        3.14850        3.87210
H         -2.38010        1.26840        2.96550
H         -1.77760        2.89410        3.31480
H         -1.65760        1.62130        4.52870
H         -0.72310       -0.59700        2.27920
H         -0.29650       -0.46810        3.98500
H          0.96860       -0.42300        2.76240
H         -0.76830        1.89470       -1.87300
H          0.74680        2.42240       -1.12630
H         -0.76380        3.28220       -0.78960
H         -2.58940        0.90940       -0.54820
H         -2.58420        2.04800        0.80450
H         -2.33030        0.31300        1.08610
