44
rmsd25.gzmat
N          0.00000        0.00000        0.00000
N          1.43360        0.00000        0.00000
H          1.81990        0.00000        0.94380
C          1.89430       -0.97710       -0.93080
O          3.02680       -1.35950       -1.03520
N          0.76480       -1.33730       -1.71120
C         -0.40190       -0.70580       -1.19210
O         -1.51870       -0.82290       -1.61300
C          0.80520       -2.16450       -2.86380
C         -0.32540       -2.90970       -3.22250
C         -0.27420       -3.71350       -4.35730
C          0.88850       -3.78280       -5.12330
C          2.00990       -3.04150       -4.75500
C          1.97790       -2.22590       -3.62820
C         -0.60010        1.38500        0.21390
C         -0.36720        2.22640       -1.06210
C         -0.61090        3.75440       -1.04480
C         -0.71240        4.20050       -2.52240
C         -1.91110        4.15190       -0.33780
C          0.57260        4.50180       -0.40880
C         -2.08730        1.10330        0.47790
C          0.05270        1.96540        1.47280
H         -1.23890       -2.86120       -2.62770
H         -1.15160       -4.29220       -4.64530
H          0.92100       -4.41560       -6.00700
H          2.91990       -3.09760       -5.35170
H          2.86130       -1.65260       -3.34440
H         -1.00160        1.79100       -1.86560
H          0.68210        2.06860       -1.39460
H          0.19780        3.95230       -3.07780
H         -0.85990        5.28200       -2.60050
H         -1.55590        3.72010       -3.02920
H         -1.86830        3.95830        0.73780
H         -2.76880        3.60800       -0.74840
H         -2.11320        5.22220       -0.46060
H          0.62350        4.35270        0.67230
H          0.49050        5.58110       -0.57820
H          1.52810        4.17580       -0.83380
H         -2.22110        0.23710        1.14090
H         -2.63790        0.88100       -0.44710
H         -2.57860        1.95590        0.95470
H          0.02310        1.25070        2.30490
H         -0.47730        2.86640        1.80570
H          1.09700        2.25170        1.29840
