rmsd133.gzmat
 OpenBabel08211713363D

 55 57  0  0  1  0  0  0  0  0999 V2000
    0.0000    0.0000    0.0000 C   0  0  0  0  0  0  0  0  0  0  0  0
    1.4017    0.0000    0.0000 N   0  0  0  0  0  0  0  0  0  0  0  0
    1.9332    0.0000    0.8677 H   0  0  0  0  0  0  0  0  0  0  0  0
    2.0759    0.0013   -1.2264 C   0  0  0  0  0  0  0  0  0  0  0  0
    1.3725   -0.0026   -2.3998 C   0  0  0  0  0  0  0  0  0  0  0  0
   -0.0761   -0.0416   -2.3474 C   0  0  0  0  0  0  0  0  0  0  0  0
   -0.7222   -0.0291   -1.1328 N   0  0  0  0  0  0  0  0  0  0  0  0
   -0.8805   -0.0909   -3.4185 N   0  0  0  0  0  0  0  0  0  0  0  0
    2.0514    0.0254   -3.7214 C   0  0  0  0  0  0  0  0  0  0  0  0
    3.5654    0.2973   -3.6584 C   0  0  1  0  0  0  0  0  0  0  0  0
    3.7306    1.3919   -3.5128 H   0  0  0  0  0  0  0  0  0  0  0  0
    4.1749   -0.4699   -2.4779 C   0  0  0  0  0  0  0  0  0  0  0  0
    3.5676    0.0253   -1.1574 C   0  0  0  0  0  0  0  0  0  0  0  0
    4.2720   -0.1386   -4.9749 C   0  0  0  0  0  0  0  0  0  0  0  0
    3.9246    0.6462   -6.1758 N   0  0  0  0  0  0  0  0  0  0  0  0
    2.5537    0.5847   -6.5188 C   0  0  0  0  0  0  0  0  0  0  0  0
    1.7516    1.7223   -6.6412 C   0  0  0  0  0  0  0  0  0  0  0  0
    0.3618    1.5801   -6.7914 C   0  0  0  0  0  0  0  0  0  0  0  0
   -0.2270    0.3107   -6.7789 C   0  0  0  0  0  0  0  0  0  0  0  0
    0.6140   -0.8226   -6.8216 C   0  0  0  0  0  0  0  0  0  0  0  0
    1.9902   -0.6979   -6.7086 C   0  0  0  0  0  0  0  0  0  0  0  0
   -0.0554   -1.9960   -6.8890 O   0  0  0  0  0  0  0  0  0  0  0  0
    0.7130   -3.1706   -7.1334 C   0  0  0  0  0  0  0  0  0  0  0  0
   -1.5783    0.2010   -6.6090 O   0  0  0  0  0  0  0  0  0  0  0  0
   -2.2572   -0.4731   -7.6706 C   0  0  0  0  0  0  0  0  0  0  0  0
   -0.2744    2.7668   -6.8123 O   0  0  0  0  0  0  0  0  0  0  0  0
   -1.6526    2.7912   -7.1723 C   0  0  0  0  0  0  0  0  0  0  0  0
    4.5494    1.9783   -6.2047 C   0  0  0  0  0  0  0  0  0  0  0  0
   -0.6571    0.0262    1.1895 N   0  0  0  0  0  0  0  0  0  0  0  0
   -1.8888   -0.1170   -3.3055 H   0  0  0  0  0  0  0  0  0  0  0  0
   -0.5409   -0.1177   -4.3740 H   0  0  0  0  0  0  0  0  0  0  0  0
    1.8707   -0.9411   -4.2493 H   0  0  0  0  0  0  0  0  0  0  0  0
    1.5805    0.8192   -4.3521 H   0  0  0  0  0  0  0  0  0  0  0  0
    5.2759   -0.3427   -2.4539 H   0  0  0  0  0  0  0  0  0  0  0  0
    4.0010   -1.5584   -2.5957 H   0  0  0  0  0  0  0  0  0  0  0  0
    3.9177    1.0661   -0.9521 H   0  0  0  0  0  0  0  0  0  0  0  0
    3.9580   -0.5890   -0.3168 H   0  0  0  0  0  0  0  0  0  0  0  0
    4.0554   -1.2108   -5.1839 H   0  0  0  0  0  0  0  0  0  0  0  0
    5.3764   -0.0748   -4.8388 H   0  0  0  0  0  0  0  0  0  0  0  0
    2.1629    2.7274   -6.6010 H   0  0  0  0  0  0  0  0  0  0  0  0
    2.6457   -1.5595   -6.7721 H   0  0  0  0  0  0  0  0  0  0  0  0
    1.3539   -3.4007   -6.2784 H   0  0  0  0  0  0  0  0  0  0  0  0
    1.2951   -3.0772   -8.0571 H   0  0  0  0  0  0  0  0  0  0  0  0
   -0.0697   -3.9343   -7.2481 H   0  0  0  0  0  0  0  0  0  0  0  0
   -3.2987   -0.1623   -7.5281 H   0  0  0  0  0  0  0  0  0  0  0  0
   -2.1516   -1.5562   -7.5415 H   0  0  0  0  0  0  0  0  0  0  0  0
   -1.8869   -0.1678   -8.6527 H   0  0  0  0  0  0  0  0  0  0  0  0
   -1.8324    3.8693   -7.2935 H   0  0  0  0  0  0  0  0  0  0  0  0
   -2.2643    2.3792   -6.3638 H   0  0  0  0  0  0  0  0  0  0  0  0
   -1.8304    2.2603   -8.1120 H   0  0  0  0  0  0  0  0  0  0  0  0
    5.6420    1.8671   -6.0888 H   0  0  0  0  0  0  0  0  0  0  0  0
    4.1818    2.6691   -5.4303 H   0  0  0  0  0  0  0  0  0  0  0  0
    4.3805    2.4373   -7.1984 H   0  0  0  0  0  0  0  0  0  0  0  0
   -1.6721    0.0316    1.1912 H   0  0  0  0  0  0  0  0  0  0  0  0
   -0.1906    0.0478    2.0747 H   0  0  0  0  0  0  0  0  0  0  0  0
  1  2  1  0  0  0  0
  1 29  1  0  0  0  0
  2  3  1  0  0  0  0
  4 13  1  0  0  0  0
  4  2  1  0  0  0  0
  5  6  1  0  0  0  0
  5  4  2  0  0  0  0
  6  7  2  0  0  0  0
  7  1  2  0  0  0  0
  8 30  1  0  0  0  0
  8  6  1  0  0  0  0
  9 10  1  0  0  0  0
  9  5  1  0  0  0  0
 10 11  1  1  0  0  0
 10 12  1  0  0  0  0
 12 34  1  0  0  0  0
 12 13  1  0  0  0  0
 13 36  1  0  0  0  0
 13 37  1  0  0  0  0
 14 39  1  0  0  0  0
 14 10  1  0  0  0  0
 15 14  1  0  0  0  0
 16 15  1  0  0  0  0
 17 40  1  0  0  0  0
 17 16  1  0  0  0  0
 18 19  1  0  0  0  0
 18 17  2  0  0  0  0
 19 24  1  0  0  0  0
 20 19  2  0  0  0  0
 20 21  1  0  0  0  0
 21 16  2  0  0  0  0
 22 20  1  0  0  0  0
 23 22  1  0  0  0  0
 23 42  1  0  0  0  0
 25 46  1  0  0  0  0
 25 45  1  0  0  0  0
 25 24  1  0  0  0  0
 26 18  1  0  0  0  0
 27 26  1  0  0  0  0
 27 49  1  0  0  0  0
 28 15  1  0  0  0  0
 28 51  1  0  0  0  0
 28 52  1  0  0  0  0
 29 54  1  0  0  0  0
 29 55  1  0  0  0  0
 31  8  1  0  0  0  0
 32  9  1  0  0  0  0
 33  9  1  0  0  0  0
 35 12  1  0  0  0  0
 38 14  1  0  0  0  0
 41 21  1  0  0  0  0
 43 23  1  0  0  0  0
 44 23  1  0  0  0  0
 47 25  1  0  0  0  0
 48 27  1  0  0  0  0
 50 27  1  0  0  0  0
 53 28  1  0  0  0  0
M  END
$$$$
