rmsd118.gzmat
 OpenBabel08211713363D

 55 57  0  0  1  0  0  0  0  0999 V2000
    0.0000    0.0000    0.0000 C   0  0  0  0  0  0  0  0  0  0  0  0
    1.4014    0.0000    0.0000 N   0  0  0  0  0  0  0  0  0  0  0  0
    1.9324    0.0000    0.8679 H   0  0  0  0  0  0  0  0  0  0  0  0
    2.0757    0.0098   -1.2260 C   0  0  0  0  0  0  0  0  0  0  0  0
    1.3737    0.0162   -2.4003 C   0  0  0  0  0  0  0  0  0  0  0  0
   -0.0756    0.0072   -2.3485 C   0  0  0  0  0  0  0  0  0  0  0  0
   -0.7219    0.0000   -1.1332 N   0  0  0  0  0  0  0  0  0  0  0  0
   -0.8829   -0.0059   -3.4188 N   0  0  0  0  0  0  0  0  0  0  0  0
    2.0563    0.0187   -3.7206 C   0  0  0  0  0  0  0  0  0  0  0  0
    3.5753    0.2664   -3.6601 C   0  0  1  0  0  0  0  0  0  0  0  0
    3.7561    1.3620   -3.5422 H   0  0  0  0  0  0  0  0  0  0  0  0
    4.1772   -0.4806   -2.4635 C   0  0  0  0  0  0  0  0  0  0  0  0
    3.5665    0.0348   -1.1532 C   0  0  0  0  0  0  0  0  0  0  0  0
    4.2758   -0.2166   -4.9634 C   0  0  0  0  0  0  0  0  0  0  0  0
    4.0260    0.6058   -6.1641 N   0  0  0  0  0  0  0  0  0  0  0  0
    2.6518    0.7045   -6.4945 C   0  0  0  0  0  0  0  0  0  0  0  0
    1.9688    1.9211   -6.5496 C   0  0  0  0  0  0  0  0  0  0  0  0
    0.5696    1.9276   -6.6852 C   0  0  0  0  0  0  0  0  0  0  0  0
   -0.1440    0.7249   -6.7335 C   0  0  0  0  0  0  0  0  0  0  0  0
    0.5779   -0.4842   -6.8324 C   0  0  0  0  0  0  0  0  0  0  0  0
    1.9603   -0.5052   -6.7317 C   0  0  0  0  0  0  0  0  0  0  0  0
   -0.2080   -1.5813   -6.9307 O   0  0  0  0  0  0  0  0  0  0  0  0
    0.4363   -2.8190   -7.2169 C   0  0  0  0  0  0  0  0  0  0  0  0
   -1.5004    0.7341   -6.5664 O   0  0  0  0  0  0  0  0  0  0  0  0
   -2.2344    0.2345   -7.6862 C   0  0  0  0  0  0  0  0  0  0  0  0
    0.0607    3.1728   -6.6321 O   0  0  0  0  0  0  0  0  0  0  0  0
   -1.3190    3.3589   -6.9325 C   0  0  0  0  0  0  0  0  0  0  0  0
    4.7950    1.8603   -6.1783 C   0  0  0  0  0  0  0  0  0  0  0  0
   -0.6550    0.0048    1.1909 N   0  0  0  0  0  0  0  0  0  0  0  0
   -1.8913    0.0021   -3.3026 H   0  0  0  0  0  0  0  0  0  0  0  0
   -0.5486    0.0320   -4.3758 H   0  0  0  0  0  0  0  0  0  0  0  0
    1.8587   -0.9493   -4.2389 H   0  0  0  0  0  0  0  0  0  0  0  0
    1.5993    0.8130   -4.3601 H   0  0  0  0  0  0  0  0  0  0  0  0
    5.2783   -0.3508   -2.4360 H   0  0  0  0  0  0  0  0  0  0  0  0
    4.0052   -1.5709   -2.5647 H   0  0  0  0  0  0  0  0  0  0  0  0
    3.9136    1.0797   -0.9630 H   0  0  0  0  0  0  0  0  0  0  0  0
    3.9563   -0.5665   -0.3029 H   0  0  0  0  0  0  0  0  0  0  0  0
    3.9721   -1.2637   -5.1906 H   0  0  0  0  0  0  0  0  0  0  0  0
    5.3781   -0.2491   -4.8020 H   0  0  0  0  0  0  0  0  0  0  0  0
    2.4821    2.8755   -6.4643 H   0  0  0  0  0  0  0  0  0  0  0  0
    2.5254   -1.4254   -6.8344 H   0  0  0  0  0  0  0  0  0  0  0  0
    1.0542   -3.1382   -6.3734 H   0  0  0  0  0  0  0  0  0  0  0  0
    1.0215   -2.7563   -8.1413 H   0  0  0  0  0  0  0  0  0  0  0  0
   -0.4198   -3.4961   -7.3493 H   0  0  0  0  0  0  0  0  0  0  0  0
   -3.2592    0.5555   -7.4659 H   0  0  0  0  0  0  0  0  0  0  0  0
   -2.1682   -0.8584   -7.7182 H   0  0  0  0  0  0  0  0  0  0  0  0
   -1.8806    0.6664   -8.6260 H   0  0  0  0  0  0  0  0  0  0  0  0
   -1.3962    4.4558   -6.9490 H   0  0  0  0  0  0  0  0  0  0  0  0
   -1.9454    2.9327   -6.1430 H   0  0  0  0  0  0  0  0  0  0  0  0
   -1.5741    2.9380   -7.9090 H   0  0  0  0  0  0  0  0  0  0  0  0
    5.8708    1.6206   -6.1028 H   0  0  0  0  0  0  0  0  0  0  0  0
    4.5338    2.5640   -5.3736 H   0  0  0  0  0  0  0  0  0  0  0  0
    4.6504    2.3651   -7.1528 H   0  0  0  0  0  0  0  0  0  0  0  0
   -1.6696    0.0074    1.1953 H   0  0  0  0  0  0  0  0  0  0  0  0
   -0.1854   -0.0102    2.0750 H   0  0  0  0  0  0  0  0  0  0  0  0
  1  2  1  0  0  0  0
  1 29  1  0  0  0  0
  2  3  1  0  0  0  0
  4 13  1  0  0  0  0
  4  2  1  0  0  0  0
  5  6  1  0  0  0  0
  5  4  2  0  0  0  0
  6  7  2  0  0  0  0
  7  1  2  0  0  0  0
  8 30  1  0  0  0  0
  8  6  1  0  0  0  0
  9 10  1  0  0  0  0
  9  5  1  0  0  0  0
 10 11  1  1  0  0  0
 10 12  1  0  0  0  0
 12 34  1  0  0  0  0
 12 13  1  0  0  0  0
 13 36  1  0  0  0  0
 13 37  1  0  0  0  0
 14 39  1  0  0  0  0
 14 10  1  0  0  0  0
 15 14  1  0  0  0  0
 16 15  1  0  0  0  0
 17 16  1  0  0  0  0
 17 40  1  0  0  0  0
 18 26  1  0  0  0  0
 18 17  2  0  0  0  0
 19 18  1  0  0  0  0
 19 24  1  0  0  0  0
 20 19  2  0  0  0  0
 20 21  1  0  0  0  0
 21 16  2  0  0  0  0
 22 20  1  0  0  0  0
 23 22  1  0  0  0  0
 23 42  1  0  0  0  0
 25 45  1  0  0  0  0
 25 24  1  0  0  0  0
 27 26  1  0  0  0  0
 27 49  1  0  0  0  0
 28 15  1  0  0  0  0
 28 51  1  0  0  0  0
 28 52  1  0  0  0  0
 29 54  1  0  0  0  0
 29 55  1  0  0  0  0
 31  8  1  0  0  0  0
 32  9  1  0  0  0  0
 33  9  1  0  0  0  0
 35 12  1  0  0  0  0
 38 14  1  0  0  0  0
 41 21  1  0  0  0  0
 43 23  1  0  0  0  0
 44 23  1  0  0  0  0
 46 25  1  0  0  0  0
 47 25  1  0  0  0  0
 48 27  1  0  0  0  0
 50 27  1  0  0  0  0
 53 28  1  0  0  0  0
M  END
$$$$
