rmsd248.gzmat
 OpenBabel08211713363D

 55 57  0  0  1  0  0  0  0  0999 V2000
    0.0000    0.0000    0.0000 C   0  0  0  0  0  0  0  0  0  0  0  0
    1.4018    0.0000    0.0000 N   0  0  0  0  0  0  0  0  0  0  0  0
    1.9326    0.0000    0.8675 H   0  0  0  0  0  0  0  0  0  0  0  0
    2.0760    0.0030   -1.2264 C   0  0  0  0  0  0  0  0  0  0  0  0
    1.3723    0.0036   -2.3994 C   0  0  0  0  0  0  0  0  0  0  0  0
   -0.0766   -0.0237   -2.3474 C   0  0  0  0  0  0  0  0  0  0  0  0
   -0.7225   -0.0180   -1.1326 N   0  0  0  0  0  0  0  0  0  0  0  0
   -0.8821   -0.0540   -3.4183 N   0  0  0  0  0  0  0  0  0  0  0  0
    2.0518    0.0217   -3.7206 C   0  0  0  0  0  0  0  0  0  0  0  0
    3.5644    0.3003   -3.6589 C   0  0  1  0  0  0  0  0  0  0  0  0
    3.7253    1.3956   -3.5155 H   0  0  0  0  0  0  0  0  0  0  0  0
    4.1785   -0.4623   -2.4780 C   0  0  0  0  0  0  0  0  0  0  0  0
    3.5674    0.0253   -1.1561 C   0  0  0  0  0  0  0  0  0  0  0  0
    4.2710   -0.1363   -4.9751 C   0  0  0  0  0  0  0  0  0  0  0  0
    3.9326    0.6555   -6.1738 N   0  0  0  0  0  0  0  0  0  0  0  0
    2.5611    0.6172   -6.5157 C   0  0  0  0  0  0  0  0  0  0  0  0
    1.7797    1.7683   -6.6459 C   0  0  0  0  0  0  0  0  0  0  0  0
    0.3871    1.6509   -6.7942 C   0  0  0  0  0  0  0  0  0  0  0  0
   -0.2252    0.3927   -6.7629 C   0  0  0  0  0  0  0  0  0  0  0  0
    0.5947   -0.7560   -6.7991 C   0  0  0  0  0  0  0  0  0  0  0  0
    1.9733   -0.6564   -6.6956 C   0  0  0  0  0  0  0  0  0  0  0  0
   -0.0970   -1.9174   -6.8439 O   0  0  0  0  0  0  0  0  0  0  0  0
    0.6462   -3.1102   -7.0747 C   0  0  0  0  0  0  0  0  0  0  0  0
   -1.5752    0.3070   -6.5725 O   0  0  0  0  0  0  0  0  0  0  0  0
   -2.2849   -0.3496   -7.6239 C   0  0  0  0  0  0  0  0  0  0  0  0
   -0.2253    2.8493   -6.8333 O   0  0  0  0  0  0  0  0  0  0  0  0
   -1.6069    2.8951   -7.1779 C   0  0  0  0  0  0  0  0  0  0  0  0
    4.5821    1.9755   -6.2033 C   0  0  0  0  0  0  0  0  0  0  0  0
   -0.6562    0.0137    1.1902 N   0  0  0  0  0  0  0  0  0  0  0  0
   -1.8904   -0.0709   -3.3051 H   0  0  0  0  0  0  0  0  0  0  0  0
   -0.5445   -0.0786   -4.3745 H   0  0  0  0  0  0  0  0  0  0  0  0
    1.8758   -0.9515   -4.2374 H   0  0  0  0  0  0  0  0  0  0  0  0
    1.5783    0.8065   -4.3600 H   0  0  0  0  0  0  0  0  0  0  0  0
    5.2783   -0.3245   -2.4528 H   0  0  0  0  0  0  0  0  0  0  0  0
    4.0153   -1.5521   -2.5970 H   0  0  0  0  0  0  0  0  0  0  0  0
    3.9177    1.0642   -0.9430 H   0  0  0  0  0  0  0  0  0  0  0  0
    3.9554   -0.5951   -0.3186 H   0  0  0  0  0  0  0  0  0  0  0  0
    4.0465   -1.2060   -5.1883 H   0  0  0  0  0  0  0  0  0  0  0  0
    5.3758   -0.0809   -4.8365 H   0  0  0  0  0  0  0  0  0  0  0  0
    2.2094    2.7660   -6.6135 H   0  0  0  0  0  0  0  0  0  0  0  0
    2.6122   -1.5308   -6.7542 H   0  0  0  0  0  0  0  0  0  0  0  0
    1.2745   -3.3463   -6.2119 H   0  0  0  0  0  0  0  0  0  0  0  0
    1.2368   -3.0381   -7.9947 H   0  0  0  0  0  0  0  0  0  0  0  0
   -0.1530   -3.8566   -7.1903 H   0  0  0  0  0  0  0  0  0  0  0  0
   -3.3249   -0.0660   -7.4255 H   0  0  0  0  0  0  0  0  0  0  0  0
   -2.1547   -1.4335   -7.5382 H   0  0  0  0  0  0  0  0  0  0  0  0
   -1.9638   -0.0030   -8.6089 H   0  0  0  0  0  0  0  0  0  0  0  0
   -1.7686    3.9755   -7.3035 H   0  0  0  0  0  0  0  0  0  0  0  0
   -2.2182    2.4982   -6.3614 H   0  0  0  0  0  0  0  0  0  0  0  0
   -1.8032    2.3622   -8.1128 H   0  0  0  0  0  0  0  0  0  0  0  0
    5.6739    1.8418   -6.1018 H   0  0  0  0  0  0  0  0  0  0  0  0
    4.2374    2.6679   -5.4203 H   0  0  0  0  0  0  0  0  0  0  0  0
    4.4113    2.4436   -7.1922 H   0  0  0  0  0  0  0  0  0  0  0  0
   -1.6710    0.0175    1.1933 H   0  0  0  0  0  0  0  0  0  0  0  0
   -0.1888    0.0328    2.0748 H   0  0  0  0  0  0  0  0  0  0  0  0
  1  2  1  0  0  0  0
  1 29  1  0  0  0  0
  2  3  1  0  0  0  0
  4 13  1  0  0  0  0
  4  2  1  0  0  0  0
  5  6  1  0  0  0  0
  5  4  2  0  0  0  0
  6  7  2  0  0  0  0
  7  1  2  0  0  0  0
  8 30  1  0  0  0  0
  8  6  1  0  0  0  0
  9 10  1  0  0  0  0
  9  5  1  0  0  0  0
 10 11  1  1  0  0  0
 10 12  1  0  0  0  0
 12 34  1  0  0  0  0
 12 13  1  0  0  0  0
 13 36  1  0  0  0  0
 13 37  1  0  0  0  0
 14 39  1  0  0  0  0
 14 10  1  0  0  0  0
 15 14  1  0  0  0  0
 16 15  1  0  0  0  0
 17 40  1  0  0  0  0
 17 16  1  0  0  0  0
 18 19  1  0  0  0  0
 18 17  2  0  0  0  0
 19 24  1  0  0  0  0
 20 19  2  0  0  0  0
 20 21  1  0  0  0  0
 21 16  2  0  0  0  0
 22 20  1  0  0  0  0
 23 22  1  0  0  0  0
 23 42  1  0  0  0  0
 25 46  1  0  0  0  0
 25 45  1  0  0  0  0
 25 24  1  0  0  0  0
 26 18  1  0  0  0  0
 27 26  1  0  0  0  0
 27 49  1  0  0  0  0
 28 15  1  0  0  0  0
 28 51  1  0  0  0  0
 28 52  1  0  0  0  0
 29 54  1  0  0  0  0
 29 55  1  0  0  0  0
 31  8  1  0  0  0  0
 32  9  1  0  0  0  0
 33  9  1  0  0  0  0
 35 12  1  0  0  0  0
 38 14  1  0  0  0  0
 41 21  1  0  0  0  0
 43 23  1  0  0  0  0
 44 23  1  0  0  0  0
 47 25  1  0  0  0  0
 48 27  1  0  0  0  0
 50 27  1  0  0  0  0
 53 28  1  0  0  0  0
M  END
$$$$
