55
rmsd118.gzmat
C          0.00000        0.00000        0.00000
N          1.40140        0.00000        0.00000
H          1.93240        0.00000        0.86790
C          2.07570        0.00980       -1.22600
C          1.37370        0.01620       -2.40030
C         -0.07560        0.00720       -2.34850
N         -0.72190        0.00000       -1.13320
N         -0.88290       -0.00590       -3.41880
C          2.05630        0.01870       -3.72060
C          3.57530        0.26640       -3.66010
H          3.75610        1.36200       -3.54220
C          4.17720       -0.48060       -2.46350
C          3.56650        0.03480       -1.15320
C          4.27580       -0.21660       -4.96340
N          4.02600        0.60580       -6.16410
C          2.65180        0.70450       -6.49450
C          1.96880        1.92110       -6.54960
C          0.56960        1.92760       -6.68520
C         -0.14400        0.72490       -6.73350
C          0.57790       -0.48420       -6.83240
C          1.96030       -0.50520       -6.73170
O         -0.20800       -1.58130       -6.93070
C          0.43630       -2.81900       -7.21690
O         -1.50040        0.73410       -6.56640
C         -2.23440        0.23450       -7.68620
O          0.06070        3.17280       -6.63210
C         -1.31900        3.35890       -6.93250
C          4.79500        1.86030       -6.17830
N         -0.65500        0.00480        1.19090
H         -1.89130        0.00210       -3.30260
H         -0.54860        0.03200       -4.37580
H          1.85870       -0.94930       -4.23890
H          1.59930        0.81300       -4.36010
H          5.27830       -0.35080       -2.43600
H          4.00520       -1.57090       -2.56470
H          3.91360        1.07970       -0.96300
H          3.95630       -0.56650       -0.30290
H          3.97210       -1.26370       -5.19060
H          5.37810       -0.24910       -4.80200
H          2.48210        2.87550       -6.46430
H          2.52540       -1.42540       -6.83440
H          1.05420       -3.13820       -6.37340
H          1.02150       -2.75630       -8.14130
H         -0.41980       -3.49610       -7.34930
H         -3.25920        0.55550       -7.46590
H         -2.16820       -0.85840       -7.71820
H         -1.88060        0.66640       -8.62600
H         -1.39620        4.45580       -6.94900
H         -1.94540        2.93270       -6.14300
H         -1.57410        2.93800       -7.90900
H          5.87080        1.62060       -6.10280
H          4.53380        2.56400       -5.37360
H          4.65040        2.36510       -7.15280
H         -1.66960        0.00740        1.19530
H         -0.18540       -0.01020        2.07500
