55
rmsd184.gzmat
C          0.00000        0.00000        0.00000
N          1.40160        0.00000        0.00000
H          1.93260        0.00000        0.86760
C          2.07610        0.00020       -1.22650
C          1.37310        0.00540       -2.39980
C         -0.07620       -0.00320       -2.34750
N         -0.72220       -0.00360       -1.13310
N         -0.88190       -0.00880       -3.41870
C          2.05220        0.00510       -3.72140
C          3.56920        0.26040       -3.66480
H          3.74710        1.35560       -3.54190
C          4.17580       -0.49100       -2.47290
C          3.56750        0.01400       -1.15670
C          4.26590       -0.21330       -4.97380
N          3.94870        0.56670       -6.18600
C          2.57490        0.55380       -6.52520
C          1.81220        1.71840       -6.64370
C          0.41740        1.62370       -6.78410
C         -0.21430        0.37490       -6.77100
C          0.58710       -0.78630       -6.81850
C          1.96700       -0.70860       -6.71150
O         -0.12130       -1.93700       -6.88230
C          0.60600       -3.13590       -7.13430
O         -1.56860        0.31320       -6.59980
C         -2.26830       -0.35770       -7.65000
O         -0.17890        2.83070       -6.79330
C         -1.55880        2.90260       -7.14040
C          4.62400        1.87310       -6.23620
N         -0.65850       -0.00100        1.18900
H         -1.89030       -0.01540       -3.30570
H         -0.54410       -0.02630       -4.37510
H          1.85950       -0.96820       -4.23260
H          1.59120        0.79310       -4.36570
H          5.27650       -0.35870       -2.44760
H          4.00700       -1.58110       -2.57950
H          3.92400        1.05310       -0.95460
H          3.95240       -0.59970       -0.31310
H          4.01280       -1.27980       -5.17130
H          5.37150       -0.18510       -4.83500
H          2.25870        2.70830       -6.60620
H          2.59230       -1.59260       -6.77420
H          1.25240       -3.38460       -6.28880
H          1.17600       -3.06210       -8.06730
H         -0.20140       -3.87530       -7.23520
H         -3.29480        0.01000       -7.53480
H         -2.22050       -1.43950       -7.48220
H         -1.86970       -0.10570       -8.63620
H         -1.70120        3.98610       -7.26210
H         -2.17600        2.51340       -6.32460
H         -1.76580        2.37620       -8.07650
H          5.71100        1.72310       -6.11190
H          4.27870        2.59270       -5.47810
H          4.47800        2.31710       -7.24030
H         -1.67340       -0.00070        1.18920
H         -0.19320        0.00770        2.07510
