rmsd142.gzmat
 OpenBabel08211713363D

 55 57  0  0  1  0  0  0  0  0999 V2000
    0.0000    0.0000    0.0000 C   0  0  0  0  0  0  0  0  0  0  0  0
    1.4014    0.0000    0.0000 N   0  0  0  0  0  0  0  0  0  0  0  0
    1.9326    0.0000    0.8675 H   0  0  0  0  0  0  0  0  0  0  0  0
    2.0761    0.0036   -1.2262 C   0  0  0  0  0  0  0  0  0  0  0  0
    1.3732    0.0166   -2.3998 C   0  0  0  0  0  0  0  0  0  0  0  0
   -0.0760   -0.0013   -2.3477 C   0  0  0  0  0  0  0  0  0  0  0  0
   -0.7222   -0.0055   -1.1332 N   0  0  0  0  0  0  0  0  0  0  0  0
   -0.8812   -0.0155   -3.4189 N   0  0  0  0  0  0  0  0  0  0  0  0
    2.0535    0.0391   -3.7210 C   0  0  0  0  0  0  0  0  0  0  0  0
    3.5683    0.3046   -3.6543 C   0  0  1  0  0  0  0  0  0  0  0  0
    3.7376    1.3975   -3.5015 H   0  0  0  0  0  0  0  0  0  0  0  0
    4.1740   -0.4730   -2.4786 C   0  0  0  0  0  0  0  0  0  0  0  0
    3.5675    0.0097   -1.1535 C   0  0  0  0  0  0  0  0  0  0  0  0
    4.2760   -0.1274   -4.9713 C   0  0  0  0  0  0  0  0  0  0  0  0
    3.9635    0.6879   -6.1617 N   0  0  0  0  0  0  0  0  0  0  0  0
    2.5913    0.6811   -6.5067 C   0  0  0  0  0  0  0  0  0  0  0  0
    1.8246    1.8455   -6.5956 C   0  0  0  0  0  0  0  0  0  0  0  0
    0.4297    1.7490   -6.7388 C   0  0  0  0  0  0  0  0  0  0  0  0
   -0.1968    0.4975   -6.7521 C   0  0  0  0  0  0  0  0  0  0  0  0
    0.6090   -0.6590   -6.8314 C   0  0  0  0  0  0  0  0  0  0  0  0
    1.9889   -0.5783   -6.7284 C   0  0  0  0  0  0  0  0  0  0  0  0
   -0.0952   -1.8107   -6.9160 O   0  0  0  0  0  0  0  0  0  0  0  0
    0.6351   -3.0018   -7.1941 C   0  0  0  0  0  0  0  0  0  0  0  0
   -1.5484    0.4204   -6.5661 O   0  0  0  0  0  0  0  0  0  0  0  0
   -2.2639   -0.1854   -7.6441 C   0  0  0  0  0  0  0  0  0  0  0  0
   -0.1688    2.9550   -6.7250 O   0  0  0  0  0  0  0  0  0  0  0  0
   -1.5541    3.0289   -7.0478 C   0  0  0  0  0  0  0  0  0  0  0  0
    4.6358    1.9965   -6.1664 C   0  0  0  0  0  0  0  0  0  0  0  0
   -0.6577    0.0002    1.1895 N   0  0  0  0  0  0  0  0  0  0  0  0
   -1.8896   -0.0286   -3.3058 H   0  0  0  0  0  0  0  0  0  0  0  0
   -0.5433   -0.0239   -4.3754 H   0  0  0  0  0  0  0  0  0  0  0  0
    1.8681   -0.9265   -4.2486 H   0  0  0  0  0  0  0  0  0  0  0  0
    1.5876    0.8346   -4.3528 H   0  0  0  0  0  0  0  0  0  0  0  0
    5.2752   -0.3464   -2.4515 H   0  0  0  0  0  0  0  0  0  0  0  0
    3.9990   -1.5599   -2.6070 H   0  0  0  0  0  0  0  0  0  0  0  0
    3.9294    1.0426   -0.9305 H   0  0  0  0  0  0  0  0  0  0  0  0
    3.9478   -0.6229   -0.3215 H   0  0  0  0  0  0  0  0  0  0  0  0
    4.0312   -1.1891   -5.2019 H   0  0  0  0  0  0  0  0  0  0  0  0
    5.3803   -0.0965   -4.8236 H   0  0  0  0  0  0  0  0  0  0  0  0
    2.2670    2.8361   -6.5316 H   0  0  0  0  0  0  0  0  0  0  0  0
    2.6188   -1.4564   -6.8192 H   0  0  0  0  0  0  0  0  0  0  0  0
    1.2787   -3.2689   -6.3520 H   0  0  0  0  0  0  0  0  0  0  0  0
    1.2078   -2.9053   -8.1232 H   0  0  0  0  0  0  0  0  0  0  0  0
   -0.1709   -3.7396   -7.3152 H   0  0  0  0  0  0  0  0  0  0  0  0
   -3.3022    0.0935   -7.4296 H   0  0  0  0  0  0  0  0  0  0  0  0
   -2.1393   -1.2731   -7.6082 H   0  0  0  0  0  0  0  0  0  0  0  0
   -1.9432    0.2051   -8.6132 H   0  0  0  0  0  0  0  0  0  0  0  0
   -1.7059    4.1148   -7.1304 H   0  0  0  0  0  0  0  0  0  0  0  0
   -2.1580    2.6081   -6.2380 H   0  0  0  0  0  0  0  0  0  0  0  0
   -1.7694    2.5333   -7.9990 H   0  0  0  0  0  0  0  0  0  0  0  0
    5.7241    1.8421   -6.0584 H   0  0  0  0  0  0  0  0  0  0  0  0
    4.2967    2.6843   -5.3769 H   0  0  0  0  0  0  0  0  0  0  0  0
    4.4811    2.4813   -7.1499 H   0  0  0  0  0  0  0  0  0  0  0  0
   -1.6725    0.0019    1.1904 H   0  0  0  0  0  0  0  0  0  0  0  0
   -0.1920    0.0131    2.0752 H   0  0  0  0  0  0  0  0  0  0  0  0
  1  2  1  0  0  0  0
  1 29  1  0  0  0  0
  2  3  1  0  0  0  0
  4 13  1  0  0  0  0
  4  2  1  0  0  0  0
  5  6  1  0  0  0  0
  5  4  2  0  0  0  0
  6  7  2  0  0  0  0
  7  1  2  0  0  0  0
  8 30  1  0  0  0  0
  8  6  1  0  0  0  0
  9 10  1  0  0  0  0
  9  5  1  0  0  0  0
 10 11  1  1  0  0  0
 10 12  1  0  0  0  0
 12 34  1  0  0  0  0
 12 13  1  0  0  0  0
 13 36  1  0  0  0  0
 13 37  1  0  0  0  0
 14 39  1  0  0  0  0
 14 10  1  0  0  0  0
 15 14  1  0  0  0  0
 16 15  1  0  0  0  0
 17 40  1  0  0  0  0
 17 16  1  0  0  0  0
 18 26  1  0  0  0  0
 18 17  2  0  0  0  0
 19 18  1  0  0  0  0
 19 24  1  0  0  0  0
 20 19  2  0  0  0  0
 20 21  1  0  0  0  0
 21 16  2  0  0  0  0
 22 20  1  0  0  0  0
 23 22  1  0  0  0  0
 23 42  1  0  0  0  0
 25 46  1  0  0  0  0
 25 45  1  0  0  0  0
 25 24  1  0  0  0  0
 27 26  1  0  0  0  0
 27 49  1  0  0  0  0
 28 15  1  0  0  0  0
 28 51  1  0  0  0  0
 28 52  1  0  0  0  0
 29 54  1  0  0  0  0
 29 55  1  0  0  0  0
 31  8  1  0  0  0  0
 32  9  1  0  0  0  0
 33  9  1  0  0  0  0
 35 12  1  0  0  0  0
 38 14  1  0  0  0  0
 41 21  1  0  0  0  0
 43 23  1  0  0  0  0
 44 23  1  0  0  0  0
 47 25  1  0  0  0  0
 48 27  1  0  0  0  0
 50 27  1  0  0  0  0
 53 28  1  0  0  0  0
M  END
$$$$
