55
rmsd142.gzmat
C          0.00000        0.00000        0.00000
N          1.40140        0.00000        0.00000
H          1.93260        0.00000        0.86750
C          2.07610        0.00360       -1.22620
C          1.37320        0.01660       -2.39980
C         -0.07600       -0.00130       -2.34770
N         -0.72220       -0.00550       -1.13320
N         -0.88120       -0.01550       -3.41890
C          2.05350        0.03910       -3.72100
C          3.56830        0.30460       -3.65430
H          3.73760        1.39750       -3.50150
C          4.17400       -0.47300       -2.47860
C          3.56750        0.00970       -1.15350
C          4.27600       -0.12740       -4.97130
N          3.96350        0.68790       -6.16170
C          2.59130        0.68110       -6.50670
C          1.82460        1.84550       -6.59560
C          0.42970        1.74900       -6.73880
C         -0.19680        0.49750       -6.75210
C          0.60900       -0.65900       -6.83140
C          1.98890       -0.57830       -6.72840
O         -0.09520       -1.81070       -6.91600
C          0.63510       -3.00180       -7.19410
O         -1.54840        0.42040       -6.56610
C         -2.26390       -0.18540       -7.64410
O         -0.16880        2.95500       -6.72500
C         -1.55410        3.02890       -7.04780
C          4.63580        1.99650       -6.16640
N         -0.65770        0.00020        1.18950
H         -1.88960       -0.02860       -3.30580
H         -0.54330       -0.02390       -4.37540
H          1.86810       -0.92650       -4.24860
H          1.58760        0.83460       -4.35280
H          5.27520       -0.34640       -2.45150
H          3.99900       -1.55990       -2.60700
H          3.92940        1.04260       -0.93050
H          3.94780       -0.62290       -0.32150
H          4.03120       -1.18910       -5.20190
H          5.38030       -0.09650       -4.82360
H          2.26700        2.83610       -6.53160
H          2.61880       -1.45640       -6.81920
H          1.27870       -3.26890       -6.35200
H          1.20780       -2.90530       -8.12320
H         -0.17090       -3.73960       -7.31520
H         -3.30220        0.09350       -7.42960
H         -2.13930       -1.27310       -7.60820
H         -1.94320        0.20510       -8.61320
H         -1.70590        4.11480       -7.13040
H         -2.15800        2.60810       -6.23800
H         -1.76940        2.53330       -7.99900
H          5.72410        1.84210       -6.05840
H          4.29670        2.68430       -5.37690
H          4.48110        2.48130       -7.14990
H         -1.67250        0.00190        1.19040
H         -0.19200        0.01310        2.07520
