55
rmsd132.gzmat
C          0.00000        0.00000        0.00000
N          1.40150        0.00000        0.00000
H          1.93230        0.00000        0.86760
C          2.07550        0.00640       -1.22650
C          1.37230        0.01400       -2.40010
C         -0.07680       -0.00910       -2.34800
N         -0.72210       -0.00870       -1.13300
N         -0.88320       -0.04270       -3.41840
C          2.05230        0.03380       -3.72110
C          3.56930        0.28980       -3.65860
H          3.74530        1.38360       -3.52120
C          4.17420       -0.47600       -2.47490
C          3.56690        0.02060       -1.15480
C          4.27130       -0.16580       -4.97090
N          3.95660        0.63000       -6.17350
C          2.58330        0.61910       -6.51490
C          1.81910        1.78390       -6.62200
C          0.42510        1.68850       -6.76880
C         -0.20420        0.43820       -6.76740
C          0.59900       -0.72090       -6.83100
C          1.97840       -0.64230       -6.71810
O         -0.10800       -1.87080       -6.91900
C          0.62280       -3.06390       -7.18820
O         -1.55650        0.37280       -6.58610
C         -2.26520       -0.29560       -7.63160
O         -0.17560        2.89370       -6.77380
C         -1.54550        2.96300       -7.16030
C          4.62960        1.93840       -6.19810
N         -0.65690        0.00270        1.18990
H         -1.89190       -0.04290       -3.30440
H         -0.54680       -0.03170       -4.37530
H          1.86030       -0.93110       -4.24800
H          1.59020        0.83100       -4.35350
H          5.27570       -0.34980       -2.44880
H          3.99950       -1.56440       -2.59200
H          3.92380        1.05820       -0.94530
H          3.95060       -0.59960       -0.31510
H          4.02220       -1.23040       -5.18300
H          5.37640       -0.13630       -4.82830
H          2.26430        2.77390       -6.57200
H          2.60550       -1.52450       -6.78910
H          1.24860       -3.33520       -6.33420
H          1.21390       -2.96750       -8.10570
H         -0.18370       -3.79800       -7.32790
H         -3.28500        0.09100       -7.52350
H         -2.23630       -1.37630       -7.45210
H         -1.85990       -0.06200       -8.61910
H         -1.68720        4.04650       -7.28320
H         -2.18400        2.56950       -6.36340
H         -1.72380        2.43800       -8.10340
H          5.71900        1.78430       -6.09810
H          4.29880        2.63320       -5.41110
H          4.46500        2.41410       -7.18450
H         -1.67170        0.00600        1.19190
H         -0.19010        0.02310        2.07500
