55
rmsd185.gzmat
C          0.00000        0.00000        0.00000
N          1.40140        0.00000        0.00000
H          1.93270        0.00000        0.86740
C          2.07580        0.00260       -1.22670
C          1.37260        0.01020       -2.40010
C         -0.07660       -0.00600       -2.34840
N         -0.72220       -0.00930       -1.13310
N         -0.88200       -0.01750       -3.41960
C          2.05180        0.02130       -3.72160
C          3.56890        0.27470       -3.66270
H          3.74750        1.36870       -3.53050
C          4.17370       -0.48670       -2.47600
C          3.56730        0.01410       -1.15710
C          4.26620       -0.18800       -4.97520
N          3.94380        0.59700       -6.18260
C          2.57000        0.58900       -6.51950
C          1.81330        1.75680       -6.64470
C          0.41890        1.66940       -6.79340
C         -0.22060        0.42460       -6.77170
C          0.57430       -0.74140       -6.80830
C          1.95460       -0.67120       -6.70200
O         -0.14100       -1.88860       -6.86050
C          0.57610       -3.09190       -7.11930
O         -1.57420        0.36940       -6.59470
C         -2.28670       -0.27530       -7.65200
O         -0.16900        2.88050       -6.82440
C         -1.54210        2.95700       -7.19670
C          4.62500        1.90040       -6.23020
N         -0.65890        0.00600        1.18860
H         -1.89040       -0.02870       -3.30660
H         -0.54410       -0.03210       -4.37590
H          1.85880       -0.94760       -4.24090
H          1.59070        0.81530       -4.35880
H          5.27490       -0.35970       -2.45020
H          3.99990       -1.57560       -2.58890
H          3.92610        1.05170       -0.95100
H          3.95140       -0.60430       -0.31630
H          4.02020       -1.25510       -5.17780
H          5.37190       -0.15370       -4.83680
H          2.26350        2.74540       -6.60890
H          2.57440       -1.55920       -6.76140
H          1.21030       -3.35480       -6.26860
H          1.15730       -3.01680       -8.04520
H         -0.23830       -3.82130       -7.23600
H         -3.32000        0.04690       -7.47780
H         -2.19590       -1.36200       -7.54840
H         -1.93510        0.04580       -8.63560
H         -1.67830        4.04090       -7.32320
H         -2.17730        2.57100       -6.39330
H         -1.73080        2.42970       -8.13630
H          5.71490        1.73750       -6.15740
H          4.31820        2.60200       -5.43960
H          4.44090        2.37330       -7.21420
H         -1.67380        0.00760        1.18810
H         -0.19450        0.01470        2.07500
