41

C         -0.14790       -0.02470        0.06100
H          0.95710       -0.06100        0.12260
C         -0.58860       -0.01190       -1.38820
C         -1.32130       -1.10570       -1.65890
C         -1.39140       -1.96290       -0.44200
O         -1.91040       -3.05750       -0.31830
N         -0.72030       -1.27070        0.55400
C         -0.39190       -1.89240        1.82280
C         -1.34560       -1.57100        2.97510
O         -1.20150       -0.27500        3.50570
C         -1.95700       -1.40580       -2.97750
C         -1.99590       -0.13550       -3.84180
C         -0.66260        0.62580       -3.79410
C         -0.31390        1.08380       -2.36720
C         -0.62510        1.20810        0.80940
C         -1.99950        1.48270        0.89980
C         -2.45470        2.60350        1.59070
C         -1.55500        3.49090        2.20940
C         -0.18670        3.21480        2.10370
C          0.27280        2.08760        1.41500
C         -2.06150        4.68450        2.97700
H          0.63180       -1.60170        2.11360
H         -0.41200       -2.98130        1.65350
H         -1.12750       -2.27150        3.79860
H         -2.38130       -1.77690        2.64000
H         -1.51580        0.36320        2.85110
H         -1.38740       -2.20560       -3.48560
H         -2.96610       -1.82050       -2.82040
H         -2.25160       -0.39000       -4.88240
H         -2.79960        0.52680       -3.47310
H         -0.69160        1.49480       -4.47020
H          0.14050       -0.03530       -4.16520
H         -0.90920        1.97290       -2.08640
H          0.74020        1.40570       -2.30320
H         -2.71180        0.80220        0.42630
H         -3.52900        2.79710        1.65510
H          0.53420        3.88580        2.57790
H          1.34560        1.88470        1.36170
H         -2.80400        5.25140        2.39290
H         -1.24380        5.36850        3.24660
H         -2.55680        4.37060        3.91140
