41

C         -0.21290       -0.05400        0.17130
H          0.88510       -0.16300        0.26630
C         -0.58930       -0.00030       -1.29130
C         -1.35740       -1.05890       -1.60310
C         -1.53900       -1.90370       -0.39380
O         -2.16870       -2.95590       -0.32510
N         -0.87850       -1.26960        0.63040
C         -0.67540       -1.77730        1.98120
C         -1.92860       -2.33700        2.66630
O         -2.25850       -3.63680        2.28460
C         -1.95180       -1.32070       -2.94900
C         -1.89270       -0.04360       -3.80250
C         -0.52760        0.65230       -3.69260
C         -0.21770        1.08480       -2.24880
C         -0.63760        1.18730        0.93550
C         -1.99910        1.45940        1.13520
C         -2.39870        2.61250        1.80400
C         -1.45540        3.53450        2.29340
C         -0.09920        3.25620        2.08790
C          0.30560        2.09570        1.41930
C         -1.90410        4.77300        3.02600
H         -0.29640       -0.92980        2.57290
H          0.10060       -2.56550        1.98700
H         -2.75780       -1.61160        2.51220
H         -1.72390       -2.35560        3.75090
H         -2.35450       -3.61980        1.30920
H         -1.40130       -2.14390       -3.44040
H         -2.98560       -1.68580       -2.83610
H         -2.11570       -0.27890       -4.85500
H         -2.67870        0.65370       -3.46190
H         -0.48670        1.52580       -4.36210
H          0.25820       -0.04400       -4.03510
H         -0.77950        2.00050       -1.98500
H          0.84730        1.35290       -2.13700
H         -2.74560        0.75320        0.76400
H         -3.46470        2.80630        1.95310
H          0.65560        3.95370        2.46070
H          1.37140        1.89610        1.27650
H         -2.62810        5.35040        2.42830
H         -1.05670        5.43240        3.26310
H         -2.40460        4.51400        3.97410
