
     RDKit          3D

 41 43  0  0  0  0  0  0  0  0999 V2000
   -0.1479   -0.0247    0.0610 C   0  0  2  0  0  0  0  0  0  0  0  0
    0.9571   -0.0610    0.1226 H   0  0  0  0  0  0  0  0  0  0  0  0
   -0.5886   -0.0119   -1.3882 C   0  0  0  0  0  0  0  0  0  0  0  0
   -1.3213   -1.1057   -1.6589 C   0  0  0  0  0  0  0  0  0  0  0  0
   -1.3914   -1.9629   -0.4420 C   0  0  0  0  0  0  0  0  0  0  0  0
   -1.9104   -3.0575   -0.3183 O   0  0  0  0  0  0  0  0  0  0  0  0
   -0.7203   -1.2707    0.5540 N   0  0  0  0  0  0  0  0  0  0  0  0
   -0.3919   -1.8924    1.8228 C   0  0  0  0  0  0  0  0  0  0  0  0
   -1.3456   -1.5710    2.9751 C   0  0  0  0  0  0  0  0  0  0  0  0
   -1.2015   -0.2750    3.5057 O   0  0  0  0  0  0  0  0  0  0  0  0
   -1.9570   -1.4058   -2.9775 C   0  0  0  0  0  0  0  0  0  0  0  0
   -1.9959   -0.1355   -3.8418 C   0  0  0  0  0  0  0  0  0  0  0  0
   -0.6626    0.6258   -3.7941 C   0  0  0  0  0  0  0  0  0  0  0  0
   -0.3139    1.0838   -2.3672 C   0  0  0  0  0  0  0  0  0  0  0  0
   -0.6251    1.2081    0.8094 C   0  0  0  0  0  0  0  0  0  0  0  0
   -1.9995    1.4827    0.8998 C   0  0  0  0  0  0  0  0  0  0  0  0
   -2.4547    2.6035    1.5907 C   0  0  0  0  0  0  0  0  0  0  0  0
   -1.5550    3.4909    2.2094 C   0  0  0  0  0  0  0  0  0  0  0  0
   -0.1867    3.2148    2.1037 C   0  0  0  0  0  0  0  0  0  0  0  0
    0.2728    2.0876    1.4150 C   0  0  0  0  0  0  0  0  0  0  0  0
   -2.0615    4.6845    2.9770 C   0  0  0  0  0  0  0  0  0  0  0  0
    0.6318   -1.6017    2.1136 H   0  0  0  0  0  0  0  0  0  0  0  0
   -0.4120   -2.9813    1.6535 H   0  0  0  0  0  0  0  0  0  0  0  0
   -1.1275   -2.2715    3.7986 H   0  0  0  0  0  0  0  0  0  0  0  0
   -2.3813   -1.7769    2.6400 H   0  0  0  0  0  0  0  0  0  0  0  0
   -1.5158    0.3632    2.8511 H   0  0  0  0  0  0  0  0  0  0  0  0
   -1.3874   -2.2056   -3.4856 H   0  0  0  0  0  0  0  0  0  0  0  0
   -2.9661   -1.8205   -2.8204 H   0  0  0  0  0  0  0  0  0  0  0  0
   -2.2516   -0.3900   -4.8824 H   0  0  0  0  0  0  0  0  0  0  0  0
   -2.7996    0.5268   -3.4731 H   0  0  0  0  0  0  0  0  0  0  0  0
   -0.6916    1.4948   -4.4702 H   0  0  0  0  0  0  0  0  0  0  0  0
    0.1405   -0.0353   -4.1652 H   0  0  0  0  0  0  0  0  0  0  0  0
   -0.9092    1.9729   -2.0864 H   0  0  0  0  0  0  0  0  0  0  0  0
    0.7402    1.4057   -2.3032 H   0  0  0  0  0  0  0  0  0  0  0  0
   -2.7118    0.8022    0.4263 H   0  0  0  0  0  0  0  0  0  0  0  0
   -3.5290    2.7971    1.6551 H   0  0  0  0  0  0  0  0  0  0  0  0
    0.5342    3.8858    2.5779 H   0  0  0  0  0  0  0  0  0  0  0  0
    1.3456    1.8847    1.3617 H   0  0  0  0  0  0  0  0  0  0  0  0
   -2.8040    5.2514    2.3929 H   0  0  0  0  0  0  0  0  0  0  0  0
   -1.2438    5.3685    3.2466 H   0  0  0  0  0  0  0  0  0  0  0  0
   -2.5568    4.3706    3.9114 H   0  0  0  0  0  0  0  0  0  0  0  0
  1  2  1  6
  1  3  1  0
  1  7  1  0
  1 15  1  0
  3  4  2  0
  3 14  1  0
  4  5  1  0
  4 11  1  0
  5  6  2  0
  5  7  1  0
  7  8  1  0
  8  9  1  0
  8 22  1  0
  8 23  1  0
  9 10  1  0
  9 24  1  0
  9 25  1  0
 10 26  1  0
 11 12  1  0
 11 27  1  0
 11 28  1  0
 12 13  1  0
 12 29  1  0
 12 30  1  0
 13 14  1  0
 13 31  1  0
 13 32  1  0
 14 33  1  0
 14 34  1  0
 15 16  2  0
 15 20  1  0
 16 17  1  0
 16 35  1  0
 17 18  2  0
 17 36  1  0
 18 19  1  0
 18 21  1  0
 19 20  2  0
 19 37  1  0
 20 38  1  0
 21 39  1  0
 21 40  1  0
 21 41  1  0
M  END

