
     RDKit          3D

 41 43  0  0  0  0  0  0  0  0999 V2000
   -0.2129   -0.0540    0.1713 C   0  0  2  0  0  0  0  0  0  0  0  0
    0.8851   -0.1630    0.2663 H   0  0  0  0  0  0  0  0  0  0  0  0
   -0.5893   -0.0003   -1.2913 C   0  0  0  0  0  0  0  0  0  0  0  0
   -1.3574   -1.0589   -1.6031 C   0  0  0  0  0  0  0  0  0  0  0  0
   -1.5390   -1.9037   -0.3938 C   0  0  0  0  0  0  0  0  0  0  0  0
   -2.1687   -2.9559   -0.3251 O   0  0  0  0  0  0  0  0  0  0  0  0
   -0.8785   -1.2696    0.6304 N   0  0  0  0  0  0  0  0  0  0  0  0
   -0.6754   -1.7773    1.9812 C   0  0  0  0  0  0  0  0  0  0  0  0
   -1.9286   -2.3370    2.6663 C   0  0  0  0  0  0  0  0  0  0  0  0
   -2.2585   -3.6368    2.2846 O   0  0  0  0  0  0  0  0  0  0  0  0
   -1.9518   -1.3207   -2.9490 C   0  0  0  0  0  0  0  0  0  0  0  0
   -1.8927   -0.0436   -3.8025 C   0  0  0  0  0  0  0  0  0  0  0  0
   -0.5276    0.6523   -3.6926 C   0  0  0  0  0  0  0  0  0  0  0  0
   -0.2177    1.0848   -2.2488 C   0  0  0  0  0  0  0  0  0  0  0  0
   -0.6376    1.1873    0.9355 C   0  0  0  0  0  0  0  0  0  0  0  0
   -1.9991    1.4594    1.1352 C   0  0  0  0  0  0  0  0  0  0  0  0
   -2.3987    2.6125    1.8040 C   0  0  0  0  0  0  0  0  0  0  0  0
   -1.4554    3.5345    2.2934 C   0  0  0  0  0  0  0  0  0  0  0  0
   -0.0992    3.2562    2.0879 C   0  0  0  0  0  0  0  0  0  0  0  0
    0.3056    2.0957    1.4193 C   0  0  0  0  0  0  0  0  0  0  0  0
   -1.9041    4.7730    3.0260 C   0  0  0  0  0  0  0  0  0  0  0  0
   -0.2964   -0.9298    2.5729 H   0  0  0  0  0  0  0  0  0  0  0  0
    0.1006   -2.5655    1.9870 H   0  0  0  0  0  0  0  0  0  0  0  0
   -2.7578   -1.6116    2.5122 H   0  0  0  0  0  0  0  0  0  0  0  0
   -1.7239   -2.3556    3.7509 H   0  0  0  0  0  0  0  0  0  0  0  0
   -2.3545   -3.6198    1.3092 H   0  0  0  0  0  0  0  0  0  0  0  0
   -1.4013   -2.1439   -3.4404 H   0  0  0  0  0  0  0  0  0  0  0  0
   -2.9856   -1.6858   -2.8361 H   0  0  0  0  0  0  0  0  0  0  0  0
   -2.1157   -0.2789   -4.8550 H   0  0  0  0  0  0  0  0  0  0  0  0
   -2.6787    0.6537   -3.4619 H   0  0  0  0  0  0  0  0  0  0  0  0
   -0.4867    1.5258   -4.3621 H   0  0  0  0  0  0  0  0  0  0  0  0
    0.2582   -0.0440   -4.0351 H   0  0  0  0  0  0  0  0  0  0  0  0
   -0.7795    2.0005   -1.9850 H   0  0  0  0  0  0  0  0  0  0  0  0
    0.8473    1.3529   -2.1370 H   0  0  0  0  0  0  0  0  0  0  0  0
   -2.7456    0.7532    0.7640 H   0  0  0  0  0  0  0  0  0  0  0  0
   -3.4647    2.8063    1.9531 H   0  0  0  0  0  0  0  0  0  0  0  0
    0.6556    3.9537    2.4607 H   0  0  0  0  0  0  0  0  0  0  0  0
    1.3714    1.8961    1.2765 H   0  0  0  0  0  0  0  0  0  0  0  0
   -2.6281    5.3504    2.4283 H   0  0  0  0  0  0  0  0  0  0  0  0
   -1.0567    5.4324    3.2631 H   0  0  0  0  0  0  0  0  0  0  0  0
   -2.4046    4.5140    3.9741 H   0  0  0  0  0  0  0  0  0  0  0  0
  1  2  1  6
  1  3  1  0
  1  7  1  0
  1 15  1  0
  3  4  2  0
  3 14  1  0
  4  5  1  0
  4 11  1  0
  5  6  2  0
  5  7  1  0
  7  8  1  0
  8  9  1  0
  8 22  1  0
  8 23  1  0
  9 10  1  0
  9 24  1  0
  9 25  1  0
 10 26  1  0
 11 12  1  0
 11 27  1  0
 11 28  1  0
 12 13  1  0
 12 29  1  0
 12 30  1  0
 13 14  1  0
 13 31  1  0
 13 32  1  0
 14 33  1  0
 14 34  1  0
 15 16  2  0
 15 20  1  0
 16 17  1  0
 16 35  1  0
 17 18  2  0
 17 36  1  0
 18 19  1  0
 18 21  1  0
 19 20  2  0
 19 37  1  0
 20 38  1  0
 21 39  1  0
 21 40  1  0
 21 41  1  0
M  END

