41
rmsd74.gzmat
C          0.00000        0.00000        0.00000
H          1.12190        0.00000        0.00000
C         -0.53160        0.00000       -1.43030
C         -1.16480       -1.16070       -1.69420
C         -1.11310       -2.04830       -0.49940
O         -1.50840       -3.18230       -0.35340
N         -0.49120       -1.30700        0.50740
C         -0.12140       -1.81160        1.81780
C          1.03380       -2.83250        1.73670
O          0.53200       -4.13830        1.58520
C         -1.80960       -1.50700       -2.97440
C         -2.00940       -0.22720       -3.80960
C         -0.74590        0.64930       -3.80010
C         -0.40340        1.12670       -2.37420
C         -0.54810        1.16400        0.77810
C         -1.90790        1.23940        1.08460
C         -2.40920        2.34510        1.76310
C         -1.55550        3.38730        2.13550
C         -0.19290        3.30330        1.83810
C          0.31030        2.19240        1.16680
C         -2.09540        4.57030        2.86380
H         -1.01490       -2.31240        2.27280
H          0.14290       -0.96210        2.48440
H          1.60160       -2.88420        2.68360
H          1.72340       -2.61660        0.90230
H         -0.17380       -4.15500        0.89220
H         -1.18770       -2.24240       -3.52990
H         -2.78140       -2.01860       -2.80660
H         -2.27860       -0.49410       -4.84670
H         -2.86400        0.34830       -3.40620
H         -0.88370        1.52030       -4.46480
H          0.10650        0.07720       -4.21320
H         -1.08850        1.94930       -2.06850
H          0.61210        1.56940       -2.35140
H         -2.57500        0.42690        0.79100
H         -3.46900        2.39720        2.00460
H          0.47880        4.10580        2.13350
H          1.37530        2.13200        0.94960
H         -1.46270        5.46090        2.75060
H         -2.17120        4.36280        3.94290
H         -3.10120        4.84760        2.51770
