41
rmsd10.gzmat
C          0.00000        0.00000        0.00000
H          1.12140        0.00000        0.00000
C         -0.54050        0.00000       -1.42730
C         -1.17130       -1.16220       -1.69000
C         -1.09980       -2.05460       -0.50040
O         -1.47360       -3.19600       -0.35830
N         -0.49460       -1.30410        0.51290
C         -0.06470       -1.82900        1.79700
C          1.12410       -2.80370        1.66260
O          0.67140       -4.12270        1.47260
C         -1.83430       -1.49920       -2.96360
C         -2.07390       -0.20810       -3.77120
C         -0.81900        0.68090       -3.78430
C         -0.43430        1.13610       -2.36230
C         -0.54750        1.17540        0.76190
C         -1.88970        1.22010        1.14030
C         -2.39930        2.35070        1.77170
C         -1.57070        3.44620        2.02510
C         -0.22110        3.38910        1.66500
C          0.29010        2.25700        1.03880
C         -2.11160        4.67340        2.67560
H         -0.92720       -2.37130        2.26340
H          0.18660       -0.98540        2.47680
H          1.70970       -2.86680        2.59840
H          1.79190       -2.53460        0.82550
H         -0.06320       -4.14120        0.81060
H         -1.20870       -2.21100       -3.54480
H         -2.79230       -2.03240       -2.78480
H         -2.37080       -0.45840       -4.80520
H         -2.92230        0.35070       -3.33230
H         -0.98680        1.56330       -4.42680
H          0.02430        0.12560       -4.23700
H         -1.10710        1.95820       -2.02760
H          0.58370        1.57390       -2.36120
H         -2.53970        0.36730        0.93430
H         -3.44700        2.38050        2.06320
H          0.43100        4.23410        1.87350
H          1.34200        2.22490        0.76060
H         -1.82780        5.58290        2.12600
H         -1.72590        4.78190        3.70060
H         -3.20800        4.67030        2.74310
