rmsd74.gzmat
 OpenBabel08211713393D

 41 43  0  0  1  0  0  0  0  0999 V2000
    0.0000    0.0000    0.0000 C   0  0  2  0  0  0  0  0  0  0  0  0
    1.1219    0.0000    0.0000 H   0  0  0  0  0  0  0  0  0  0  0  0
   -0.5316    0.0000   -1.4303 C   0  0  0  0  0  0  0  0  0  0  0  0
   -1.1648   -1.1607   -1.6942 C   0  0  0  0  0  0  0  0  0  0  0  0
   -1.1131   -2.0483   -0.4994 C   0  0  0  0  0  0  0  0  0  0  0  0
   -1.5084   -3.1823   -0.3534 O   0  0  0  0  0  0  0  0  0  0  0  0
   -0.4912   -1.3070    0.5074 N   0  0  0  0  0  0  0  0  0  0  0  0
   -0.1214   -1.8116    1.8178 C   0  0  0  0  0  0  0  0  0  0  0  0
    1.0338   -2.8325    1.7367 C   0  0  0  0  0  0  0  0  0  0  0  0
    0.5320   -4.1383    1.5852 O   0  0  0  0  0  0  0  0  0  0  0  0
   -1.8096   -1.5070   -2.9744 C   0  0  0  0  0  0  0  0  0  0  0  0
   -2.0094   -0.2272   -3.8096 C   0  0  0  0  0  0  0  0  0  0  0  0
   -0.7459    0.6493   -3.8001 C   0  0  0  0  0  0  0  0  0  0  0  0
   -0.4034    1.1267   -2.3742 C   0  0  0  0  0  0  0  0  0  0  0  0
   -0.5481    1.1640    0.7781 C   0  0  0  0  0  0  0  0  0  0  0  0
   -1.9079    1.2394    1.0846 C   0  0  0  0  0  0  0  0  0  0  0  0
   -2.4092    2.3451    1.7631 C   0  0  0  0  0  0  0  0  0  0  0  0
   -1.5555    3.3873    2.1355 C   0  0  0  0  0  0  0  0  0  0  0  0
   -0.1929    3.3033    1.8381 C   0  0  0  0  0  0  0  0  0  0  0  0
    0.3103    2.1924    1.1668 C   0  0  0  0  0  0  0  0  0  0  0  0
   -2.0954    4.5703    2.8638 C   0  0  0  0  0  0  0  0  0  0  0  0
   -1.0149   -2.3124    2.2728 H   0  0  0  0  0  0  0  0  0  0  0  0
    0.1429   -0.9621    2.4844 H   0  0  0  0  0  0  0  0  0  0  0  0
    1.6016   -2.8842    2.6836 H   0  0  0  0  0  0  0  0  0  0  0  0
    1.7234   -2.6166    0.9023 H   0  0  0  0  0  0  0  0  0  0  0  0
   -0.1738   -4.1550    0.8922 H   0  0  0  0  0  0  0  0  0  0  0  0
   -1.1877   -2.2424   -3.5299 H   0  0  0  0  0  0  0  0  0  0  0  0
   -2.7814   -2.0186   -2.8066 H   0  0  0  0  0  0  0  0  0  0  0  0
   -2.2786   -0.4941   -4.8467 H   0  0  0  0  0  0  0  0  0  0  0  0
   -2.8640    0.3483   -3.4062 H   0  0  0  0  0  0  0  0  0  0  0  0
   -0.8837    1.5203   -4.4648 H   0  0  0  0  0  0  0  0  0  0  0  0
    0.1065    0.0772   -4.2132 H   0  0  0  0  0  0  0  0  0  0  0  0
   -1.0885    1.9493   -2.0685 H   0  0  0  0  0  0  0  0  0  0  0  0
    0.6121    1.5694   -2.3514 H   0  0  0  0  0  0  0  0  0  0  0  0
   -2.5750    0.4269    0.7910 H   0  0  0  0  0  0  0  0  0  0  0  0
   -3.4690    2.3972    2.0046 H   0  0  0  0  0  0  0  0  0  0  0  0
    0.4788    4.1058    2.1335 H   0  0  0  0  0  0  0  0  0  0  0  0
    1.3753    2.1320    0.9496 H   0  0  0  0  0  0  0  0  0  0  0  0
   -1.4627    5.4609    2.7506 H   0  0  0  0  0  0  0  0  0  0  0  0
   -2.1712    4.3628    3.9429 H   0  0  0  0  0  0  0  0  0  0  0  0
   -3.1012    4.8476    2.5177 H   0  0  0  0  0  0  0  0  0  0  0  0
  1  2  1  1  0  0  0
  1  7  1  0  0  0  0
  1 15  1  0  0  0  0
  3  1  1  0  0  0  0
  4  3  2  0  0  0  0
  4  5  1  0  0  0  0
  5  6  2  0  0  0  0
  5  7  1  0  0  0  0
  7  8  1  0  0  0  0
  8 22  1  0  0  0  0
  8 23  1  0  0  0  0
  9  8  1  0  0  0  0
  9 24  1  0  0  0  0
 10  9  1  0  0  0  0
 11 28  1  0  0  0  0
 11  4  1  0  0  0  0
 12 13  1  0  0  0  0
 12 30  1  0  0  0  0
 12 11  1  0  0  0  0
 13 14  1  0  0  0  0
 14 34  1  0  0  0  0
 14 33  1  0  0  0  0
 14  3  1  0  0  0  0
 15 16  2  0  0  0  0
 15 20  1  0  0  0  0
 16 17  1  0  0  0  0
 17 36  1  0  0  0  0
 17 18  2  0  0  0  0
 18 21  1  0  0  0  0
 19 37  1  0  0  0  0
 19 18  1  0  0  0  0
 20 19  2  0  0  0  0
 21 40  1  0  0  0  0
 25  9  1  0  0  0  0
 26 10  1  0  0  0  0
 27 11  1  0  0  0  0
 29 12  1  0  0  0  0
 31 13  1  0  0  0  0
 32 13  1  0  0  0  0
 35 16  1  0  0  0  0
 38 20  1  0  0  0  0
 39 21  1  0  0  0  0
 41 21  1  0  0  0  0
M  END
$$$$
