rmsd34.gzmat
 OpenBabel08211713393D

 41 43  0  0  1  0  0  0  0  0999 V2000
    0.0000    0.0000    0.0000 C   0  0  2  0  0  0  0  0  0  0  0  0
    1.1223    0.0000    0.0000 H   0  0  0  0  0  0  0  0  0  0  0  0
   -0.5309    0.0000   -1.4305 C   0  0  0  0  0  0  0  0  0  0  0  0
   -1.2624   -1.1083   -1.6591 C   0  0  0  0  0  0  0  0  0  0  0  0
   -1.2930   -1.9578   -0.4346 C   0  0  0  0  0  0  0  0  0  0  0  0
   -1.8582   -3.0026   -0.2243 O   0  0  0  0  0  0  0  0  0  0  0  0
   -0.4644   -1.3204    0.4993 N   0  0  0  0  0  0  0  0  0  0  0  0
   -0.3574   -1.7256    1.8899 C   0  0  0  0  0  0  0  0  0  0  0  0
   -1.6240   -1.4263    2.7215 C   0  0  0  0  0  0  0  0  0  0  0  0
   -1.4024   -0.3307    3.5795 O   0  0  0  0  0  0  0  0  0  0  0  0
   -1.9319   -1.4383   -2.9307 C   0  0  0  0  0  0  0  0  0  0  0  0
   -2.0271   -0.1711   -3.8026 C   0  0  0  0  0  0  0  0  0  0  0  0
   -0.6910    0.5904   -3.8231 C   0  0  0  0  0  0  0  0  0  0  0  0
   -0.2932    1.0749   -2.4134 C   0  0  0  0  0  0  0  0  0  0  0  0
   -0.5491    1.1573    0.7883 C   0  0  0  0  0  0  0  0  0  0  0  0
   -1.9160    1.4440    0.7716 C   0  0  0  0  0  0  0  0  0  0  0  0
   -2.4147    2.5125    1.5090 C   0  0  0  0  0  0  0  0  0  0  0  0
   -1.5498    3.3074    2.2674 C   0  0  0  0  0  0  0  0  0  0  0  0
   -0.1824    3.0200    2.2802 C   0  0  0  0  0  0  0  0  0  0  0  0
    0.3165    1.9493    1.5437 C   0  0  0  0  0  0  0  0  0  0  0  0
   -2.0846    4.4425    3.0702 C   0  0  0  0  0  0  0  0  0  0  0  0
    0.5215   -1.2296    2.3615 H   0  0  0  0  0  0  0  0  0  0  0  0
   -0.1585   -2.8270    1.9020 H   0  0  0  0  0  0  0  0  0  0  0  0
   -1.8475   -2.2470    3.4295 H   0  0  0  0  0  0  0  0  0  0  0  0
   -2.5081   -1.2414    2.0883 H   0  0  0  0  0  0  0  0  0  0  0  0
   -1.3047    0.5010    3.0701 H   0  0  0  0  0  0  0  0  0  0  0  0
   -1.3663   -2.2336   -3.4633 H   0  0  0  0  0  0  0  0  0  0  0  0
   -2.9397   -1.8688   -2.7507 H   0  0  0  0  0  0  0  0  0  0  0  0
   -2.3238   -0.4438   -4.8308 H   0  0  0  0  0  0  0  0  0  0  0  0
   -2.8270    0.4870   -3.4144 H   0  0  0  0  0  0  0  0  0  0  0  0
   -0.7562    1.4524   -4.5102 H   0  0  0  0  0  0  0  0  0  0  0  0
    0.1029   -0.0668   -4.2261 H   0  0  0  0  0  0  0  0  0  0  0  0
   -0.8846    1.9763   -2.1373 H   0  0  0  0  0  0  0  0  0  0  0  0
    0.7648    1.4058   -2.4082 H   0  0  0  0  0  0  0  0  0  0  0  0
   -2.5925    0.8261    0.1789 H   0  0  0  0  0  0  0  0  0  0  0  0
   -3.4821    2.7278    1.4971 H   0  0  0  0  0  0  0  0  0  0  0  0
    0.4964    3.6331    2.8702 H   0  0  0  0  0  0  0  0  0  0  0  0
    1.3840    1.7330    1.5635 H   0  0  0  0  0  0  0  0  0  0  0  0
   -2.9847    4.8859    2.6221 H   0  0  0  0  0  0  0  0  0  0  0  0
   -1.3535    5.2541    3.1896 H   0  0  0  0  0  0  0  0  0  0  0  0
   -2.3611    4.1076    4.0834 H   0  0  0  0  0  0  0  0  0  0  0  0
  1  2  1  6  0  0  0
  1  7  1  0  0  0  0
  1 15  1  0  0  0  0
  3  1  1  0  0  0  0
  4  3  2  0  0  0  0
  4  5  1  0  0  0  0
  5  6  2  0  0  0  0
  5  7  1  0  0  0  0
  7  8  1  0  0  0  0
  8 23  1  0  0  0  0
  8 22  1  0  0  0  0
  8  9  1  0  0  0  0
  9 24  1  0  0  0  0
  9 10  1  0  0  0  0
 11 28  1  0  0  0  0
 11  4  1  0  0  0  0
 12 30  1  0  0  0  0
 12 11  1  0  0  0  0
 13 12  1  0  0  0  0
 13 14  1  0  0  0  0
 14 34  1  0  0  0  0
 14 33  1  0  0  0  0
 14  3  1  0  0  0  0
 15 20  1  0  0  0  0
 16 15  2  0  0  0  0
 16 17  1  0  0  0  0
 17 18  2  0  0  0  0
 18 19  1  0  0  0  0
 18 21  1  0  0  0  0
 19 37  1  0  0  0  0
 20 38  1  0  0  0  0
 20 19  2  0  0  0  0
 21 40  1  0  0  0  0
 21 41  1  0  0  0  0
 25  9  1  0  0  0  0
 26 10  1  0  0  0  0
 27 11  1  0  0  0  0
 29 12  1  0  0  0  0
 31 13  1  0  0  0  0
 32 13  1  0  0  0  0
 35 16  1  0  0  0  0
 36 17  1  0  0  0  0
 39 21  1  0  0  0  0
M  END
$$$$
