rmsd10.gzmat
 OpenBabel08211713393D

 41 43  0  0  1  0  0  0  0  0999 V2000
    0.0000    0.0000    0.0000 C   0  0  2  0  0  0  0  0  0  0  0  0
    1.1214    0.0000    0.0000 H   0  0  0  0  0  0  0  0  0  0  0  0
   -0.5405    0.0000   -1.4273 C   0  0  0  0  0  0  0  0  0  0  0  0
   -1.1713   -1.1622   -1.6900 C   0  0  0  0  0  0  0  0  0  0  0  0
   -1.0998   -2.0546   -0.5004 C   0  0  0  0  0  0  0  0  0  0  0  0
   -1.4736   -3.1960   -0.3583 O   0  0  0  0  0  0  0  0  0  0  0  0
   -0.4946   -1.3041    0.5129 N   0  0  0  0  0  0  0  0  0  0  0  0
   -0.0647   -1.8290    1.7970 C   0  0  0  0  0  0  0  0  0  0  0  0
    1.1241   -2.8037    1.6626 C   0  0  0  0  0  0  0  0  0  0  0  0
    0.6714   -4.1227    1.4726 O   0  0  0  0  0  0  0  0  0  0  0  0
   -1.8343   -1.4992   -2.9636 C   0  0  0  0  0  0  0  0  0  0  0  0
   -2.0739   -0.2081   -3.7712 C   0  0  0  0  0  0  0  0  0  0  0  0
   -0.8190    0.6809   -3.7843 C   0  0  0  0  0  0  0  0  0  0  0  0
   -0.4343    1.1361   -2.3623 C   0  0  0  0  0  0  0  0  0  0  0  0
   -0.5475    1.1754    0.7619 C   0  0  0  0  0  0  0  0  0  0  0  0
   -1.8897    1.2201    1.1403 C   0  0  0  0  0  0  0  0  0  0  0  0
   -2.3993    2.3507    1.7717 C   0  0  0  0  0  0  0  0  0  0  0  0
   -1.5707    3.4462    2.0251 C   0  0  0  0  0  0  0  0  0  0  0  0
   -0.2211    3.3891    1.6650 C   0  0  0  0  0  0  0  0  0  0  0  0
    0.2901    2.2570    1.0388 C   0  0  0  0  0  0  0  0  0  0  0  0
   -2.1116    4.6734    2.6756 C   0  0  0  0  0  0  0  0  0  0  0  0
   -0.9272   -2.3713    2.2634 H   0  0  0  0  0  0  0  0  0  0  0  0
    0.1866   -0.9854    2.4768 H   0  0  0  0  0  0  0  0  0  0  0  0
    1.7097   -2.8668    2.5984 H   0  0  0  0  0  0  0  0  0  0  0  0
    1.7919   -2.5346    0.8255 H   0  0  0  0  0  0  0  0  0  0  0  0
   -0.0632   -4.1412    0.8106 H   0  0  0  0  0  0  0  0  0  0  0  0
   -1.2087   -2.2110   -3.5448 H   0  0  0  0  0  0  0  0  0  0  0  0
   -2.7923   -2.0324   -2.7848 H   0  0  0  0  0  0  0  0  0  0  0  0
   -2.3708   -0.4584   -4.8052 H   0  0  0  0  0  0  0  0  0  0  0  0
   -2.9223    0.3507   -3.3323 H   0  0  0  0  0  0  0  0  0  0  0  0
   -0.9868    1.5633   -4.4268 H   0  0  0  0  0  0  0  0  0  0  0  0
    0.0243    0.1256   -4.2370 H   0  0  0  0  0  0  0  0  0  0  0  0
   -1.1071    1.9582   -2.0276 H   0  0  0  0  0  0  0  0  0  0  0  0
    0.5837    1.5739   -2.3612 H   0  0  0  0  0  0  0  0  0  0  0  0
   -2.5397    0.3673    0.9343 H   0  0  0  0  0  0  0  0  0  0  0  0
   -3.4470    2.3805    2.0632 H   0  0  0  0  0  0  0  0  0  0  0  0
    0.4310    4.2341    1.8735 H   0  0  0  0  0  0  0  0  0  0  0  0
    1.3420    2.2249    0.7606 H   0  0  0  0  0  0  0  0  0  0  0  0
   -1.8278    5.5829    2.1260 H   0  0  0  0  0  0  0  0  0  0  0  0
   -1.7259    4.7819    3.7006 H   0  0  0  0  0  0  0  0  0  0  0  0
   -3.2080    4.6703    2.7431 H   0  0  0  0  0  0  0  0  0  0  0  0
  1  2  1  6  0  0  0
  1  7  1  0  0  0  0
  1 15  1  0  0  0  0
  3  1  1  0  0  0  0
  4  3  2  0  0  0  0
  4  5  1  0  0  0  0
  5  6  2  0  0  0  0
  5  7  1  0  0  0  0
  7  8  1  0  0  0  0
  8 22  1  0  0  0  0
  8 23  1  0  0  0  0
  9  8  1  0  0  0  0
  9 24  1  0  0  0  0
 10  9  1  0  0  0  0
 11 28  1  0  0  0  0
 11  4  1  0  0  0  0
 12 30  1  0  0  0  0
 12 11  1  0  0  0  0
 13 12  1  0  0  0  0
 13 14  1  0  0  0  0
 14 34  1  0  0  0  0
 14 33  1  0  0  0  0
 14  3  1  0  0  0  0
 15 20  2  0  0  0  0
 15 16  1  0  0  0  0
 16 17  2  0  0  0  0
 17 18  1  0  0  0  0
 17 36  1  0  0  0  0
 18 21  1  0  0  0  0
 19 37  1  0  0  0  0
 19 18  2  0  0  0  0
 20 19  1  0  0  0  0
 21 41  1  0  0  0  0
 21 40  1  0  0  0  0
 25  9  1  0  0  0  0
 26 10  1  0  0  0  0
 27 11  1  0  0  0  0
 29 12  1  0  0  0  0
 31 13  1  0  0  0  0
 32 13  1  0  0  0  0
 35 16  1  0  0  0  0
 38 20  1  0  0  0  0
 39 21  1  0  0  0  0
M  END
$$$$
