34
rmsd103.gzmat
O          0.00000        0.00000        0.00000
S          1.44600        0.00000        0.00000
O          2.21600        0.00000        1.22280
N          1.90520       -1.45990       -0.82870
C          2.00880        1.28880       -1.03400
C          3.32710        1.73570       -0.94220
C          3.78720        2.75600       -1.76620
C          2.91390        3.34480       -2.69000
N          3.27480        4.39740       -3.55390
C          4.55110        4.84620       -3.79330
S          4.82230        6.23820       -4.92170
C          6.55030        6.10030       -4.62740
C          6.78840        5.08110       -3.74930
N          5.67710        4.37930       -3.28310
C          7.56150        6.98120       -5.26130
C          7.53690        6.84540       -6.79010
C          7.36070        8.44470       -4.84330
C          1.57380        2.90870       -2.77070
C          1.13470        1.88400       -1.94450
H          1.15540       -2.01900       -1.19850
H          2.58360       -2.04290       -0.36760
H          4.02050        1.29710       -0.21290
H          4.82670        3.08620       -1.68370
H          2.52210        4.80390       -4.10840
H          7.75420        4.75400       -3.37390
H          8.58160        6.66180       -4.90710
H          6.61620        7.24300       -7.23040
H          7.62230        5.79620       -7.09790
H          8.37180        7.39160       -7.24440
H          6.44810        8.87600       -5.26750
H          8.19810        9.06680       -5.18100
H          7.29520        8.54280       -3.75310
H          0.88620        3.36470       -3.47670
H          0.08870        1.55660       -2.01320
