34
rmsd5.gzmat
O          0.00000        0.00000        0.00000
S          1.44610        0.00000        0.00000
O          2.21560        0.00000        1.22280
N          1.90830       -1.45980       -0.82760
C          2.00800        1.28740       -1.03580
C          3.34250        1.69160       -0.99160
C          3.80100        2.71050       -1.81850
C          2.91230        3.33800       -2.70120
N          3.27370        4.38250       -3.57390
C          4.54560        4.85190       -3.79560
S          4.81100        6.24500       -4.92490
C          6.53660        6.13340       -4.60740
C          6.77850        5.12060       -3.72260
N          5.67170        4.40350       -3.26930
C          7.54500        7.03810       -5.21190
C          7.39430        7.13100       -6.73600
C          7.46240        8.43200       -4.57230
C          1.55770        2.94260       -2.73600
C          1.11880        1.92200       -1.90490
H          1.16040       -2.01330       -1.21020
H          2.57630       -2.04830       -0.35830
H          4.05160        1.21910       -0.29980
H          4.85300        3.00690       -1.76970
H          2.51820        4.79590       -4.11950
H          7.74390        4.80980       -3.33260
H          8.56830        6.62020       -4.99620
H          6.49180        7.67520       -7.03430
H          7.35080        6.13600       -7.19520
H          8.24630        7.65940       -7.18040
H          6.53150        8.94890       -4.82870
H          8.29020        9.06700       -4.90690
H          7.51290        8.37030       -3.47850
H          0.85660        3.42950       -3.40740
H          0.06140        1.62800       -1.93800
