rmsd18.gzmat
 OpenBabel08211713433D

 34 35  0  0  1  0  0  0  0  0999 V2000
    0.0000    0.0000    0.0000 O   0  0  0  0  0  0  0  0  0  0  0  0
    1.4450    0.0000    0.0000 S   0  0  0  0  0  0  0  0  0  0  0  0
    2.2160    0.0000    1.2234 O   0  0  0  0  0  0  0  0  0  0  0  0
    1.9027   -1.4587   -0.8313 N   0  0  0  0  0  0  0  0  0  0  0  0
    2.0197    1.2881   -1.0287 C   0  0  0  0  0  0  0  0  0  0  0  0
    1.2371    1.7401   -2.0911 C   0  0  0  0  0  0  0  0  0  0  0  0
    1.6929    2.7564   -2.9228 C   0  0  0  0  0  0  0  0  0  0  0  0
    2.9488    3.3307   -2.6880 C   0  0  0  0  0  0  0  0  0  0  0  0
    3.4929    4.3717   -3.4670 N   0  0  0  0  0  0  0  0  0  0  0  0
    3.0498    4.7652   -4.7064 C   0  0  0  0  0  0  0  0  0  0  0  0
    3.9067    6.0925   -5.5945 S   0  0  0  0  0  0  0  0  0  0  0  0
    2.7644    5.9015   -6.9180 C   0  0  1  0  0  0  0  0  0  0  0  0
    1.8681    4.9157   -6.6154 C   0  0  0  0  0  0  0  0  0  0  0  0
    2.0240    4.2797   -5.3838 N   0  0  0  0  0  0  0  0  0  0  0  0
    2.8055    6.7133   -8.1587 C   0  0  0  0  0  0  0  0  0  0  0  0
    2.6109    8.2048   -7.8521 C   0  0  0  0  0  0  0  0  0  0  0  0
    4.1141    6.4852   -8.9284 C   0  0  0  0  0  0  0  0  0  0  0  0
    3.7321    2.8925   -1.5994 C   0  0  0  0  0  0  0  0  0  0  0  0
    3.2610    1.8757   -0.7807 C   0  0  0  0  0  0  0  0  0  0  0  0
    1.1520   -2.0326   -1.1769 H   0  0  0  0  0  0  0  0  0  0  0  0
    2.6030   -2.0280   -0.3870 H   0  0  0  0  0  0  0  0  0  0  0  0
    0.2454    1.3099   -2.2824 H   0  0  0  0  0  0  0  0  0  0  0  0
    1.0658    3.0954   -3.7521 H   0  0  0  0  0  0  0  0  0  0  0  0
    4.3516    4.7955   -3.1174 H   0  0  0  0  0  0  0  0  0  0  0  0
    1.0447    4.5685   -7.2335 H   0  0  0  0  0  0  0  0  0  0  0  0
    1.9574    6.3863   -8.8235 H   0  0  0  0  0  0  0  0  0  0  0  0
    3.4708    8.6365   -7.3291 H   0  0  0  0  0  0  0  0  0  0  0  0
    1.7260    8.3708   -7.2260 H   0  0  0  0  0  0  0  0  0  0  0  0
    2.4744    8.7791   -8.7756 H   0  0  0  0  0  0  0  0  0  0  0  0
    4.9882    6.8596   -8.3856 H   0  0  0  0  0  0  0  0  0  0  0  0
    4.0930    7.0010   -9.8954 H   0  0  0  0  0  0  0  0  0  0  0  0
    4.2794    5.4189   -9.1234 H   0  0  0  0  0  0  0  0  0  0  0  0
    4.7018    3.3388   -1.4009 H   0  0  0  0  0  0  0  0  0  0  0  0
    3.8773    1.5474    0.0666 H   0  0  0  0  0  0  0  0  0  0  0  0
  1  2  2  0  0  0  0
  2  3  2  0  0  0  0
  4 21  1  0  0  0  0
  4  2  1  0  0  0  0
  5 19  1  0  0  0  0
  5  2  1  0  0  0  0
  6  5  2  0  0  0  0
  7  8  2  0  0  0  0
  7  6  1  0  0  0  0
  8 18  1  0  0  0  0
  9 24  1  0  0  0  0
  9  8  1  0  0  0  0
 10  9  1  0  0  0  0
 11 10  1  0  0  0  0
 12 15  1  1  0  0  0
 12 13  1  0  0  0  0
 12 11  1  0  0  0  0
 13 14  2  0  0  0  0
 14 10  2  0  0  0  0
 15 16  1  0  0  0  0
 16 27  1  0  0  0  0
 16 28  1  0  0  0  0
 17 30  1  0  0  0  0
 17 15  1  0  0  0  0
 18 33  1  0  0  0  0
 18 19  2  0  0  0  0
 19 34  1  0  0  0  0
 20  4  1  0  0  0  0
 22  6  1  0  0  0  0
 23  7  1  0  0  0  0
 25 13  1  0  0  0  0
 26 15  1  0  0  0  0
 29 16  1  0  0  0  0
 31 17  1  0  0  0  0
 32 17  1  0  0  0  0
M  RAD  1  12   2
M  END
$$$$
