rmsd91.gzmat
 OpenBabel08211713433D

 34 35  0  0  1  0  0  0  0  0999 V2000
    0.0000    0.0000    0.0000 O   0  0  0  0  0  0  0  0  0  0  0  0
    1.4451    0.0000    0.0000 S   0  0  0  0  0  0  0  0  0  0  0  0
    2.2161    0.0000    1.2228 O   0  0  0  0  0  0  0  0  0  0  0  0
    1.9062   -1.4592   -0.8296 N   0  0  0  0  0  0  0  0  0  0  0  0
    2.0175    1.2863   -1.0309 C   0  0  0  0  0  0  0  0  0  0  0  0
    3.3120    1.7841   -0.8750 C   0  0  0  0  0  0  0  0  0  0  0  0
    3.7771    2.8000   -1.6977 C   0  0  0  0  0  0  0  0  0  0  0  0
    2.9328    3.3337   -2.6954 C   0  0  0  0  0  0  0  0  0  0  0  0
    3.4918    4.3464   -3.4987 N   0  0  0  0  0  0  0  0  0  0  0  0
    2.8588    5.0235   -4.5128 C   0  0  0  0  0  0  0  0  0  0  0  0
    3.7708    6.2510   -5.4874 S   0  0  0  0  0  0  0  0  0  0  0  0
    2.3127    6.5436   -6.4255 C   0  0  2  0  0  0  0  0  0  0  0  0
    1.3028    5.7439   -5.9702 C   0  0  0  0  0  0  0  0  0  0  0  0
    1.6035    4.8963   -4.9049 N   0  0  0  0  0  0  0  0  0  0  0  0
    2.2351    7.5209   -7.5386 C   0  0  0  0  0  0  0  0  0  0  0  0
    2.5907    8.9370   -7.0651 C   0  0  0  0  0  0  0  0  0  0  0  0
    3.1370    7.0972   -8.7067 C   0  0  0  0  0  0  0  0  0  0  0  0
    1.6276    2.8459   -2.8390 C   0  0  0  0  0  0  0  0  0  0  0  0
    1.1795    1.8274   -2.0059 C   0  0  0  0  0  0  0  0  0  0  0  0
    1.1596   -2.0326   -1.1849 H   0  0  0  0  0  0  0  0  0  0  0  0
    2.6026   -2.0295   -0.3808 H   0  0  0  0  0  0  0  0  0  0  0  0
    3.9750    1.3870   -0.0961 H   0  0  0  0  0  0  0  0  0  0  0  0
    4.7866    3.1785   -1.5677 H   0  0  0  0  0  0  0  0  0  0  0  0
    4.4558    4.6069   -3.2900 H   0  0  0  0  0  0  0  0  0  0  0  0
    0.2853    5.6971   -6.3485 H   0  0  0  0  0  0  0  0  0  0  0  0
    1.1742    7.5434   -7.9159 H   0  0  0  0  0  0  0  0  0  0  0  0
    3.6549    9.0410   -6.8272 H   0  0  0  0  0  0  0  0  0  0  0  0
    2.0221    9.2124   -6.1683 H   0  0  0  0  0  0  0  0  0  0  0  0
    2.3603    9.6771   -7.8404 H   0  0  0  0  0  0  0  0  0  0  0  0
    4.2003    7.1529   -8.4513 H   0  0  0  0  0  0  0  0  0  0  0  0
    2.9801    7.7459   -9.5761 H   0  0  0  0  0  0  0  0  0  0  0  0
    2.9249    6.0677   -9.0188 H   0  0  0  0  0  0  0  0  0  0  0  0
    0.9504    3.2544   -3.5949 H   0  0  0  0  0  0  0  0  0  0  0  0
    0.1498    1.4650   -2.1268 H   0  0  0  0  0  0  0  0  0  0  0  0
  2  1  2  0  0  0  0
  2  3  2  0  0  0  0
  4 21  1  0  0  0  0
  4  2  1  0  0  0  0
  5  6  1  0  0  0  0
  5  2  1  0  0  0  0
  6 22  1  0  0  0  0
  7 23  1  0  0  0  0
  7  6  2  0  0  0  0
  8  7  1  0  0  0  0
  9 24  1  0  0  0  0
  9  8  1  0  0  0  0
 10  9  1  0  0  0  0
 11 10  1  0  0  0  0
 12 15  1  6  0  0  0
 12 13  1  0  0  0  0
 12 11  1  0  0  0  0
 13 14  2  0  0  0  0
 14 10  2  0  0  0  0
 15 16  1  0  0  0  0
 16 27  1  0  0  0  0
 16 28  1  0  0  0  0
 17 30  1  0  0  0  0
 17 15  1  0  0  0  0
 18  8  2  0  0  0  0
 18 19  1  0  0  0  0
 19  5  2  0  0  0  0
 20  4  1  0  0  0  0
 25 13  1  0  0  0  0
 26 15  1  0  0  0  0
 29 16  1  0  0  0  0
 31 17  1  0  0  0  0
 32 17  1  0  0  0  0
 33 18  1  0  0  0  0
 34 19  1  0  0  0  0
M  RAD  1  12   2
M  END
$$$$
