rmsd103.gzmat
 OpenBabel08211713433D

 34 34  0  0  1  0  0  0  0  0999 V2000
    0.0000    0.0000    0.0000 O   0  0  0  0  0  0  0  0  0  0  0  0
    1.4460    0.0000    0.0000 S   0  0  0  0  0  0  0  0  0  0  0  0
    2.2160    0.0000    1.2228 O   0  0  0  0  0  0  0  0  0  0  0  0
    1.9052   -1.4599   -0.8287 N   0  0  0  0  0  0  0  0  0  0  0  0
    2.0088    1.2888   -1.0340 C   0  0  0  0  0  0  0  0  0  0  0  0
    3.3271    1.7357   -0.9422 C   0  0  0  0  0  0  0  0  0  0  0  0
    3.7872    2.7560   -1.7662 C   0  0  0  0  0  0  0  0  0  0  0  0
    2.9139    3.3448   -2.6900 C   0  0  0  0  0  0  0  0  0  0  0  0
    3.2748    4.3974   -3.5539 N   0  0  0  0  0  0  0  0  0  0  0  0
    4.5511    4.8462   -3.7933 C   0  0  0  0  0  0  0  0  0  0  0  0
    4.8223    6.2382   -4.9217 S   0  0  0  0  0  0  0  0  0  0  0  0
    6.5503    6.1003   -4.6274 C   0  0  1  0  0  0  0  0  0  0  0  0
    6.7884    5.0811   -3.7493 C   0  0  0  0  0  0  0  0  0  0  0  0
    5.6771    4.3793   -3.2831 N   0  0  0  0  0  0  0  0  0  0  0  0
    7.5615    6.9812   -5.2613 C   0  0  0  0  0  0  0  0  0  0  0  0
    7.5369    6.8454   -6.7901 C   0  0  0  0  0  0  0  0  0  0  0  0
    7.3607    8.4447   -4.8433 C   0  0  0  0  0  0  0  0  0  0  0  0
    1.5738    2.9087   -2.7707 C   0  0  0  0  0  0  0  0  0  0  0  0
    1.1347    1.8840   -1.9445 C   0  0  0  0  0  0  0  0  0  0  0  0
    1.1554   -2.0190   -1.1985 H   0  0  0  0  0  0  0  0  0  0  0  0
    2.5836   -2.0429   -0.3676 H   0  0  0  0  0  0  0  0  0  0  0  0
    4.0205    1.2971   -0.2129 H   0  0  0  0  0  0  0  0  0  0  0  0
    4.8267    3.0862   -1.6837 H   0  0  0  0  0  0  0  0  0  0  0  0
    2.5221    4.8039   -4.1084 H   0  0  0  0  0  0  0  0  0  0  0  0
    7.7542    4.7540   -3.3739 H   0  0  0  0  0  0  0  0  0  0  0  0
    8.5816    6.6618   -4.9071 H   0  0  0  0  0  0  0  0  0  0  0  0
    6.6162    7.2430   -7.2304 H   0  0  0  0  0  0  0  0  0  0  0  0
    7.6223    5.7962   -7.0979 H   0  0  0  0  0  0  0  0  0  0  0  0
    8.3718    7.3916   -7.2444 H   0  0  0  0  0  0  0  0  0  0  0  0
    6.4481    8.8760   -5.2675 H   0  0  0  0  0  0  0  0  0  0  0  0
    8.1981    9.0668   -5.1810 H   0  0  0  0  0  0  0  0  0  0  0  0
    7.2952    8.5428   -3.7531 H   0  0  0  0  0  0  0  0  0  0  0  0
    0.8862    3.3647   -3.4767 H   0  0  0  0  0  0  0  0  0  0  0  0
    0.0887    1.5566   -2.0132 H   0  0  0  0  0  0  0  0  0  0  0  0
  2  1  2  0  0  0  0
  2  3  2  0  0  0  0
  4 21  1  0  0  0  0
  4  2  1  0  0  0  0
  5  6  1  0  0  0  0
  5  2  1  0  0  0  0
  6 22  1  0  0  0  0
  7 23  1  0  0  0  0
  7  6  2  0  0  0  0
  8  7  1  0  0  0  0
  9  8  1  0  0  0  0
 10  9  1  0  0  0  0
 10 14  2  0  0  0  0
 11 12  1  0  0  0  0
 11 10  1  0  0  0  0
 12 15  1  6  0  0  0
 12 13  1  0  0  0  0
 13 25  1  0  0  0  0
 13 14  2  0  0  0  0
 15 26  1  0  0  0  0
 15 17  1  0  0  0  0
 17 32  1  0  0  0  0
 18  8  2  0  0  0  0
 18 19  1  0  0  0  0
 19  5  2  0  0  0  0
 20  4  1  0  0  0  0
 24  9  1  0  0  0  0
 27 16  1  0  0  0  0
 28 16  1  0  0  0  0
 29 16  1  0  0  0  0
 30 17  1  0  0  0  0
 31 17  1  0  0  0  0
 33 18  1  0  0  0  0
 34 19  1  0  0  0  0
M  RAD  3  12   2  15   2  16   2
M  END
$$$$
