34
rmsd13.gzmat
O          0.00000        0.00000        0.00000
S          1.44590        0.00000        0.00000
O          2.21530        0.00000        1.22310
N          1.90780       -1.45750       -0.83130
C          2.01310        1.28460       -1.03580
C          3.33170        1.73020       -0.94220
C          3.79820        2.74220       -1.77310
C          2.93150        3.32350       -2.70740
N          3.30130        4.34910       -3.59880
C          4.52290        4.97410       -3.66190
S          4.78260        6.32470       -4.84350
C          6.43280        6.47900       -4.25740
C          6.66070        5.55880       -3.27350
N          5.59930        4.71770       -2.93990
C          7.39690        7.48020       -4.77530
C          7.60750        7.32690       -6.28770
C          6.94160        8.90580       -4.43250
C          1.59250        2.88370       -2.79520
C          1.14550        1.87150       -1.95840
H          1.16060       -2.03220       -1.18230
H          2.60920       -2.02530       -0.38730
H          4.02140        1.29610       -0.20670
H          4.83820        3.07100       -1.68460
H          2.57640        4.67060       -4.23990
H          7.58320        5.41070       -2.71870
H          8.39020        7.30740       -4.27320
H          6.71370        7.59220       -6.86210
H          7.87570        6.29640       -6.54950
H          8.41750        7.97720       -6.63780
H          6.04700        9.20090       -4.99120
H          7.72590        9.63390       -4.66940
H          6.71040        9.00470       -3.36490
H          0.90910        3.33200       -3.51020
H          0.09870        1.54720       -2.02820
