34
rmsd48.gzmat
O          0.00000        0.00000        0.00000
S          1.44510        0.00000        0.00000
O          2.21550        0.00000        1.22340
N          1.90300       -1.46040       -0.82930
C          2.01790        1.28870       -1.02840
C          1.21200        1.77190       -2.05910
C          1.66510        2.78410       -2.89690
C          2.93990        3.32910       -2.69620
N          3.49010        4.35660       -3.48730
C          2.97270        4.83570       -4.66620
S          3.84050        6.14670       -5.56830
C          2.57770        6.09820       -6.79140
C          1.64500        5.15850       -6.45440
N          1.86230        4.45240       -5.27160
C          2.57200        6.96080       -7.99810
C          2.62500        8.44870       -7.62630
C          3.73230        6.59660       -8.93580
C          3.74610        2.86300       -1.63540
C          3.27920        1.84680       -0.81380
H          1.15230       -2.03860       -1.16750
H          2.60720       -2.02500       -0.38490
H          0.20310        1.36990       -2.22000
H          1.01760        3.14150       -3.70330
H          4.38790        4.73090       -3.18110
H          0.74820        4.89910       -7.01010
H          1.61050        6.78190       -8.55650
H          3.59890        8.74190       -7.22040
H          1.86420        8.70050       -6.87810
H          2.44260        9.07780       -8.50550
H          4.70980        6.78090       -8.47790
H          3.69140        7.18960       -9.85670
H          3.69680        5.53810       -9.21900
H          4.72960        3.28840       -1.46040
H          3.91450        1.49460        0.00910
