rmsd48.gzmat
 OpenBabel08211713433D

 34 35  0  0  1  0  0  0  0  0999 V2000
    0.0000    0.0000    0.0000 O   0  0  0  0  0  0  0  0  0  0  0  0
    1.4451    0.0000    0.0000 S   0  0  0  0  0  0  0  0  0  0  0  0
    2.2155    0.0000    1.2234 O   0  0  0  0  0  0  0  0  0  0  0  0
    1.9030   -1.4604   -0.8293 N   0  0  0  0  0  0  0  0  0  0  0  0
    2.0179    1.2887   -1.0284 C   0  0  0  0  0  0  0  0  0  0  0  0
    1.2120    1.7719   -2.0591 C   0  0  0  0  0  0  0  0  0  0  0  0
    1.6651    2.7841   -2.8969 C   0  0  0  0  0  0  0  0  0  0  0  0
    2.9399    3.3291   -2.6962 C   0  0  0  0  0  0  0  0  0  0  0  0
    3.4901    4.3566   -3.4873 N   0  0  0  0  0  0  0  0  0  0  0  0
    2.9727    4.8357   -4.6662 C   0  0  0  0  0  0  0  0  0  0  0  0
    3.8405    6.1467   -5.5683 S   0  0  0  0  0  0  0  0  0  0  0  0
    2.5777    6.0982   -6.7914 C   0  0  2  0  0  0  0  0  0  0  0  0
    1.6450    5.1585   -6.4544 C   0  0  0  0  0  0  0  0  0  0  0  0
    1.8623    4.4524   -5.2716 N   0  0  0  0  0  0  0  0  0  0  0  0
    2.5720    6.9608   -7.9981 C   0  0  0  0  0  0  0  0  0  0  0  0
    2.6250    8.4487   -7.6263 C   0  0  0  0  0  0  0  0  0  0  0  0
    3.7323    6.5966   -8.9358 C   0  0  0  0  0  0  0  0  0  0  0  0
    3.7461    2.8630   -1.6354 C   0  0  0  0  0  0  0  0  0  0  0  0
    3.2792    1.8468   -0.8138 C   0  0  0  0  0  0  0  0  0  0  0  0
    1.1523   -2.0386   -1.1675 H   0  0  0  0  0  0  0  0  0  0  0  0
    2.6072   -2.0250   -0.3849 H   0  0  0  0  0  0  0  0  0  0  0  0
    0.2031    1.3699   -2.2200 H   0  0  0  0  0  0  0  0  0  0  0  0
    1.0176    3.1415   -3.7033 H   0  0  0  0  0  0  0  0  0  0  0  0
    4.3879    4.7309   -3.1811 H   0  0  0  0  0  0  0  0  0  0  0  0
    0.7482    4.8991   -7.0101 H   0  0  0  0  0  0  0  0  0  0  0  0
    1.6105    6.7819   -8.5565 H   0  0  0  0  0  0  0  0  0  0  0  0
    3.5989    8.7419   -7.2204 H   0  0  0  0  0  0  0  0  0  0  0  0
    1.8642    8.7005   -6.8781 H   0  0  0  0  0  0  0  0  0  0  0  0
    2.4426    9.0778   -8.5055 H   0  0  0  0  0  0  0  0  0  0  0  0
    4.7098    6.7809   -8.4779 H   0  0  0  0  0  0  0  0  0  0  0  0
    3.6914    7.1896   -9.8567 H   0  0  0  0  0  0  0  0  0  0  0  0
    3.6968    5.5381   -9.2190 H   0  0  0  0  0  0  0  0  0  0  0  0
    4.7296    3.2884   -1.4604 H   0  0  0  0  0  0  0  0  0  0  0  0
    3.9145    1.4946    0.0091 H   0  0  0  0  0  0  0  0  0  0  0  0
  1  2  2  0  0  0  0
  2  3  2  0  0  0  0
  4 21  1  0  0  0  0
  4  2  1  0  0  0  0
  5 19  1  0  0  0  0
  5  2  1  0  0  0  0
  6  5  2  0  0  0  0
  7  8  2  0  0  0  0
  7  6  1  0  0  0  0
  8 18  1  0  0  0  0
  9 24  1  0  0  0  0
  9  8  1  0  0  0  0
 10  9  1  0  0  0  0
 11 10  1  0  0  0  0
 12 15  1  6  0  0  0
 12 13  1  0  0  0  0
 12 11  1  0  0  0  0
 13 14  2  0  0  0  0
 14 10  2  0  0  0  0
 15 16  1  0  0  0  0
 16 27  1  0  0  0  0
 16 28  1  0  0  0  0
 17 30  1  0  0  0  0
 17 15  1  0  0  0  0
 18 33  1  0  0  0  0
 18 19  2  0  0  0  0
 19 34  1  0  0  0  0
 20  4  1  0  0  0  0
 22  6  1  0  0  0  0
 23  7  1  0  0  0  0
 25 13  1  0  0  0  0
 26 15  1  0  0  0  0
 29 16  1  0  0  0  0
 31 17  1  0  0  0  0
 32 17  1  0  0  0  0
M  RAD  1  12   2
M  END
$$$$
