34
rmsd18.gzmat
O          0.00000        0.00000        0.00000
S          1.44500        0.00000        0.00000
O          2.21600        0.00000        1.22340
N          1.90270       -1.45870       -0.83130
C          2.01970        1.28810       -1.02870
C          1.23710        1.74010       -2.09110
C          1.69290        2.75640       -2.92280
C          2.94880        3.33070       -2.68800
N          3.49290        4.37170       -3.46700
C          3.04980        4.76520       -4.70640
S          3.90670        6.09250       -5.59450
C          2.76440        5.90150       -6.91800
C          1.86810        4.91570       -6.61540
N          2.02400        4.27970       -5.38380
C          2.80550        6.71330       -8.15870
C          2.61090        8.20480       -7.85210
C          4.11410        6.48520       -8.92840
C          3.73210        2.89250       -1.59940
C          3.26100        1.87570       -0.78070
H          1.15200       -2.03260       -1.17690
H          2.60300       -2.02800       -0.38700
H          0.24540        1.30990       -2.28240
H          1.06580        3.09540       -3.75210
H          4.35160        4.79550       -3.11740
H          1.04470        4.56850       -7.23350
H          1.95740        6.38630       -8.82350
H          3.47080        8.63650       -7.32910
H          1.72600        8.37080       -7.22600
H          2.47440        8.77910       -8.77560
H          4.98820        6.85960       -8.38560
H          4.09300        7.00100       -9.89540
H          4.27940        5.41890       -9.12340
H          4.70180        3.33880       -1.40090
H          3.87730        1.54740        0.06660
