rmsd41.gzmat
 OpenBabel08211713433D

 34 35  0  0  1  0  0  0  0  0999 V2000
    0.0000    0.0000    0.0000 O   0  0  0  0  0  0  0  0  0  0  0  0
    1.4457    0.0000    0.0000 S   0  0  0  0  0  0  0  0  0  0  0  0
    2.2167    0.0000    1.2229 O   0  0  0  0  0  0  0  0  0  0  0  0
    1.9063   -1.4600   -0.8291 N   0  0  0  0  0  0  0  0  0  0  0  0
    2.0150    1.2871   -1.0319 C   0  0  0  0  0  0  0  0  0  0  0  0
    3.3221    1.7603   -0.9042 C   0  0  0  0  0  0  0  0  0  0  0  0
    3.7821    2.7801   -1.7251 C   0  0  0  0  0  0  0  0  0  0  0  0
    2.9199    3.3434   -2.6911 C   0  0  0  0  0  0  0  0  0  0  0  0
    3.4744    4.3567   -3.4970 N   0  0  0  0  0  0  0  0  0  0  0  0
    2.8089    5.0993   -4.4421 C   0  0  0  0  0  0  0  0  0  0  0  0
    3.7099    6.3240   -5.4297 S   0  0  0  0  0  0  0  0  0  0  0  0
    2.2085    6.7152   -6.2575 C   0  0  2  0  0  0  0  0  0  0  0  0
    1.1955    5.9412   -5.7662 C   0  0  0  0  0  0  0  0  0  0  0  0
    1.5265    5.0401   -4.7548 N   0  0  0  0  0  0  0  0  0  0  0  0
    2.1024    7.7359   -7.3285 C   0  0  0  0  0  0  0  0  0  0  0  0
    2.5722    9.1128   -6.8400 C   0  0  0  0  0  0  0  0  0  0  0  0
    2.8886    7.3054   -8.5751 C   0  0  0  0  0  0  0  0  0  0  0  0
    1.6037    2.8779   -2.8080 C   0  0  0  0  0  0  0  0  0  0  0  0
    1.1610    1.8548   -1.9778 C   0  0  0  0  0  0  0  0  0  0  0  0
    1.1575   -2.0194   -1.2018 H   0  0  0  0  0  0  0  0  0  0  0  0
    2.5837   -2.0428   -0.3664 H   0  0  0  0  0  0  0  0  0  0  0  0
    3.9992    1.3413   -0.1491 H   0  0  0  0  0  0  0  0  0  0  0  0
    4.8010    3.1400   -1.6165 H   0  0  0  0  0  0  0  0  0  0  0  0
    4.4550    4.5805   -3.3289 H   0  0  0  0  0  0  0  0  0  0  0  0
    0.1544    5.9528   -6.0772 H   0  0  0  0  0  0  0  0  0  0  0  0
    1.0191    7.8296   -7.6220 H   0  0  0  0  0  0  0  0  0  0  0  0
    3.6546    9.1500   -6.6787 H   0  0  0  0  0  0  0  0  0  0  0  0
    2.0862    9.3882   -5.8962 H   0  0  0  0  0  0  0  0  0  0  0  0
    2.3301    9.8905   -7.5740 H   0  0  0  0  0  0  0  0  0  0  0  0
    3.9691    7.2859   -8.3975 H   0  0  0  0  0  0  0  0  0  0  0  0
    2.7105    7.9965   -9.4071 H   0  0  0  0  0  0  0  0  0  0  0  0
    2.5917    6.3033   -8.9070 H   0  0  0  0  0  0  0  0  0  0  0  0
    0.9140    3.3079   -3.5408 H   0  0  0  0  0  0  0  0  0  0  0  0
    0.1229    1.5092   -2.0776 H   0  0  0  0  0  0  0  0  0  0  0  0
  2  1  2  0  0  0  0
  2  3  2  0  0  0  0
  4 21  1  0  0  0  0
  4  2  1  0  0  0  0
  5  6  1  0  0  0  0
  5  2  1  0  0  0  0
  6 22  1  0  0  0  0
  7 23  1  0  0  0  0
  7  6  2  0  0  0  0
  8  7  1  0  0  0  0
  9 24  1  0  0  0  0
  9  8  1  0  0  0  0
 10  9  1  0  0  0  0
 11 10  1  0  0  0  0
 12 15  1  6  0  0  0
 12 13  1  0  0  0  0
 12 11  1  0  0  0  0
 13 14  2  0  0  0  0
 14 10  2  0  0  0  0
 15 16  1  0  0  0  0
 16 27  1  0  0  0  0
 16 28  1  0  0  0  0
 17 30  1  0  0  0  0
 17 15  1  0  0  0  0
 18  8  2  0  0  0  0
 18 19  1  0  0  0  0
 19  5  2  0  0  0  0
 20  4  1  0  0  0  0
 25 13  1  0  0  0  0
 26 15  1  0  0  0  0
 29 16  1  0  0  0  0
 31 17  1  0  0  0  0
 32 17  1  0  0  0  0
 33 18  1  0  0  0  0
 34 19  1  0  0  0  0
M  RAD  1  12   2
M  END
$$$$
