34
rmsd94.gzmat
O          0.00000        0.00000        0.00000
S          1.44500        0.00000        0.00000
O          2.21470        0.00000        1.22420
N          1.90220       -1.45850       -0.83260
C          2.02160        1.28780       -1.02730
C          3.25990        1.87990       -0.77340
C          3.72920        2.90090       -1.58720
C          2.94700        3.34240       -2.67700
N          3.50530        4.37310       -3.45740
C          2.93970        4.95370       -4.56640
S          3.83860        6.24630       -5.46600
C          2.49030        6.35840       -6.58910
C          1.51640        5.46920       -6.23170
N          1.76350        4.68510       -5.10510
C          2.45740        7.29010       -7.74270
C          2.58220        8.74970       -7.28580
C          3.55420        6.94490       -8.76040
C          1.69790        2.75750       -2.92220
C          1.24370        1.73690       -2.09460
H          1.15120       -2.04550       -1.15410
H          2.62260       -2.01410       -0.40310
H          3.87370        1.55270        0.07640
H          4.69400        3.35420       -1.37990
H          4.41710        4.72010       -3.15960
H          0.56530        5.30600       -6.73170
H          1.46320        7.17760       -8.25900
H          3.58400        8.98310       -6.91020
H          1.86720        8.98040       -6.48690
H          2.38210        9.43690       -8.11620
H          4.55760        7.16280       -8.37870
H          3.42770        7.52240       -9.68320
H          3.52810        5.88260       -9.02920
H          1.06980        3.09090       -3.75420
H          0.25660        1.29970       -2.29510
