rmsd33.gzmat
 OpenBabel08211713433D

 34 35  0  0  1  0  0  0  0  0999 V2000
    0.0000    0.0000    0.0000 O   0  0  0  0  0  0  0  0  0  0  0  0
    1.4451    0.0000    0.0000 S   0  0  0  0  0  0  0  0  0  0  0  0
    2.2153    0.0000    1.2231 O   0  0  0  0  0  0  0  0  0  0  0  0
    1.9051   -1.4580   -0.8310 N   0  0  0  0  0  0  0  0  0  0  0  0
    2.0132    1.2911   -1.0285 C   0  0  0  0  0  0  0  0  0  0  0  0
    1.1819    1.8092   -2.0219 C   0  0  0  0  0  0  0  0  0  0  0  0
    1.6247    2.8314   -2.8528 C   0  0  0  0  0  0  0  0  0  0  0  0
    2.9161    3.3486   -2.6848 C   0  0  0  0  0  0  0  0  0  0  0  0
    3.4462    4.3997   -3.4593 N   0  0  0  0  0  0  0  0  0  0  0  0
    2.9092    4.8923   -4.6241 C   0  0  0  0  0  0  0  0  0  0  0  0
    3.6927    6.2955   -5.4616 S   0  0  0  0  0  0  0  0  0  0  0  0
    2.4463    6.2123   -6.6993 C   0  0  1  0  0  0  0  0  0  0  0  0
    1.5779    5.1972   -6.4124 C   0  0  0  0  0  0  0  0  0  0  0  0
    1.8331    4.4591   -5.2571 N   0  0  0  0  0  0  0  0  0  0  0  0
    2.3839    7.1299   -7.8628 C   0  0  0  0  0  0  0  0  0  0  0  0
    2.1547    8.5789   -7.4101 C   0  0  0  0  0  0  0  0  0  0  0  0
    3.6499    7.0261   -8.7247 C   0  0  0  0  0  0  0  0  0  0  0  0
    3.7530    2.8379   -1.6700 C   0  0  0  0  0  0  0  0  0  0  0  0
    3.2946    1.8142   -0.8524 C   0  0  0  0  0  0  0  0  0  0  0  0
    1.1580   -2.0199   -1.2023 H   0  0  0  0  0  0  0  0  0  0  0  0
    2.5876   -2.0383   -0.3733 H   0  0  0  0  0  0  0  0  0  0  0  0
    0.1617    1.4259   -2.1584 H   0  0  0  0  0  0  0  0  0  0  0  0
    0.9590    3.2185   -3.6294 H   0  0  0  0  0  0  0  0  0  0  0  0
    4.3461    4.7736   -3.1595 H   0  0  0  0  0  0  0  0  0  0  0  0
    0.7074    4.8981   -6.9902 H   0  0  0  0  0  0  0  0  0  0  0  0
    1.5084    6.8293   -8.5043 H   0  0  0  0  0  0  0  0  0  0  0  0
    3.0242    8.9933   -6.8889 H   0  0  0  0  0  0  0  0  0  0  0  0
    1.2963    8.6528   -6.7316 H   0  0  0  0  0  0  0  0  0  0  0  0
    1.9538    9.2292   -8.2692 H   0  0  0  0  0  0  0  0  0  0  0  0
    4.5342    7.4233   -8.2150 H   0  0  0  0  0  0  0  0  0  0  0  0
    3.5354    7.5937   -9.6556 H   0  0  0  0  0  0  0  0  0  0  0  0
    3.8637    5.9851   -8.9953 H   0  0  0  0  0  0  0  0  0  0  0  0
    4.7530    3.2352   -1.5264 H   0  0  0  0  0  0  0  0  0  0  0  0
    3.9530    1.4298   -0.0632 H   0  0  0  0  0  0  0  0  0  0  0  0
  2  1  2  0  0  0  0
  2  3  2  0  0  0  0
  4 21  1  0  0  0  0
  4  2  1  0  0  0  0
  5 19  1  0  0  0  0
  5  2  1  0  0  0  0
  6  5  2  0  0  0  0
  7  8  2  0  0  0  0
  7  6  1  0  0  0  0
  8 18  1  0  0  0  0
  9 24  1  0  0  0  0
  9  8  1  0  0  0  0
 10  9  1  0  0  0  0
 11 10  1  0  0  0  0
 12 15  1  1  0  0  0
 12 13  1  0  0  0  0
 12 11  1  0  0  0  0
 13 14  2  0  0  0  0
 14 10  2  0  0  0  0
 15 16  1  0  0  0  0
 16 27  1  0  0  0  0
 16 28  1  0  0  0  0
 17 30  1  0  0  0  0
 17 15  1  0  0  0  0
 18 33  1  0  0  0  0
 18 19  2  0  0  0  0
 19 34  1  0  0  0  0
 20  4  1  0  0  0  0
 22  6  1  0  0  0  0
 23  7  1  0  0  0  0
 25 13  1  0  0  0  0
 26 15  1  0  0  0  0
 29 16  1  0  0  0  0
 31 17  1  0  0  0  0
 32 17  1  0  0  0  0
M  RAD  1  12   2
M  END
$$$$
