rmsd13.gzmat
 OpenBabel08211713433D

 34 35  0  0  1  0  0  0  0  0999 V2000
    0.0000    0.0000    0.0000 O   0  0  0  0  0  0  0  0  0  0  0  0
    1.4459    0.0000    0.0000 S   0  0  0  0  0  0  0  0  0  0  0  0
    2.2153    0.0000    1.2231 O   0  0  0  0  0  0  0  0  0  0  0  0
    1.9078   -1.4575   -0.8313 N   0  0  0  0  0  0  0  0  0  0  0  0
    2.0131    1.2846   -1.0358 C   0  0  0  0  0  0  0  0  0  0  0  0
    3.3317    1.7302   -0.9422 C   0  0  0  0  0  0  0  0  0  0  0  0
    3.7982    2.7422   -1.7731 C   0  0  0  0  0  0  0  0  0  0  0  0
    2.9315    3.3235   -2.7074 C   0  0  0  0  0  0  0  0  0  0  0  0
    3.3013    4.3491   -3.5988 N   0  0  0  0  0  0  0  0  0  0  0  0
    4.5229    4.9741   -3.6619 C   0  0  0  0  0  0  0  0  0  0  0  0
    4.7826    6.3247   -4.8435 S   0  0  0  0  0  0  0  0  0  0  0  0
    6.4328    6.4790   -4.2574 C   0  0  2  0  0  0  0  0  0  0  0  0
    6.6607    5.5588   -3.2735 C   0  0  0  0  0  0  0  0  0  0  0  0
    5.5993    4.7177   -2.9399 N   0  0  0  0  0  0  0  0  0  0  0  0
    7.3969    7.4802   -4.7753 C   0  0  0  0  0  0  0  0  0  0  0  0
    7.6075    7.3269   -6.2877 C   0  0  0  0  0  0  0  0  0  0  0  0
    6.9416    8.9058   -4.4325 C   0  0  0  0  0  0  0  0  0  0  0  0
    1.5925    2.8837   -2.7952 C   0  0  0  0  0  0  0  0  0  0  0  0
    1.1455    1.8715   -1.9584 C   0  0  0  0  0  0  0  0  0  0  0  0
    1.1606   -2.0322   -1.1823 H   0  0  0  0  0  0  0  0  0  0  0  0
    2.6092   -2.0253   -0.3873 H   0  0  0  0  0  0  0  0  0  0  0  0
    4.0214    1.2961   -0.2067 H   0  0  0  0  0  0  0  0  0  0  0  0
    4.8382    3.0710   -1.6846 H   0  0  0  0  0  0  0  0  0  0  0  0
    2.5764    4.6706   -4.2399 H   0  0  0  0  0  0  0  0  0  0  0  0
    7.5832    5.4107   -2.7187 H   0  0  0  0  0  0  0  0  0  0  0  0
    8.3902    7.3074   -4.2732 H   0  0  0  0  0  0  0  0  0  0  0  0
    6.7137    7.5922   -6.8621 H   0  0  0  0  0  0  0  0  0  0  0  0
    7.8757    6.2964   -6.5495 H   0  0  0  0  0  0  0  0  0  0  0  0
    8.4175    7.9772   -6.6378 H   0  0  0  0  0  0  0  0  0  0  0  0
    6.0470    9.2009   -4.9912 H   0  0  0  0  0  0  0  0  0  0  0  0
    7.7259    9.6339   -4.6694 H   0  0  0  0  0  0  0  0  0  0  0  0
    6.7104    9.0047   -3.3649 H   0  0  0  0  0  0  0  0  0  0  0  0
    0.9091    3.3320   -3.5102 H   0  0  0  0  0  0  0  0  0  0  0  0
    0.0987    1.5472   -2.0282 H   0  0  0  0  0  0  0  0  0  0  0  0
  2  1  2  0  0  0  0
  2  3  2  0  0  0  0
  4 21  1  0  0  0  0
  4  2  1  0  0  0  0
  5  6  1  0  0  0  0
  5  2  1  0  0  0  0
  6 22  1  0  0  0  0
  7 23  1  0  0  0  0
  7  6  2  0  0  0  0
  8  7  1  0  0  0  0
  9  8  1  0  0  0  0
 10  9  1  0  0  0  0
 10 14  2  0  0  0  0
 11 12  1  0  0  0  0
 11 10  1  0  0  0  0
 12 15  1  1  0  0  0
 12 13  1  0  0  0  0
 13 14  2  0  0  0  0
 13 25  1  0  0  0  0
 15 17  1  0  0  0  0
 15 26  1  0  0  0  0
 16 15  1  0  0  0  0
 17 32  1  0  0  0  0
 18  8  2  0  0  0  0
 18 19  1  0  0  0  0
 19  5  2  0  0  0  0
 20  4  1  0  0  0  0
 24  9  1  0  0  0  0
 27 16  1  0  0  0  0
 28 16  1  0  0  0  0
 29 16  1  0  0  0  0
 30 17  1  0  0  0  0
 31 17  1  0  0  0  0
 33 18  1  0  0  0  0
 34 19  1  0  0  0  0
M  RAD  1  12   2
M  END
$$$$
