45
rmsd100.gzmat
N          0.00000        0.00000        0.00000
C          1.35790        0.00000        0.00000
N          2.17020        0.00000        1.07530
C          1.51030       -0.00130        2.26440
C          0.08040        0.00340        2.39910
C         -0.66730        0.00000        1.19250
N         -2.02650       -0.00170        1.16950
N         -0.25990        0.01030        3.75080
C          0.88700        0.01000        4.42680
N          2.00700       -0.02380        3.55680
C          3.41040        0.04650        3.93190
C          3.87290        1.50450        4.08260
C          3.28220        2.11970        5.33230
O          2.66860        1.47370        6.16040
N          3.43010        3.48880        5.45510
C          3.05140        4.13200        6.71830
C          4.15030        3.98110        7.80030
C          5.48220        4.29460        7.24770
C          6.08240        5.53840        7.13980
N          7.31510        5.41000        6.48770
H          7.96250        6.14350        6.32090
C          7.51540        4.06480        6.18710
C          6.37880        3.33460        6.65930
C          6.33470        1.94740        6.48350
C          7.38170        1.32770        5.82870
C          8.48960        2.06460        5.35350
C          8.57950        3.43180        5.52810
H          1.83990        0.00100       -0.99300
H         -2.52290       -0.00920        0.30130
H         -2.53790       -0.00500        2.03140
H          1.00320        0.03810        5.50590
H          4.02080       -0.46560        3.14550
H          3.55600       -0.50710        4.89290
H          3.59210        2.08900        3.17960
H          4.98310        1.54170        4.13240
H          4.13290        3.97540        4.91680
H          2.09840        3.68150        7.08610
H          2.85650        5.20740        6.51380
H          4.12980        2.94050        8.19520
H          3.90660        4.62800        8.66610
H          5.72890        6.49700        7.46940
H          5.48700        1.37930        6.86750
H          7.36940        0.24980        5.67930
H          9.28960        1.53090        4.84110
H          9.43370        3.99750        5.17410
