
     RDKit          3D

 45 48  0  0  0  0  0  0  0  0999 V2000
    0.1836    0.0658   -0.0674 N   0  0  0  0  0  0  0  0  0  0  0  0
    1.5183    0.1134    0.0596 C   0  0  0  0  0  0  0  0  0  0  0  0
    2.2420    0.1018    1.1802 N   0  0  0  0  0  0  0  0  0  0  0  0
    1.4726    0.0170    2.2712 C   0  0  0  0  0  0  0  0  0  0  0  0
    0.0715   -0.0561    2.2967 C   0  0  0  0  0  0  0  0  0  0  0  0
   -0.5702   -0.0134    1.0415 C   0  0  0  0  0  0  0  0  0  0  0  0
   -1.9215   -0.0007    0.9304 N   0  0  0  0  0  0  0  0  0  0  0  0
   -0.3957   -0.1076    3.5928 N   0  0  0  0  0  0  0  0  0  0  0  0
    0.6874   -0.0692    4.3333 C   0  0  0  0  0  0  0  0  0  0  0  0
    1.8568   -0.0043    3.5937 N   0  0  0  0  0  0  0  0  0  0  0  0
    3.2315   -0.0081    4.0642 C   0  0  0  0  0  0  0  0  0  0  0  0
    3.8268    1.3852    4.2372 C   0  0  0  0  0  0  0  0  0  0  0  0
    3.2696    2.1017    5.4617 C   0  0  0  0  0  0  0  0  0  0  0  0
    2.4485    1.5733    6.1984 O   0  0  0  0  0  0  0  0  0  0  0  0
    3.7492    3.3517    5.7253 N   0  0  0  0  0  0  0  0  0  0  0  0
    4.6918    4.1477    4.9634 C   0  0  0  0  0  0  0  0  0  0  0  0
    4.0449    5.1833    4.0233 C   0  0  0  0  0  0  0  0  0  0  0  0
    3.2143    4.5889    2.9267 C   0  0  0  0  0  0  0  0  0  0  0  0
    3.6303    4.3039    1.6424 C   0  0  0  0  0  0  0  0  0  0  0  0
    2.5950    3.7395    0.9262 N   0  0  0  0  0  0  0  0  0  0  0  0
    2.6603    3.3817   -0.0164 H   0  0  0  0  0  0  0  0  0  0  0  0
    1.4818    3.6393    1.7324 C   0  0  0  0  0  0  0  0  0  0  0  0
    1.8374    4.1570    3.0123 C   0  0  0  0  0  0  0  0  0  0  0  0
    0.8731    4.1458    4.0389 C   0  0  0  0  0  0  0  0  0  0  0  0
   -0.3933    3.6396    3.7704 C   0  0  0  0  0  0  0  0  0  0  0  0
   -0.7268    3.1503    2.4889 C   0  0  0  0  0  0  0  0  0  0  0  0
    0.2012    3.1474    1.4539 C   0  0  0  0  0  0  0  0  0  0  0  0
    2.0809    0.1723   -0.8805 H   0  0  0  0  0  0  0  0  0  0  0  0
   -2.3314   -0.0938    0.0107 H   0  0  0  0  0  0  0  0  0  0  0  0
   -2.4779   -0.1900    1.7531 H   0  0  0  0  0  0  0  0  0  0  0  0
    0.7283   -0.0524    5.4208 H   0  0  0  0  0  0  0  0  0  0  0  0
    3.8189   -0.5592    3.3167 H   0  0  0  0  0  0  0  0  0  0  0  0
    3.2647   -0.5543    5.0159 H   0  0  0  0  0  0  0  0  0  0  0  0
    3.6523    1.9876    3.3337 H   0  0  0  0  0  0  0  0  0  0  0  0
    4.9212    1.2920    4.3432 H   0  0  0  0  0  0  0  0  0  0  0  0
    3.3161    3.7795    6.5386 H   0  0  0  0  0  0  0  0  0  0  0  0
    5.3347    3.4775    4.3765 H   0  0  0  0  0  0  0  0  0  0  0  0
    5.3535    4.6700    5.6755 H   0  0  0  0  0  0  0  0  0  0  0  0
    4.8572    5.7915    3.5911 H   0  0  0  0  0  0  0  0  0  0  0  0
    3.4308    5.8728    4.6283 H   0  0  0  0  0  0  0  0  0  0  0  0
    4.6000    4.4745    1.1776 H   0  0  0  0  0  0  0  0  0  0  0  0
    1.1207    4.5146    5.0361 H   0  0  0  0  0  0  0  0  0  0  0  0
   -1.1418    3.6066    4.5647 H   0  0  0  0  0  0  0  0  0  0  0  0
   -1.7209    2.7363    2.3107 H   0  0  0  0  0  0  0  0  0  0  0  0
   -0.0501    2.7485    0.4702 H   0  0  0  0  0  0  0  0  0  0  0  0
  1  2  2  0
  1  6  1  0
  2  3  1  0
  2 28  1  0
  3  4  2  0
  4  5  1  0
  4 10  1  0
  5  6  2  0
  5  8  1  0
  6  7  1  0
  7 29  1  0
  7 30  1  0
  8  9  2  0
  9 10  1  0
  9 31  1  0
 10 11  1  0
 11 12  1  0
 11 32  1  0
 11 33  1  0
 12 13  1  0
 12 34  1  0
 12 35  1  0
 13 14  2  0
 13 15  1  0
 15 16  1  0
 15 36  1  0
 16 17  1  0
 16 37  1  0
 16 38  1  0
 17 18  1  0
 17 39  1  0
 17 40  1  0
 18 19  2  0
 18 23  1  0
 19 20  1  0
 19 41  1  0
 20 21  1  0
 20 22  1  0
 22 23  2  0
 22 27  1  0
 23 24  1  0
 24 25  2  0
 24 42  1  0
 25 26  1  0
 25 43  1  0
 26 27  2  0
 26 44  1  0
 27 45  1  0
M  END

