
     RDKit          3D

 45 48  0  0  0  0  0  0  0  0999 V2000
    0.2678   -0.1485   -0.2399 N   0  0  0  0  0  0  0  0  0  0  0  0
    1.6017   -0.0562   -0.1294 C   0  0  0  0  0  0  0  0  0  0  0  0
    2.3349   -0.0028    0.9839 N   0  0  0  0  0  0  0  0  0  0  0  0
    1.5779   -0.0661    2.0837 C   0  0  0  0  0  0  0  0  0  0  0  0
    0.1794   -0.1765    2.1296 C   0  0  0  0  0  0  0  0  0  0  0  0
   -0.4769   -0.2133    0.8766 C   0  0  0  0  0  0  0  0  0  0  0  0
   -1.8200   -0.3125    0.7737 N   0  0  0  0  0  0  0  0  0  0  0  0
   -0.2697   -0.1992    3.4346 N   0  0  0  0  0  0  0  0  0  0  0  0
    0.8222   -0.1103    4.1602 C   0  0  0  0  0  0  0  0  0  0  0  0
    1.9795   -0.0314    3.4018 N   0  0  0  0  0  0  0  0  0  0  0  0
    3.3438    0.1833    3.8577 C   0  0  0  0  0  0  0  0  0  0  0  0
    3.6274    1.6605    4.1249 C   0  0  0  0  0  0  0  0  0  0  0  0
    2.8160    2.1547    5.3208 C   0  0  0  0  0  0  0  0  0  0  0  0
    2.6006    1.4292    6.2838 O   0  0  0  0  0  0  0  0  0  0  0  0
    2.3683    3.4334    5.2327 N   0  0  0  0  0  0  0  0  0  0  0  0
    1.4924    4.0279    6.2245 C   0  0  0  0  0  0  0  0  0  0  0  0
    0.0561    4.2219    5.7034 C   0  0  0  0  0  0  0  0  0  0  0  0
   -0.0078    5.0858    4.4780 C   0  0  0  0  0  0  0  0  0  0  0  0
   -0.1761    6.4533    4.4350 C   0  0  0  0  0  0  0  0  0  0  0  0
   -0.0908    6.9000    3.1300 N   0  0  0  0  0  0  0  0  0  0  0  0
   -0.2019    7.8592    2.8328 H   0  0  0  0  0  0  0  0  0  0  0  0
    0.1346    5.8288    2.2932 C   0  0  0  0  0  0  0  0  0  0  0  0
    0.1920    4.6603    3.1098 C   0  0  0  0  0  0  0  0  0  0  0  0
    0.3939    3.4077    2.4946 C   0  0  0  0  0  0  0  0  0  0  0  0
    0.5474    3.3517    1.1132 C   0  0  0  0  0  0  0  0  0  0  0  0
    0.4997    4.5237    0.3264 C   0  0  0  0  0  0  0  0  0  0  0  0
    0.2894    5.7734    0.9015 C   0  0  0  0  0  0  0  0  0  0  0  0
    2.1532   -0.0111   -1.0759 H   0  0  0  0  0  0  0  0  0  0  0  0
   -2.2459   -0.2585   -0.1414 H   0  0  0  0  0  0  0  0  0  0  0  0
   -2.3873   -0.2803    1.6091 H   0  0  0  0  0  0  0  0  0  0  0  0
    0.8753   -0.0787    5.2481 H   0  0  0  0  0  0  0  0  0  0  0  0
    4.0080   -0.1995    3.0716 H   0  0  0  0  0  0  0  0  0  0  0  0
    3.4999   -0.3892    4.7816 H   0  0  0  0  0  0  0  0  0  0  0  0
    3.4267    2.2569    3.2213 H   0  0  0  0  0  0  0  0  0  0  0  0
    4.6965    1.7799    4.3710 H   0  0  0  0  0  0  0  0  0  0  0  0
    2.4874    3.9262    4.3545 H   0  0  0  0  0  0  0  0  0  0  0  0
    1.9025    5.0037    6.5354 H   0  0  0  0  0  0  0  0  0  0  0  0
    1.5016    3.3565    7.0938 H   0  0  0  0  0  0  0  0  0  0  0  0
   -0.5435    4.6680    6.5135 H   0  0  0  0  0  0  0  0  0  0  0  0
   -0.3796    3.2318    5.4906 H   0  0  0  0  0  0  0  0  0  0  0  0
   -0.3575    7.1514    5.2505 H   0  0  0  0  0  0  0  0  0  0  0  0
    0.4101    2.4940    3.0901 H   0  0  0  0  0  0  0  0  0  0  0  0
    0.6965    2.3906    0.6220 H   0  0  0  0  0  0  0  0  0  0  0  0
    0.6242    4.4444   -0.7559 H   0  0  0  0  0  0  0  0  0  0  0  0
    0.2446    6.6774    0.2894 H   0  0  0  0  0  0  0  0  0  0  0  0
  1  2  2  0
  1  6  1  0
  2  3  1  0
  2 28  1  0
  3  4  2  0
  4  5  1  0
  4 10  1  0
  5  6  2  0
  5  8  1  0
  6  7  1  0
  7 29  1  0
  7 30  1  0
  8  9  2  0
  9 10  1  0
  9 31  1  0
 10 11  1  0
 11 12  1  0
 11 32  1  0
 11 33  1  0
 12 13  1  0
 12 34  1  0
 12 35  1  0
 13 14  2  0
 13 15  1  0
 15 16  1  0
 15 36  1  0
 16 17  1  0
 16 37  1  0
 16 38  1  0
 17 18  1  0
 17 39  1  0
 17 40  1  0
 18 19  2  0
 18 23  1  0
 19 20  1  0
 19 41  1  0
 20 21  1  0
 20 22  1  0
 22 23  2  0
 22 27  1  0
 23 24  1  0
 24 25  2  0
 24 42  1  0
 25 26  1  0
 25 43  1  0
 26 27  2  0
 26 44  1  0
 27 45  1  0
M  END

