rmsd128.gzmat
 OpenBabel08211713373D

 45 48  0  0  0  0  0  0  0  0999 V2000
    0.0000    0.0000    0.0000 N   0  0  0  0  0  0  0  0  0  0  0  0
    1.3579    0.0000    0.0000 C   0  0  0  0  0  0  0  0  0  0  0  0
    2.1693    0.0000    1.0760 N   0  0  0  0  0  0  0  0  0  0  0  0
    1.5083   -0.0022    2.2644 C   0  0  0  0  0  0  0  0  0  0  0  0
    0.0785    0.0009    2.3996 C   0  0  0  0  0  0  0  0  0  0  0  0
   -0.6679   -0.0004    1.1925 C   0  0  0  0  0  0  0  0  0  0  0  0
   -2.0269   -0.0019    1.1664 N   0  0  0  0  0  0  0  0  0  0  0  0
   -0.2609    0.0114    3.7518 N   0  0  0  0  0  0  0  0  0  0  0  0
    0.8865    0.0177    4.4271 C   0  0  0  0  0  0  0  0  0  0  0  0
    2.0059   -0.0197    3.5568 N   0  0  0  0  0  0  0  0  0  0  0  0
    3.4085    0.0891    3.9258 C   0  0  0  0  0  0  0  0  0  0  0  0
    3.8300    1.5618    4.0451 C   0  0  0  0  0  0  0  0  0  0  0  0
    3.2633    2.1739    5.3084 C   0  0  0  0  0  0  0  0  0  0  0  0
    2.7362    1.5142    6.1842 O   0  0  0  0  0  0  0  0  0  0  0  0
    3.3353    3.5506    5.3857 N   0  0  0  0  0  0  0  0  0  0  0  0
    3.0286    4.2241    6.6520 C   0  0  0  0  0  0  0  0  0  0  0  0
    4.2986    4.4113    7.5218 C   0  0  0  0  0  0  0  0  0  0  0  0
    5.4230    4.9102    6.7060 C   0  0  0  0  0  0  0  0  0  0  0  0
    5.7252    6.2261    6.3961 C   0  0  0  0  0  0  0  0  0  0  0  0
    6.8230    6.2641    5.5283 N   0  0  0  0  0  0  0  0  0  0  0  0
    7.2549    7.0845    5.1739 H   0  0  0  0  0  0  0  0  0  0  0  0
    7.2411    4.9569    5.2901 C   0  0  0  0  0  0  0  0  0  0  0  0
    6.3795    4.0797    6.0220 C   0  0  0  0  0  0  0  0  0  0  0  0
    6.5887    2.6981    5.9511 C   0  0  0  0  0  0  0  0  0  0  0  0
    7.6136    2.2216    5.1564 C   0  0  0  0  0  0  0  0  0  0  0  0
    8.4512    3.1003    4.4331 C   0  0  0  0  0  0  0  0  0  0  0  0
    8.2843    4.4703    4.4886 C   0  0  0  0  0  0  0  0  0  0  0  0
    1.8418    0.0028   -0.9921 H   0  0  0  0  0  0  0  0  0  0  0  0
   -2.5203   -0.0013    0.2965 H   0  0  0  0  0  0  0  0  0  0  0  0
   -2.5414   -0.0011    2.0261 H   0  0  0  0  0  0  0  0  0  0  0  0
    1.0047    0.0529    5.5054 H   0  0  0  0  0  0  0  0  0  0  0  0
    4.0273   -0.4224    3.1454 H   0  0  0  0  0  0  0  0  0  0  0  0
    3.5724   -0.4429    4.8960 H   0  0  0  0  0  0  0  0  0  0  0  0
    3.5025    2.1251    3.1442 H   0  0  0  0  0  0  0  0  0  0  0  0
    4.9390    1.6382    4.0556 H   0  0  0  0  0  0  0  0  0  0  0  0
    3.9403    4.0691    4.7621 H   0  0  0  0  0  0  0  0  0  0  0  0
    2.2673    3.6341    7.2154 H   0  0  0  0  0  0  0  0  0  0  0  0
    2.5763    5.2127    6.4152 H   0  0  0  0  0  0  0  0  0  0  0  0
    4.5655    3.4414    7.9962 H   0  0  0  0  0  0  0  0  0  0  0  0
    4.0714    5.0961    8.3630 H   0  0  0  0  0  0  0  0  0  0  0  0
    5.2447    7.1301    6.7195 H   0  0  0  0  0  0  0  0  0  0  0  0
    5.9511    2.0246    6.5226 H   0  0  0  0  0  0  0  0  0  0  0  0
    7.7968    1.1510    5.0860 H   0  0  0  0  0  0  0  0  0  0  0  0
    9.2482    2.6768    3.8222 H   0  0  0  0  0  0  0  0  0  0  0  0
    8.9303    5.1469    3.9405 H   0  0  0  0  0  0  0  0  0  0  0  0
  1  2  2  0  0  0  0
  1  6  2  0  0  0  0
  2  3  2  0  0  0  0
  3  4  2  0  0  0  0
  4  5  1  0  0  0  0
  4 10  1  0  0  0  0
  5  8  2  0  0  0  0
  6  5  1  0  0  0  0
  7  6  1  0  0  0  0
  7 30  1  0  0  0  0
  8  9  2  0  0  0  0
  9 31  1  0  0  0  0
 10 11  1  0  0  0  0
 10  9  1  0  0  0  0
 11 12  1  0  0  0  0
 11 33  1  0  0  0  0
 12 35  1  0  0  0  0
 12 13  1  0  0  0  0
 13 15  1  0  0  0  0
 13 14  2  0  0  0  0
 15 16  1  0  0  0  0
 16 37  1  0  0  0  0
 16 17  1  0  0  0  0
 17 39  1  0  0  0  0
 17 40  1  0  0  0  0
 18 17  1  0  0  0  0
 19 18  2  0  0  0  0
 19 41  1  0  0  0  0
 20 19  1  0  0  0  0
 21 20  1  0  0  0  0
 22 20  1  0  0  0  0
 22 23  2  0  0  0  0
 23 18  1  0  0  0  0
 24 23  1  0  0  0  0
 24 42  1  0  0  0  0
 25 24  2  0  0  0  0
 26 27  2  0  0  0  0
 26 25  1  0  0  0  0
 27 22  1  0  0  0  0
 28  2  1  0  0  0  0
 29  7  1  0  0  0  0
 32 11  1  0  0  0  0
 34 12  1  0  0  0  0
 36 15  1  0  0  0  0
 38 16  1  0  0  0  0
 43 25  1  0  0  0  0
 44 26  1  0  0  0  0
 45 27  1  0  0  0  0
M  END
$$$$
