45

N          1.64330       -1.86380        0.38970
C          2.89910       -1.76750        0.84350
N          3.32450       -1.19160        1.97270
C          2.31680       -0.67470        2.68810
C          0.95550       -0.71420        2.34760
C          0.64230       -1.34690        1.12120
N         -0.62720       -1.44860        0.67300
N          0.18410       -0.11680        3.32330
C          1.04990        0.27250        4.22700
N          2.36280       -0.02140        3.90210
C          3.54890        0.24380        4.70170
C          4.27050       -1.04930        5.07700
C          3.33480       -1.94560        5.88280
O          2.71460       -1.49180        6.83400
N          3.20810       -3.24420        5.49240
C          3.82510       -3.91580        4.35790
C          5.27540       -4.36600        4.61110
C          5.88080       -5.07040        3.43600
C          6.21960       -6.40280        3.35590
N          6.73930       -6.68530        2.10700
H          7.07140       -7.58980        1.80330
C          6.74820       -5.53670        1.34570
C          6.20810       -4.49060        2.15140
C          6.10300       -3.19680        1.60540
C          6.53220       -2.97950        0.29950
C          7.06520       -4.02910       -0.48010
C          7.17950       -5.31890        0.03050
H          3.67250       -2.22620        0.21770
H         -0.80280       -1.91070       -0.20850
H         -1.38490       -1.06300        1.21860
H          0.81160        0.76990        5.16750
H          3.21900        0.75860        5.61350
H          4.22470        0.90770        4.14060
H          5.12620       -0.80050        5.72520
H          4.66120       -1.52780        4.17300
H          2.59250       -3.78310        6.09410
H          3.78010       -3.26740        3.47110
H          3.21030       -4.79660        4.11980
H          5.29610       -5.02000        5.49800
H          5.87710       -3.47670        4.86820
H          6.13510       -7.18100        4.11260
H          5.66730       -2.37430        2.17520
H          6.45110       -1.97920       -0.13210
H          7.39140       -3.82630       -1.50290
H          7.59020       -6.13160       -0.57360
