45
rmsd158.gzmat
N          0.00000        0.00000        0.00000
C          1.35890        0.00000        0.00000
N          2.17260        0.00000        1.07230
C          1.51360       -0.00780        2.26310
C          0.08330       -0.01140        2.39840
C         -0.66430       -0.00330        1.19310
N         -2.02600        0.02080        1.17400
N         -0.25660       -0.01710        3.74940
C          0.89080       -0.01930        4.42550
N          2.00950       -0.03850        3.55470
C          3.41480       -0.03350        3.92640
C          3.91970        1.39180        4.19710
C          3.46150        1.87170        5.55000
O          2.76570        1.19370        6.28730
N          3.87790        3.10320        6.01460
C          4.60170        4.09140        5.21780
C          3.65410        5.07840        4.49650
C          3.12680        4.52440        3.23420
C          3.82390        4.33990        2.04770
N          2.96280        3.83200        1.07290
H          3.21970        3.55830        0.15370
C          1.69680        3.68750        1.63710
C          1.77120        4.10600        3.00290
C          0.62170        4.03950        3.79980
C         -0.55510        3.59650        3.22940
C         -0.61670        3.21360        1.87020
C          0.49900        3.24480        1.05820
H          1.83900       -0.00640       -0.99300
H         -2.52360       -0.03760        0.30900
H         -2.53120       -0.04210        2.03740
H          1.00720       -0.00250        5.50570
H          4.00720       -0.49250        3.09430
H          3.54960       -0.67200        4.83570
H          3.54330        2.08210        3.40290
H          5.02430        1.41830        4.11910
H          3.49100        3.42670        6.89320
H          5.26250        3.58800        4.47920
H          5.27520        4.65800        5.90310
H          4.19770        6.02730        4.30060
H          2.81900        5.35980        5.17360
H          4.85260        4.54380        1.82320
H          0.66820        4.32570        4.84750
H         -1.45980        3.52380        3.83130
H         -1.57060        2.87600        1.46460
H          0.45740        2.93540        0.01870
