rmsd120.gzmat
 OpenBabel08211713373D

 45 48  0  0  0  0  0  0  0  0999 V2000
    0.0000    0.0000    0.0000 N   0  0  0  0  0  0  0  0  0  0  0  0
    1.3586    0.0000    0.0000 C   0  0  0  0  0  0  0  0  0  0  0  0
    2.1719    0.0000    1.0726 N   0  0  0  0  0  0  0  0  0  0  0  0
    1.5118   -0.0052    2.2630 C   0  0  0  0  0  0  0  0  0  0  0  0
    0.0816   -0.0066    2.3987 C   0  0  0  0  0  0  0  0  0  0  0  0
   -0.6653   -0.0037    1.1934 C   0  0  0  0  0  0  0  0  0  0  0  0
   -2.0263    0.0114    1.1704 N   0  0  0  0  0  0  0  0  0  0  0  0
   -0.2576    0.0019    3.7501 N   0  0  0  0  0  0  0  0  0  0  0  0
    0.8902    0.0065    4.4257 C   0  0  0  0  0  0  0  0  0  0  0  0
    2.0082   -0.0287    3.5541 N   0  0  0  0  0  0  0  0  0  0  0  0
    3.4141   -0.0193    3.9226 C   0  0  0  0  0  0  0  0  0  0  0  0
    3.9358    1.4128    4.1133 C   0  0  0  0  0  0  0  0  0  0  0  0
    3.4853    1.9704    5.4389 C   0  0  0  0  0  0  0  0  0  0  0  0
    2.7641    1.3501    6.2019 O   0  0  0  0  0  0  0  0  0  0  0  0
    3.9444    3.2066    5.8485 N   0  0  0  0  0  0  0  0  0  0  0  0
    4.6916    4.1354    5.0033 C   0  0  0  0  0  0  0  0  0  0  0  0
    3.7709    5.1415    4.2745 C   0  0  0  0  0  0  0  0  0  0  0  0
    3.1176    4.5430    3.0938 C   0  0  0  0  0  0  0  0  0  0  0  0
    3.6940    4.2992    1.8547 C   0  0  0  0  0  0  0  0  0  0  0  0
    2.7347    3.7729    0.9872 N   0  0  0  0  0  0  0  0  0  0  0  0
    2.8994    3.4471    0.0635 H   0  0  0  0  0  0  0  0  0  0  0  0
    1.5284    3.6687    1.6777 C   0  0  0  0  0  0  0  0  0  0  0  0
    1.7411    4.1374    3.0122 C   0  0  0  0  0  0  0  0  0  0  0  0
    0.6748    4.1180    3.9192 C   0  0  0  0  0  0  0  0  0  0  0  0
   -0.5557    3.6657    3.4860 C   0  0  0  0  0  0  0  0  0  0  0  0
   -0.7555    3.2355    2.1549 C   0  0  0  0  0  0  0  0  0  0  0  0
    0.2743    3.2250    1.2358 C   0  0  0  0  0  0  0  0  0  0  0  0
    1.8386   -0.0016   -0.9930 H   0  0  0  0  0  0  0  0  0  0  0  0
   -2.5212   -0.0334    0.3030 H   0  0  0  0  0  0  0  0  0  0  0  0
   -2.5355   -0.0354    2.0324 H   0  0  0  0  0  0  0  0  0  0  0  0
    1.0086    0.0423    5.5049 H   0  0  0  0  0  0  0  0  0  0  0  0
    3.9991   -0.5288    3.1151 H   0  0  0  0  0  0  0  0  0  0  0  0
    3.5442   -0.6095    4.8645 H   0  0  0  0  0  0  0  0  0  0  0  0
    3.5649    2.0644    3.2842 H   0  0  0  0  0  0  0  0  0  0  0  0
    5.0406    1.4211    4.0328 H   0  0  0  0  0  0  0  0  0  0  0  0
    3.5644    3.5846    6.7085 H   0  0  0  0  0  0  0  0  0  0  0  0
    5.3092    3.5814    4.2635 H   0  0  0  0  0  0  0  0  0  0  0  0
    5.4074    4.6909    5.6539 H   0  0  0  0  0  0  0  0  0  0  0  0
    4.3688    6.0286    3.9753 H   0  0  0  0  0  0  0  0  0  0  0  0
    3.0075    5.5324    4.9812 H   0  0  0  0  0  0  0  0  0  0  0  0
    4.6997    4.4740    1.5255 H   0  0  0  0  0  0  0  0  0  0  0  0
    0.8265    4.4467    4.9438 H   0  0  0  0  0  0  0  0  0  0  0  0
   -1.3962    3.6249    4.1771 H   0  0  0  0  0  0  0  0  0  0  0  0
   -1.7478    2.8954    1.8598 H   0  0  0  0  0  0  0  0  0  0  0  0
    0.1264    2.8852    0.2157 H   0  0  0  0  0  0  0  0  0  0  0  0
  1  6  2  0  0  0  0
  2  1  2  0  0  0  0
  2  3  2  0  0  0  0
  3  4  2  0  0  0  0
  4  5  1  0  0  0  0
  4 10  1  0  0  0  0
  5  8  2  0  0  0  0
  6  5  1  0  0  0  0
  7  6  1  0  0  0  0
  7 30  1  0  0  0  0
  8  9  2  0  0  0  0
  9 31  1  0  0  0  0
 10 11  1  0  0  0  0
 10  9  1  0  0  0  0
 11 12  1  0  0  0  0
 11 33  1  0  0  0  0
 12 13  1  0  0  0  0
 13 15  1  0  0  0  0
 13 14  2  0  0  0  0
 15 36  1  0  0  0  0
 16 38  1  0  0  0  0
 16 15  1  0  0  0  0
 17 40  1  0  0  0  0
 17 16  1  0  0  0  0
 18 17  1  0  0  0  0
 19 18  2  0  0  0  0
 20 22  1  0  0  0  0
 20 19  1  0  0  0  0
 21 20  1  0  0  0  0
 22 23  1  0  0  0  0
 23 18  1  0  0  0  0
 23 24  2  0  0  0  0
 24 42  1  0  0  0  0
 25 24  1  0  0  0  0
 25 43  1  0  0  0  0
 26 25  2  0  0  0  0
 27 22  2  0  0  0  0
 27 26  1  0  0  0  0
 28  2  1  0  0  0  0
 29  7  1  0  0  0  0
 32 11  1  0  0  0  0
 34 12  1  0  0  0  0
 35 12  1  0  0  0  0
 37 16  1  0  0  0  0
 39 17  1  0  0  0  0
 41 19  1  0  0  0  0
 44 26  1  0  0  0  0
 45 27  1  0  0  0  0
M  END
$$$$
