rmsd71.gzmat
 OpenBabel08211713373D

 45 48  0  0  0  0  0  0  0  0999 V2000
    0.0000    0.0000    0.0000 N   0  0  0  0  0  0  0  0  0  0  0  0
    1.3567    0.0000    0.0000 C   0  0  0  0  0  0  0  0  0  0  0  0
    2.1698    0.0000    1.0759 N   0  0  0  0  0  0  0  0  0  0  0  0
    1.5095   -0.0210    2.2638 C   0  0  0  0  0  0  0  0  0  0  0  0
    0.0792   -0.0312    2.3993 C   0  0  0  0  0  0  0  0  0  0  0  0
   -0.6693   -0.0085    1.1927 C   0  0  0  0  0  0  0  0  0  0  0  0
   -2.0264    0.0083    1.1670 N   0  0  0  0  0  0  0  0  0  0  0  0
   -0.2609   -0.0480    3.7505 N   0  0  0  0  0  0  0  0  0  0  0  0
    0.8858   -0.0448    4.4262 C   0  0  0  0  0  0  0  0  0  0  0  0
    2.0079   -0.0457    3.5559 N   0  0  0  0  0  0  0  0  0  0  0  0
    3.4028    0.1191    3.9362 C   0  0  0  0  0  0  0  0  0  0  0  0
    3.7460    1.6078    4.1285 C   0  0  0  0  0  0  0  0  0  0  0  0
    2.9117    2.1584    5.2683 C   0  0  0  0  0  0  0  0  0  0  0  0
    2.7048    1.5116    6.2795 O   0  0  0  0  0  0  0  0  0  0  0  0
    2.4126    3.4296    5.1114 N   0  0  0  0  0  0  0  0  0  0  0  0
    1.4047    3.9381    6.0500 C   0  0  0  0  0  0  0  0  0  0  0  0
   -0.0065    3.9005    5.4156 C   0  0  0  0  0  0  0  0  0  0  0  0
   -0.0951    4.8498    4.2887 C   0  0  0  0  0  0  0  0  0  0  0  0
   -0.5036    6.1728    4.3441 C   0  0  0  0  0  0  0  0  0  0  0  0
   -0.3932    6.7532    3.0749 N   0  0  0  0  0  0  0  0  0  0  0  0
   -0.6004    7.6960    2.8484 H   0  0  0  0  0  0  0  0  0  0  0  0
    0.0983    5.7925    2.1938 C   0  0  0  0  0  0  0  0  0  0  0  0
    0.2818    4.5770    2.9270 C   0  0  0  0  0  0  0  0  0  0  0  0
    0.7495    3.4426    2.2559 C   0  0  0  0  0  0  0  0  0  0  0  0
    1.0519    3.5403    0.9120 C   0  0  0  0  0  0  0  0  0  0  0  0
    0.8809    4.7519    0.2065 C   0  0  0  0  0  0  0  0  0  0  0  0
    0.4002    5.8883    0.8276 C   0  0  0  0  0  0  0  0  0  0  0  0
    1.8404    0.0076   -0.9922 H   0  0  0  0  0  0  0  0  0  0  0  0
   -2.5208    0.0436    0.2981 H   0  0  0  0  0  0  0  0  0  0  0  0
   -2.5420    0.0179    2.0269 H   0  0  0  0  0  0  0  0  0  0  0  0
    1.0018   -0.0449    5.5049 H   0  0  0  0  0  0  0  0  0  0  0  0
    4.0521   -0.3246    3.1404 H   0  0  0  0  0  0  0  0  0  0  0  0
    3.5896   -0.4447    4.8843 H   0  0  0  0  0  0  0  0  0  0  0  0
    3.5958    2.1615    3.1802 H   0  0  0  0  0  0  0  0  0  0  0  0
    4.8222    1.7174    4.3760 H   0  0  0  0  0  0  0  0  0  0  0  0
    2.4630    3.9175    4.2258 H   0  0  0  0  0  0  0  0  0  0  0  0
    1.6761    4.9815    6.3248 H   0  0  0  0  0  0  0  0  0  0  0  0
    1.4204    3.3338    6.9873 H   0  0  0  0  0  0  0  0  0  0  0  0
   -0.7639    4.1256    6.1935 H   0  0  0  0  0  0  0  0  0  0  0  0
   -0.2409    2.8659    5.0776 H   0  0  0  0  0  0  0  0  0  0  0  0
   -0.8642    6.7397    5.1806 H   0  0  0  0  0  0  0  0  0  0  0  0
    0.8528    2.5019    2.7927 H   0  0  0  0  0  0  0  0  0  0  0  0
    1.4229    2.6701    0.3716 H   0  0  0  0  0  0  0  0  0  0  0  0
    1.1314    4.7762   -0.8536 H   0  0  0  0  0  0  0  0  0  0  0  0
    0.2589    6.8169    0.2878 H   0  0  0  0  0  0  0  0  0  0  0  0
  1  6  2  0  0  0  0
  2  1  2  0  0  0  0
  2  3  2  0  0  0  0
  3  4  2  0  0  0  0
  4  5  1  0  0  0  0
  4 10  1  0  0  0  0
  5  8  2  0  0  0  0
  6  5  1  0  0  0  0
  7  6  1  0  0  0  0
  7 30  1  0  0  0  0
  8  9  2  0  0  0  0
  9 31  1  0  0  0  0
 10 11  1  0  0  0  0
 10  9  1  0  0  0  0
 11 12  1  0  0  0  0
 11 33  1  0  0  0  0
 12 35  1  0  0  0  0
 12 13  1  0  0  0  0
 13 14  2  0  0  0  0
 15 13  1  0  0  0  0
 15 16  1  0  0  0  0
 16 37  1  0  0  0  0
 16 38  1  0  0  0  0
 17 16  1  0  0  0  0
 17 39  1  0  0  0  0
 18 19  2  0  0  0  0
 18 17  1  0  0  0  0
 19 41  1  0  0  0  0
 20 19  1  0  0  0  0
 21 20  1  0  0  0  0
 22 23  2  0  0  0  0
 22 20  1  0  0  0  0
 23 18  1  0  0  0  0
 24 42  1  0  0  0  0
 24 23  1  0  0  0  0
 25 24  2  0  0  0  0
 26 27  2  0  0  0  0
 26 25  1  0  0  0  0
 27 22  1  0  0  0  0
 28  2  1  0  0  0  0
 29  7  1  0  0  0  0
 32 11  1  0  0  0  0
 34 12  1  0  0  0  0
 36 15  1  0  0  0  0
 40 17  1  0  0  0  0
 43 25  1  0  0  0  0
 44 26  1  0  0  0  0
 45 27  1  0  0  0  0
M  END
$$$$
