67
rmsd95.gzmat
O          0.00000        0.00000        0.00000
C          1.35240        0.00000        0.00000
C          2.06730        0.00000        1.18190
C          3.48590        0.01820        1.12570
N          4.18300       -0.00920        2.28620
C          5.64530        0.10560        2.33590
H          6.08840       -0.43600        1.44460
C          5.99080        1.61680        2.30530
O          5.22860        2.41560        2.80570
N          7.18450        2.04870        1.75930
S          8.32850        1.14170        0.75480
O          7.45900        0.36580       -0.10310
O          9.20540        2.16160        0.26360
C          9.09560        0.06240        1.88750
C          9.85880        0.55420        2.94080
C         10.38320       -0.33680        3.88330
C         10.13860       -1.69690        3.78480
C          9.37580       -2.19380        2.70710
N          9.16790       -3.56940        2.57590
C          8.87400       -1.30340        1.74130
C          6.14240       -0.51870        3.61860
C          6.29840       -1.89550        3.70490
F          5.97840       -2.67800        2.68770
C          6.80840       -2.51190        4.87250
O          6.95580       -3.84810        4.75590
C          7.33370       -4.59340        5.91910
C          8.83740       -4.55100        6.11710
C          7.12770       -1.73610        5.97450
C          6.95460       -0.34190        5.88310
O          7.34040        0.29720        7.00390
C          7.19980        1.71810        7.08550
C          5.75940        2.09670        7.37110
C          6.46300        0.26740        4.72740
C          4.12010        0.03940       -0.16000
C          3.37510        0.03280       -1.30350
C          1.95270       -0.00130       -1.28150
C          1.18940       -0.02810       -2.50040
N         -0.03690        0.54410       -2.59010
H         -0.62290        0.46920       -3.40230
H         -0.46910        0.93650       -1.76080
N          1.69910       -0.60800       -3.62320
H         -0.39770       -0.04390        0.91100
H          1.56010       -0.00680        2.14190
H          3.70740        0.10580        3.17770
H          7.32570        3.07010        1.79590
H         10.06560        1.62000        3.05280
H         10.98660        0.04630        4.70830
H         10.54230       -2.38570        4.52410
H          8.52680       -3.86350        1.85870
H          9.04130       -4.08730        3.42940
H          8.30940       -1.70570        0.89510
H          6.97130       -5.60330        5.63160
H          6.76910       -4.24820        6.80260
H          9.37560       -5.06290        5.30910
H          9.12680       -5.04950        7.05460
H          9.21950       -3.52350        6.16990
H          7.50890       -2.16040        6.90160
H          7.60970        2.20220        6.18410
H          7.86930        1.92590        7.94790
H          5.09760        1.90100        6.51910
H          5.66810        3.16360        7.61620
H          5.36030        1.52770        8.22360
H          6.32750        1.34810        4.69940
H          5.21680        0.07410       -0.23290
H          3.89070        0.08070       -2.26830
H          2.59330       -1.07290       -3.60140
H          1.22340       -0.60310       -4.50720
