67
rmsd151.gzmat
O          0.00000        0.00000        0.00000
C          1.35360        0.00000        0.00000
C          2.05770        0.00000        1.18540
C          3.47440        0.01300        1.14390
N          4.24100       -0.06220        2.24720
C          3.67430       -0.04040        3.60930
H          2.88230       -0.85120        3.67590
C          4.84270       -0.33530        4.57490
O          5.98470       -0.18430        4.19100
N          4.60170       -0.77470        5.86200
S          3.05690       -1.11580        6.65720
O          2.90150       -0.12620        7.67940
O          2.12880       -1.24430        5.55650
C          3.38280       -2.68000        7.36420
C          3.20000       -3.82490        6.59580
C          3.47080       -5.07800        7.15580
C          3.91210       -5.18780        8.46360
C          4.08860       -4.02240        9.24430
N          4.57140       -4.11990       10.53340
C          3.81490       -2.75790        8.68250
C          3.09560        1.31310        3.93930
C          3.87060        2.46510        3.85600
F          5.14320        2.39140        3.50580
C          3.33500        3.73700        4.14710
O          4.23310        4.73030        4.01620
C          3.79600        6.07940        4.19740
C          3.01950        6.55650        2.98380
C          2.00250        3.85350        4.53820
C          1.23760        2.68650        4.62850
O         -0.06830        2.64180        4.96870
C         -0.65210        3.82340        5.54010
C         -2.00210        3.33420        6.04010
C          1.76480        1.42080        4.32890
C          4.12040        0.07150       -0.14380
C          3.38500        0.05600       -1.29220
C          1.96250       -0.01140       -1.27930
C          1.20830       -0.07950       -2.49900
N         -0.03150        0.46160       -2.60790
H         -0.61180        0.34990       -3.41940
H         -0.47960        0.85170       -1.78590
N          1.73520       -0.67160       -3.60860
H         -0.38920        0.01780        0.91750
H          1.53550        0.00980        2.14100
H          5.26330        0.03400        2.19490
H          5.45070       -0.84080        6.44190
H          2.83740       -3.77240        5.56740
H          3.33030       -5.97720        6.55350
H          4.12450       -6.16530        8.89130
H          4.57780       -3.32410       11.13450
H          4.67240       -5.01090       10.96960
H          3.93640       -1.86410        9.29960
H          4.78130        6.58570        4.29220
H          3.24120        6.18660        5.14390
H          3.54630        6.30070        2.05340
H          2.88920        7.64620        2.99600
H          2.02410        6.10340        2.92000
H          1.57660        4.82220        4.77010
H         -0.74370        4.58570        4.74720
H         -0.01250        4.19430        6.36120
H         -2.58220        2.86300        5.23560
H         -2.59800        4.16110        6.44650
H         -1.88610        2.58050        6.83210
H          1.13100        0.53890        4.45470
H          5.20820        0.13900       -0.18040
H          3.89890        0.12270       -2.25630
H          2.63870       -1.11570       -3.57430
H          1.26640       -0.68840       -4.49610
