67
rmsd97.gzmat
O          0.00000        0.00000        0.00000
C          1.35140        0.00000        0.00000
C          2.06180        0.00000        1.18370
C          3.47470        0.03750        1.13780
N          4.25440        0.02570        2.23700
C          3.73740        0.05390        3.61380
H          3.15520       -0.88960        3.79900
C          4.98150        0.10060        4.55250
O          6.08890        0.20650        4.06230
N          4.75110        0.04580        5.89600
S          6.00360        0.43810        7.12160
O          6.35790        1.80240        6.85180
O          5.32130        0.05040        8.32540
C          7.31890       -0.64280        6.76020
C          7.43810       -1.84090        7.46280
C          8.49230       -2.70640        7.16700
C          9.41850       -2.38750        6.18350
C          9.29470       -1.17550        5.47570
N         10.17120       -0.87450        4.44250
C          8.23650       -0.29340        5.77870
C          2.94880        1.30490        3.91190
C          1.65980        1.25900        4.41930
F          1.05290        0.10610        4.65350
C          0.94730        2.44310        4.72980
O         -0.29690        2.21210        5.18100
C         -1.04510        3.35080        5.65390
C         -2.31360        2.71920        6.19910
C          1.55580        3.67740        4.55670
C          2.87870        3.71100        4.07690
O          3.36710        4.96030        3.96110
C          4.78210        5.13980        3.82560
C          5.49760        4.78720        5.11250
C          3.56690        2.54490        3.73570
C          4.11770        0.07160       -0.15180
C          3.37860        0.04340       -1.29900
C          1.95770       -0.00890       -1.27960
C          1.19390       -0.06520       -2.49680
N          1.69190       -0.69580       -3.59750
H          1.21730       -0.71230       -4.48250
H          2.57000       -1.18840       -3.55480
N         -0.02080        0.52740       -2.60520
H         -0.39280       -0.00080        0.91780
H          1.54030       -0.01180        2.13520
H          5.27870        0.09700        2.16400
H          3.78980       -0.03810        6.23790
H          6.72820       -2.11450        8.24900
H          8.59030       -3.64360        7.71750
H         10.23300       -3.07130        5.95660
H         10.17980        0.04730        4.06030
H         11.01920       -1.39190        4.34980
H          8.14850        0.64380        5.22020
H         -1.23650        4.02580        4.80220
H         -0.46260        3.87130        6.43520
H         -2.83310        2.12620        5.43470
H         -3.01140        3.48590        6.56110
H         -2.09790        2.03880        7.03580
H          1.05730        4.61460        4.79240
H          4.81180        6.22910        3.60830
H          5.15430        4.58360        2.95090
H          5.03970        5.28500        5.97910
H          6.55330        5.08460        5.08460
H          5.48400        3.70800        5.33540
H          4.58490        2.59470        3.35630
H          5.20490        0.12670       -0.19410
H          3.89040        0.08620       -2.26580
H         -0.44530        0.95100       -1.78660
H         -0.61230        0.42890       -3.41100
