rmsd203.gzmat
 OpenBabel08211713363D

 67 69  0  0  1  0  0  0  0  0999 V2000
    0.0000    0.0000    0.0000 O   0  0  0  0  0  0  0  0  0  0  0  0
    1.3521    0.0000    0.0000 C   0  0  0  0  0  0  0  0  0  0  0  0
    2.0717    0.0000    1.1789 C   0  0  0  0  0  0  0  0  0  0  0  0
    3.4900   -0.0111    1.1158 C   0  0  0  0  0  0  0  0  0  0  0  0
    4.1935   -0.0226    2.2731 N   0  0  0  0  0  0  0  0  0  0  0  0
    5.6534    0.1123    2.3058 C   0  0  1  0  0  0  0  0  0  0  0  0
    6.0873   -0.2866    1.3316 H   0  0  0  0  0  0  0  0  0  0  0  0
    5.9661    1.6196    2.4735 C   0  0  0  0  0  0  0  0  0  0  0  0
    5.1728    2.3339    3.0479 O   0  0  0  0  0  0  0  0  0  0  0  0
    7.1582    2.1401    2.0079 N   0  0  0  0  0  0  0  0  0  0  0  0
    8.3586    1.3805    0.9499 S   0  0  0  0  0  0  0  0  0  0  0  0
    7.5647    0.4627    0.1614 O   0  0  0  0  0  0  0  0  0  0  0  0
    9.0359    2.5063    0.3770 O   0  0  0  0  0  0  0  0  0  0  0  0
    9.3884    0.4965    2.0438 C   0  0  0  0  0  0  0  0  0  0  0  0
   10.3109    1.1858    2.8271 C   0  0  0  0  0  0  0  0  0  0  0  0
   11.1388    0.4740    3.6991 C   0  0  0  0  0  0  0  0  0  0  0  0
   11.0452   -0.9055    3.7978 C   0  0  0  0  0  0  0  0  0  0  0  0
   10.1066   -1.6016    3.0077 C   0  0  0  0  0  0  0  0  0  0  0  0
   10.0465   -2.9894    3.0470 N   0  0  0  0  0  0  0  0  0  0  0  0
    9.2790   -0.8864    2.1177 C   0  0  0  0  0  0  0  0  0  0  0  0
    6.2174   -0.6745    3.4599 C   0  0  0  0  0  0  0  0  0  0  0  0
    6.4211   -2.0511    3.3233 C   0  0  0  0  0  0  0  0  0  0  0  0
    6.0512   -2.6784    2.2202 F   0  0  0  0  0  0  0  0  0  0  0  0
    7.0444   -2.7954    4.3303 C   0  0  0  0  0  0  0  0  0  0  0  0
    7.3973   -4.0877    4.0789 O   0  0  0  0  0  0  0  0  0  0  0  0
    6.3886   -5.0641    4.3660 C   0  0  0  0  0  0  0  0  0  0  0  0
    6.2502   -5.2627    5.8641 C   0  0  0  0  0  0  0  0  0  0  0  0
    7.4538   -2.1851    5.5127 C   0  0  0  0  0  0  0  0  0  0  0  0
    7.2243   -0.8155    5.6565 C   0  0  0  0  0  0  0  0  0  0  0  0
    7.5384   -0.0766    6.7398 O   0  0  0  0  0  0  0  0  0  0  0  0
    8.4118   -0.6347    7.7235 C   0  0  0  0  0  0  0  0  0  0  0  0
    9.8339   -0.6970    7.1984 C   0  0  0  0  0  0  0  0  0  0  0  0
    6.5979   -0.0613    4.6457 C   0  0  0  0  0  0  0  0  0  0  0  0
    4.1184   -0.0500   -0.1738 C   0  0  0  0  0  0  0  0  0  0  0  0
    3.3697   -0.0381   -1.3149 C   0  0  0  0  0  0  0  0  0  0  0  0
    1.9487    0.0139   -1.2823 C   0  0  0  0  0  0  0  0  0  0  0  0
    1.1783    0.0909   -2.4949 C   0  0  0  0  0  0  0  0  0  0  0  0
   -0.0319   -0.5094   -2.6104 N   0  0  0  0  0  0  0  0  0  0  0  0
   -0.6286   -0.3991   -3.4108 H   0  0  0  0  0  0  0  0  0  0  0  0
   -0.4497   -0.9504   -1.7984 H   0  0  0  0  0  0  0  0  0  0  0  0
    1.6695    0.7491   -3.5810 N   0  0  0  0  0  0  0  0  0  0  0  0
   -0.3980    0.0481    0.9109 H   0  0  0  0  0  0  0  0  0  0  0  0
    1.5692    0.0200    2.1412 H   0  0  0  0  0  0  0  0  0  0  0  0
    3.7236    0.1248    3.1647 H   0  0  0  0  0  0  0  0  0  0  0  0
    7.2696    3.1540    2.1654 H   0  0  0  0  0  0  0  0  0  0  0  0
   10.4183    2.2712    2.7674 H   0  0  0  0  0  0  0  0  0  0  0  0
   11.8685    1.0121    4.3067 H   0  0  0  0  0  0  0  0  0  0  0  0
   11.6990   -1.4535    4.4723 H   0  0  0  0  0  0  0  0  0  0  0  0
    9.1792   -3.4367    2.8064 H   0  0  0  0  0  0  0  0  0  0  0  0
   10.5518   -3.4667    3.7688 H   0  0  0  0  0  0  0  0  0  0  0  0
    8.5826   -1.4431    1.4848 H   0  0  0  0  0  0  0  0  0  0  0  0
    6.8172   -5.9498    3.8540 H   0  0  0  0  0  0  0  0  0  0  0  0
    5.4382   -4.7803    3.8843 H   0  0  0  0  0  0  0  0  0  0  0  0
    7.2248   -5.4515    6.3348 H   0  0  0  0  0  0  0  0  0  0  0  0
    5.6051   -6.1220    6.0930 H   0  0  0  0  0  0  0  0  0  0  0  0
    5.8129   -4.3850    6.3560 H   0  0  0  0  0  0  0  0  0  0  0  0
    7.9428   -2.7777    6.2817 H   0  0  0  0  0  0  0  0  0  0  0  0
    8.0306   -1.6086    8.0730 H   0  0  0  0  0  0  0  0  0  0  0  0
    8.2930    0.1168    8.5339 H   0  0  0  0  0  0  0  0  0  0  0  0
    9.9432   -1.4212    6.3829 H   0  0  0  0  0  0  0  0  0  0  0  0
   10.5424   -0.9757    7.9902 H   0  0  0  0  0  0  0  0  0  0  0  0
   10.1515    0.2778    6.8009 H   0  0  0  0  0  0  0  0  0  0  0  0
    6.4362    1.0061    4.8246 H   0  0  0  0  0  0  0  0  0  0  0  0
    5.2152   -0.0915   -0.2465 H   0  0  0  0  0  0  0  0  0  0  0  0
    3.8760   -0.0878   -2.2847 H   0  0  0  0  0  0  0  0  0  0  0  0
    2.5502    1.2383   -3.5284 H   0  0  0  0  0  0  0  0  0  0  0  0
    1.1906    0.7893   -4.4627 H   0  0  0  0  0  0  0  0  0  0  0  0
  1 42  1  0  0  0  0
  2  1  1  0  0  0  0
  2  3  2  0  0  0  0
  3 43  1  0  0  0  0
  4  3  1  0  0  0  0
  4  5  1  0  0  0  0
  5  6  1  0  0  0  0
  5 44  1  0  0  0  0
  6  7  1  6  0  0  0
  6  8  1  0  0  0  0
  6 21  1  0  0  0  0
  8  9  2  0  0  0  0
 10 45  1  0  0  0  0
 10  8  1  0  0  0  0
 11 10  1  0  0  0  0
 11 14  1  0  0  0  0
 12 11  2  0  0  0  0
 13 11  2  0  0  0  0
 14 20  2  0  0  0  0
 14 15  1  0  0  0  0
 15 16  2  0  0  0  0
 16 17  1  0  0  0  0
 16 47  1  0  0  0  0
 17 48  1  0  0  0  0
 18 19  1  0  0  0  0
 18 17  2  0  0  0  0
 19 50  1  0  0  0  0
 20 18  1  0  0  0  0
 21 33  1  0  0  0  0
 22 21  2  0  0  0  0
 22 24  1  0  0  0  0
 23 22  1  0  0  0  0
 24 28  2  0  0  0  0
 25 24  1  0  0  0  0
 25 26  1  0  0  0  0
 26 27  1  0  0  0  0
 27 55  1  0  0  0  0
 27 54  1  0  0  0  0
 27 56  1  0  0  0  0
 28 29  1  0  0  0  0
 28 57  1  0  0  0  0
 29 30  1  0  0  0  0
 30 31  1  0  0  0  0
 31 58  1  0  0  0  0
 31 59  1  0  0  0  0
 32 31  1  0  0  0  0
 32 61  1  0  0  0  0
 33 63  1  0  0  0  0
 33 29  2  0  0  0  0
 34  4  2  0  0  0  0
 35 36  2  0  0  0  0
 35 34  1  0  0  0  0
 36  2  1  0  0  0  0
 37 36  1  0  0  0  0
 38 37  1  0  0  0  0
 38 40  1  0  0  0  0
 39 38  1  0  0  0  0
 41 66  1  0  0  0  0
 41 37  2  0  0  0  0
 46 15  1  0  0  0  0
 49 19  1  0  0  0  0
 51 20  1  0  0  0  0
 52 26  1  0  0  0  0
 53 26  1  0  0  0  0
 60 32  1  0  0  0  0
 62 32  1  0  0  0  0
 64 34  1  0  0  0  0
 65 35  1  0  0  0  0
 67 41  1  0  0  0  0
M  END
$$$$
