rmsd95.gzmat
 OpenBabel08211713363D

 67 69  0  0  1  0  0  0  0  0999 V2000
    0.0000    0.0000    0.0000 O   0  0  0  0  0  0  0  0  0  0  0  0
    1.3524    0.0000    0.0000 C   0  0  0  0  0  0  0  0  0  0  0  0
    2.0673    0.0000    1.1819 C   0  0  0  0  0  0  0  0  0  0  0  0
    3.4859    0.0182    1.1257 C   0  0  0  0  0  0  0  0  0  0  0  0
    4.1830   -0.0092    2.2862 N   0  0  0  0  0  0  0  0  0  0  0  0
    5.6453    0.1056    2.3359 C   0  0  1  0  0  0  0  0  0  0  0  0
    6.0884   -0.4360    1.4446 H   0  0  0  0  0  0  0  0  0  0  0  0
    5.9908    1.6168    2.3053 C   0  0  0  0  0  0  0  0  0  0  0  0
    5.2286    2.4156    2.8057 O   0  0  0  0  0  0  0  0  0  0  0  0
    7.1845    2.0487    1.7593 N   0  0  0  0  0  0  0  0  0  0  0  0
    8.3285    1.1417    0.7548 S   0  0  0  0  0  0  0  0  0  0  0  0
    7.4590    0.3658   -0.1031 O   0  0  0  0  0  0  0  0  0  0  0  0
    9.2054    2.1616    0.2636 O   0  0  0  0  0  0  0  0  0  0  0  0
    9.0956    0.0624    1.8875 C   0  0  0  0  0  0  0  0  0  0  0  0
    9.8588    0.5542    2.9408 C   0  0  0  0  0  0  0  0  0  0  0  0
   10.3832   -0.3368    3.8833 C   0  0  0  0  0  0  0  0  0  0  0  0
   10.1386   -1.6969    3.7848 C   0  0  0  0  0  0  0  0  0  0  0  0
    9.3758   -2.1938    2.7071 C   0  0  0  0  0  0  0  0  0  0  0  0
    9.1679   -3.5694    2.5759 N   0  0  0  0  0  0  0  0  0  0  0  0
    8.8740   -1.3034    1.7413 C   0  0  0  0  0  0  0  0  0  0  0  0
    6.1424   -0.5187    3.6186 C   0  0  0  0  0  0  0  0  0  0  0  0
    6.2984   -1.8955    3.7049 C   0  0  0  0  0  0  0  0  0  0  0  0
    5.9784   -2.6780    2.6877 F   0  0  0  0  0  0  0  0  0  0  0  0
    6.8084   -2.5119    4.8725 C   0  0  0  0  0  0  0  0  0  0  0  0
    6.9558   -3.8481    4.7559 O   0  0  0  0  0  0  0  0  0  0  0  0
    7.3337   -4.5934    5.9191 C   0  0  0  0  0  0  0  0  0  0  0  0
    8.8374   -4.5510    6.1171 C   0  0  0  0  0  0  0  0  0  0  0  0
    7.1277   -1.7361    5.9745 C   0  0  0  0  0  0  0  0  0  0  0  0
    6.9546   -0.3419    5.8831 C   0  0  0  0  0  0  0  0  0  0  0  0
    7.3404    0.2972    7.0039 O   0  0  0  0  0  0  0  0  0  0  0  0
    7.1998    1.7181    7.0855 C   0  0  0  0  0  0  0  0  0  0  0  0
    5.7594    2.0967    7.3711 C   0  0  0  0  0  0  0  0  0  0  0  0
    6.4630    0.2674    4.7274 C   0  0  0  0  0  0  0  0  0  0  0  0
    4.1201    0.0394   -0.1600 C   0  0  0  0  0  0  0  0  0  0  0  0
    3.3751    0.0328   -1.3035 C   0  0  0  0  0  0  0  0  0  0  0  0
    1.9527   -0.0013   -1.2815 C   0  0  0  0  0  0  0  0  0  0  0  0
    1.1894   -0.0281   -2.5004 C   0  0  0  0  0  0  0  0  0  0  0  0
   -0.0369    0.5441   -2.5901 N   0  0  0  0  0  0  0  0  0  0  0  0
   -0.6229    0.4692   -3.4023 H   0  0  0  0  0  0  0  0  0  0  0  0
   -0.4691    0.9365   -1.7608 H   0  0  0  0  0  0  0  0  0  0  0  0
    1.6991   -0.6080   -3.6232 N   0  0  0  0  0  0  0  0  0  0  0  0
   -0.3977   -0.0439    0.9110 H   0  0  0  0  0  0  0  0  0  0  0  0
    1.5601   -0.0068    2.1419 H   0  0  0  0  0  0  0  0  0  0  0  0
    3.7074    0.1058    3.1777 H   0  0  0  0  0  0  0  0  0  0  0  0
    7.3257    3.0701    1.7959 H   0  0  0  0  0  0  0  0  0  0  0  0
   10.0656    1.6200    3.0528 H   0  0  0  0  0  0  0  0  0  0  0  0
   10.9866    0.0463    4.7083 H   0  0  0  0  0  0  0  0  0  0  0  0
   10.5423   -2.3857    4.5241 H   0  0  0  0  0  0  0  0  0  0  0  0
    8.5268   -3.8635    1.8587 H   0  0  0  0  0  0  0  0  0  0  0  0
    9.0413   -4.0873    3.4294 H   0  0  0  0  0  0  0  0  0  0  0  0
    8.3094   -1.7057    0.8951 H   0  0  0  0  0  0  0  0  0  0  0  0
    6.9713   -5.6033    5.6316 H   0  0  0  0  0  0  0  0  0  0  0  0
    6.7691   -4.2482    6.8026 H   0  0  0  0  0  0  0  0  0  0  0  0
    9.3756   -5.0629    5.3091 H   0  0  0  0  0  0  0  0  0  0  0  0
    9.1268   -5.0495    7.0546 H   0  0  0  0  0  0  0  0  0  0  0  0
    9.2195   -3.5235    6.1699 H   0  0  0  0  0  0  0  0  0  0  0  0
    7.5089   -2.1604    6.9016 H   0  0  0  0  0  0  0  0  0  0  0  0
    7.6097    2.2022    6.1841 H   0  0  0  0  0  0  0  0  0  0  0  0
    7.8693    1.9259    7.9479 H   0  0  0  0  0  0  0  0  0  0  0  0
    5.0976    1.9010    6.5191 H   0  0  0  0  0  0  0  0  0  0  0  0
    5.6681    3.1636    7.6162 H   0  0  0  0  0  0  0  0  0  0  0  0
    5.3603    1.5277    8.2236 H   0  0  0  0  0  0  0  0  0  0  0  0
    6.3275    1.3481    4.6994 H   0  0  0  0  0  0  0  0  0  0  0  0
    5.2168    0.0741   -0.2329 H   0  0  0  0  0  0  0  0  0  0  0  0
    3.8907    0.0807   -2.2683 H   0  0  0  0  0  0  0  0  0  0  0  0
    2.5933   -1.0729   -3.6014 H   0  0  0  0  0  0  0  0  0  0  0  0
    1.2234   -0.6031   -4.5072 H   0  0  0  0  0  0  0  0  0  0  0  0
  1 42  1  0  0  0  0
  2  1  1  0  0  0  0
  2  3  2  0  0  0  0
  3 43  1  0  0  0  0
  4  3  1  0  0  0  0
  4  5  1  0  0  0  0
  5  6  1  0  0  0  0
  5 44  1  0  0  0  0
  6  7  1  6  0  0  0
  6 21  1  0  0  0  0
  8  6  1  0  0  0  0
  8  9  2  0  0  0  0
 10 45  1  0  0  0  0
 10  8  1  0  0  0  0
 11 10  1  0  0  0  0
 11 14  1  0  0  0  0
 12 11  2  0  0  0  0
 13 11  2  0  0  0  0
 14 15  1  0  0  0  0
 15 46  1  0  0  0  0
 15 16  2  0  0  0  0
 16 47  1  0  0  0  0
 17 16  1  0  0  0  0
 17 48  1  0  0  0  0
 18 17  2  0  0  0  0
 19 18  1  0  0  0  0
 19 50  1  0  0  0  0
 20 14  2  0  0  0  0
 20 18  1  0  0  0  0
 21 22  2  0  0  0  0
 21 33  1  0  0  0  0
 22 24  1  0  0  0  0
 23 22  1  0  0  0  0
 24 28  2  0  0  0  0
 25 24  1  0  0  0  0
 25 26  1  0  0  0  0
 26 27  1  0  0  0  0
 26 53  1  0  0  0  0
 27 56  1  0  0  0  0
 27 55  1  0  0  0  0
 28 57  1  0  0  0  0
 29 28  1  0  0  0  0
 29 30  1  0  0  0  0
 30 31  1  0  0  0  0
 31 32  1  0  0  0  0
 31 59  1  0  0  0  0
 32 61  1  0  0  0  0
 32 62  1  0  0  0  0
 33 29  2  0  0  0  0
 34  4  2  0  0  0  0
 35 36  2  0  0  0  0
 35 34  1  0  0  0  0
 36  2  1  0  0  0  0
 37 36  1  0  0  0  0
 38 37  1  0  0  0  0
 38 40  1  0  0  0  0
 39 38  1  0  0  0  0
 41 66  1  0  0  0  0
 41 37  2  0  0  0  0
 49 19  1  0  0  0  0
 51 20  1  0  0  0  0
 52 26  1  0  0  0  0
 54 27  1  0  0  0  0
 58 31  1  0  0  0  0
 60 32  1  0  0  0  0
 63 33  1  0  0  0  0
 64 34  1  0  0  0  0
 65 35  1  0  0  0  0
 67 41  1  0  0  0  0
M  END
$$$$
