rmsd5.gzmat
 OpenBabel08211713363D

 67 69  0  0  1  0  0  0  0  0999 V2000
    0.0000    0.0000    0.0000 O   0  0  0  0  0  0  0  0  0  0  0  0
    1.3526    0.0000    0.0000 C   0  0  0  0  0  0  0  0  0  0  0  0
    2.0670    0.0000    1.1810 C   0  0  0  0  0  0  0  0  0  0  0  0
    3.4871    0.0035    1.1230 C   0  0  0  0  0  0  0  0  0  0  0  0
    4.1823   -0.0273    2.2789 N   0  0  0  0  0  0  0  0  0  0  0  0
    5.6460   -0.1165    2.3483 C   0  0  1  0  0  0  0  0  0  0  0  0
    6.0943   -0.0589    1.3007 H   0  0  0  0  0  0  0  0  0  0  0  0
    6.0970    1.0824    3.2106 C   0  0  0  0  0  0  0  0  0  0  0  0
    5.3860    1.4553    4.1207 O   0  0  0  0  0  0  0  0  0  0  0  0
    7.2924    1.7348    2.9695 N   0  0  0  0  0  0  0  0  0  0  0  0
    8.4739    1.5266    1.6644 S   0  0  0  0  0  0  0  0  0  0  0  0
    7.8194    0.6177    0.7530 O   0  0  0  0  0  0  0  0  0  0  0  0
    8.8072    2.8667    1.2770 O   0  0  0  0  0  0  0  0  0  0  0  0
    9.8326    0.7802    2.4654 C   0  0  0  0  0  0  0  0  0  0  0  0
   11.0784    1.3977    2.4059 C   0  0  0  0  0  0  0  0  0  0  0  0
   12.1705    0.8076    3.0501 C   0  0  0  0  0  0  0  0  0  0  0  0
   12.0184   -0.3639    3.7745 C   0  0  0  0  0  0  0  0  0  0  0  0
   10.7493   -0.9758    3.8529 C   0  0  0  0  0  0  0  0  0  0  0  0
   10.5792   -2.1646    4.5530 N   0  0  0  0  0  0  0  0  0  0  0  0
    9.6599   -0.4084    3.1642 C   0  0  0  0  0  0  0  0  0  0  0  0
    6.0404   -1.4376    2.9619 C   0  0  0  0  0  0  0  0  0  0  0  0
    5.8333   -2.6072    2.2387 C   0  0  0  0  0  0  0  0  0  0  0  0
    5.2548   -2.5725    1.0499 F   0  0  0  0  0  0  0  0  0  0  0  0
    6.2237   -3.8708    2.7344 C   0  0  0  0  0  0  0  0  0  0  0  0
    5.9267   -4.8821    1.9023 O   0  0  0  0  0  0  0  0  0  0  0  0
    6.3842   -6.1988    2.2648 C   0  0  0  0  0  0  0  0  0  0  0  0
    5.8822   -7.0523    1.1122 C   0  0  0  0  0  0  0  0  0  0  0  0
    6.8451   -3.9612    3.9773 C   0  0  0  0  0  0  0  0  0  0  0  0
    7.0414   -2.7791    4.6974 C   0  0  0  0  0  0  0  0  0  0  0  0
    7.7225   -2.7039    5.8670 O   0  0  0  0  0  0  0  0  0  0  0  0
    7.7821   -3.8596    6.7062 C   0  0  0  0  0  0  0  0  0  0  0  0
    6.4081   -4.2127    7.2411 C   0  0  0  0  0  0  0  0  0  0  0  0
    6.6275   -1.5276    4.2225 C   0  0  0  0  0  0  0  0  0  0  0  0
    4.1185    0.0580   -0.1659 C   0  0  0  0  0  0  0  0  0  0  0  0
    3.3734    0.0447   -1.3083 C   0  0  0  0  0  0  0  0  0  0  0  0
    1.9515   -0.0123   -1.2826 C   0  0  0  0  0  0  0  0  0  0  0  0
    1.1884   -0.0828   -2.4981 C   0  0  0  0  0  0  0  0  0  0  0  0
   -0.0437    0.4751   -2.6056 N   0  0  0  0  0  0  0  0  0  0  0  0
   -0.6321    0.3613   -3.4116 H   0  0  0  0  0  0  0  0  0  0  0  0
   -0.4792    0.8877   -1.7882 H   0  0  0  0  0  0  0  0  0  0  0  0
    1.7031   -0.6934   -3.6027 N   0  0  0  0  0  0  0  0  0  0  0  0
   -0.3979   -0.0339    0.9114 H   0  0  0  0  0  0  0  0  0  0  0  0
    1.5614   -0.0101    2.1418 H   0  0  0  0  0  0  0  0  0  0  0  0
    3.7056   -0.0060    3.1819 H   0  0  0  0  0  0  0  0  0  0  0  0
    7.4447    2.5535    3.5811 H   0  0  0  0  0  0  0  0  0  0  0  0
   11.2274    2.3397    1.8689 H   0  0  0  0  0  0  0  0  0  0  0  0
   13.1514    1.2835    2.9872 H   0  0  0  0  0  0  0  0  0  0  0  0
   12.8702   -0.8127    4.2805 H   0  0  0  0  0  0  0  0  0  0  0  0
    9.6537   -2.4080    4.8571 H   0  0  0  0  0  0  0  0  0  0  0  0
   11.3126   -2.4719    5.1594 H   0  0  0  0  0  0  0  0  0  0  0  0
    8.7014   -0.9282    3.1877 H   0  0  0  0  0  0  0  0  0  0  0  0
    5.9354   -6.4861    3.2312 H   0  0  0  0  0  0  0  0  0  0  0  0
    7.4860   -6.1874    2.3365 H   0  0  0  0  0  0  0  0  0  0  0  0
    4.7861   -7.0284    1.0404 H   0  0  0  0  0  0  0  0  0  0  0  0
    6.1897   -8.0994    1.2294 H   0  0  0  0  0  0  0  0  0  0  0  0
    6.2721   -6.6940    0.1486 H   0  0  0  0  0  0  0  0  0  0  0  0
    7.1749   -4.9150    4.3729 H   0  0  0  0  0  0  0  0  0  0  0  0
    8.4591   -3.4853    7.5030 H   0  0  0  0  0  0  0  0  0  0  0  0
    8.2682   -4.6916    6.1703 H   0  0  0  0  0  0  0  0  0  0  0  0
    5.9185   -3.3357    7.6903 H   0  0  0  0  0  0  0  0  0  0  0  0
    6.4668   -4.9862    8.0186 H   0  0  0  0  0  0  0  0  0  0  0  0
    5.7377   -4.5830    6.4556 H   0  0  0  0  0  0  0  0  0  0  0  0
    6.7601   -0.6528    4.8615 H   0  0  0  0  0  0  0  0  0  0  0  0
    5.2126    0.1142   -0.2289 H   0  0  0  0  0  0  0  0  0  0  0  0
    3.8828    0.1037   -2.2755 H   0  0  0  0  0  0  0  0  0  0  0  0
    2.5970   -1.1584   -3.5637 H   0  0  0  0  0  0  0  0  0  0  0  0
    1.2288   -0.7172   -4.4873 H   0  0  0  0  0  0  0  0  0  0  0  0
  1 42  1  0  0  0  0
  2  1  1  0  0  0  0
  2  3  2  0  0  0  0
  3 43  1  0  0  0  0
  4  3  1  0  0  0  0
  4  5  1  0  0  0  0
  5  6  1  0  0  0  0
  5 44  1  0  0  0  0
  6  7  1  6  0  0  0
  6 21  1  0  0  0  0
  6  8  1  0  0  0  0
  8  9  2  0  0  0  0
 10  8  1  0  0  0  0
 10 45  1  0  0  0  0
 11 14  1  0  0  0  0
 11 10  1  0  0  0  0
 12 11  2  0  0  0  0
 13 11  2  0  0  0  0
 14 20  1  0  0  0  0
 15 14  2  0  0  0  0
 15 16  1  0  0  0  0
 16 17  2  0  0  0  0
 17 18  1  0  0  0  0
 17 48  1  0  0  0  0
 18 19  1  0  0  0  0
 19 49  1  0  0  0  0
 19 50  1  0  0  0  0
 20 51  1  0  0  0  0
 20 18  2  0  0  0  0
 21 33  2  0  0  0  0
 22 24  2  0  0  0  0
 22 21  1  0  0  0  0
 23 22  1  0  0  0  0
 24 28  1  0  0  0  0
 25 26  1  0  0  0  0
 25 24  1  0  0  0  0
 26 53  1  0  0  0  0
 26 52  1  0  0  0  0
 27 55  1  0  0  0  0
 27 26  1  0  0  0  0
 28 57  1  0  0  0  0
 28 29  2  0  0  0  0
 29 30  1  0  0  0  0
 30 31  1  0  0  0  0
 31 32  1  0  0  0  0
 31 58  1  0  0  0  0
 32 60  1  0  0  0  0
 32 61  1  0  0  0  0
 33 29  1  0  0  0  0
 33 63  1  0  0  0  0
 34  4  2  0  0  0  0
 35 36  2  0  0  0  0
 35 34  1  0  0  0  0
 36  2  1  0  0  0  0
 37 36  1  0  0  0  0
 38 37  1  0  0  0  0
 38 40  1  0  0  0  0
 39 38  1  0  0  0  0
 41 66  1  0  0  0  0
 41 37  2  0  0  0  0
 46 15  1  0  0  0  0
 47 16  1  0  0  0  0
 54 27  1  0  0  0  0
 56 27  1  0  0  0  0
 59 31  1  0  0  0  0
 62 32  1  0  0  0  0
 64 34  1  0  0  0  0
 65 35  1  0  0  0  0
 67 41  1  0  0  0  0
M  END
$$$$
