rmsd193.gzmat
 OpenBabel08211713423D

 28 28  0  0  1  0  0  0  0  0999 V2000
    0.0000    0.0000    0.0000 C   0  0  0  0  0  0  0  0  0  0  0  0
    1.3965    0.0000    0.0000 C   0  0  0  0  0  0  0  0  0  0  0  0
    2.0920    0.0000    1.2061 C   0  0  0  0  0  0  0  0  0  0  0  0
    1.3966    0.0032    2.4146 C   0  0  0  0  0  0  0  0  0  0  0  0
    0.0031    0.0112    2.4151 C   0  0  0  0  0  0  0  0  0  0  0  0
   -0.6956    0.0097    1.2099 C   0  0  0  0  0  0  0  0  0  0  0  0
   -0.7457   -0.0224   -1.2966 C   0  0  0  0  0  0  0  0  0  0  0  0
   -0.7014   -1.4400   -1.9166 C   0  0  1  0  0  0  0  0  0  0  0  0
    0.3763   -1.7567   -2.0401 H   0  0  0  0  0  0  0  0  0  0  0  0
   -1.4226   -2.3895   -0.9547 C   0  0  0  0  0  0  0  0  0  0  0  0
   -2.5903   -2.4062   -0.6737 O   0  0  0  0  0  0  0  0  0  0  0  0
   -0.5449   -3.2673   -0.4194 O   0  0  0  0  0  0  0  0  0  0  0  0
   -1.3884   -1.4212   -3.1996 N   0  0  0  0  0  0  0  0  0  0  0  0
   -0.8539   -2.4367   -4.4898 S   0  0  0  0  0  0  0  0  0  0  0  0
   -1.6784   -2.1116   -5.6212 O   0  0  0  0  0  0  0  0  0  0  0  0
    0.5836   -2.4058   -4.5025 O   0  0  0  0  0  0  0  0  0  0  0  0
   -1.3051   -4.0225   -3.9802 N   0  0  0  0  0  0  0  0  0  0  0  0
    1.9417   -0.0025   -0.9424 H   0  0  0  0  0  0  0  0  0  0  0  0
    3.1808   -0.0041    1.2041 H   0  0  0  0  0  0  0  0  0  0  0  0
    1.9415    0.0004    3.3562 H   0  0  0  0  0  0  0  0  0  0  0  0
   -0.5430    0.0191    3.3569 H   0  0  0  0  0  0  0  0  0  0  0  0
   -1.7846    0.0115    1.2146 H   0  0  0  0  0  0  0  0  0  0  0  0
   -0.3025    0.6993   -2.0189 H   0  0  0  0  0  0  0  0  0  0  0  0
   -1.7967    0.3109   -1.1703 H   0  0  0  0  0  0  0  0  0  0  0  0
   -0.9457   -3.8893    0.2363 H   0  0  0  0  0  0  0  0  0  0  0  0
   -2.3802   -1.1989   -3.1436 H   0  0  0  0  0  0  0  0  0  0  0  0
   -0.5728   -4.6747   -3.7560 H   0  0  0  0  0  0  0  0  0  0  0  0
   -2.0692   -4.4743   -4.4521 H   0  0  0  0  0  0  0  0  0  0  0  0
  1  2  2  0  0  0  0
  1  6  1  0  0  0  0
  2  3  1  0  0  0  0
  3  4  2  0  0  0  0
  4  5  1  0  0  0  0
  4 20  1  0  0  0  0
  5 21  1  0  0  0  0
  6 22  1  0  0  0  0
  6  5  2  0  0  0  0
  7 24  1  0  0  0  0
  7  1  1  0  0  0  0
  8  9  1  6  0  0  0
  8  7  1  0  0  0  0
  8 10  1  0  0  0  0
 10 11  2  0  0  0  0
 10 12  1  0  0  0  0
 12 25  1  0  0  0  0
 13 26  1  0  0  0  0
 13  8  1  0  0  0  0
 14 17  1  0  0  0  0
 14 13  1  0  0  0  0
 15 14  2  0  0  0  0
 16 14  2  0  0  0  0
 17 27  1  0  0  0  0
 18  2  1  0  0  0  0
 19  3  1  0  0  0  0
 23  7  1  0  0  0  0
 28 17  1  0  0  0  0
M  END
$$$$
