28
rmsd175.gzmat
C          0.00000        0.00000        0.00000
C          1.39670        0.00000        0.00000
C          2.09220        0.00000        1.20610
C          1.39670        0.00380        2.41420
C          0.00310        0.01030        2.41490
C         -0.69570        0.00910        1.20990
C         -0.74680       -0.02330       -1.29580
C         -0.69010       -1.43800       -1.92110
H          0.38940       -1.76090       -2.01130
C         -1.44900       -2.38780       -0.98930
O         -2.62040       -2.37920       -0.72450
O         -0.60260       -3.30230       -0.46510
N         -1.33780       -1.41250       -3.22390
S         -0.73820       -2.38070       -4.52040
O         -1.48080       -1.99410       -5.68850
O          0.69750       -2.37190       -4.43710
N         -1.24650       -3.97990       -4.11800
H          1.94230       -0.00340       -0.94230
H          3.18080       -0.00480        1.20480
H          1.94150        0.00400        3.35550
H         -0.54210        0.01510        3.35690
H         -1.78470        0.00860        1.21540
H         -0.31230        0.70580       -2.01630
H         -1.80080        0.29860       -1.16600
H         -1.02920       -3.93250        0.16630
H         -2.33120       -1.19390       -3.19920
H         -0.54350       -4.64760       -3.85080
H         -1.96420       -4.40560       -4.67890
