28
rmsd225.gzmat
C          0.00000        0.00000        0.00000
C          1.39660        0.00000        0.00000
C          2.09210        0.00000        1.20650
C          1.39620        0.00080        2.41460
C          0.00260        0.01120        2.41490
C         -0.69610        0.01310        1.20980
C         -0.74730       -0.03230       -1.29510
C         -0.74770       -1.46840       -1.87350
H          0.31380       -1.85400       -1.90690
C         -1.59970       -2.34510       -0.95030
O         -2.78030       -2.26290       -0.74380
O         -0.83320       -3.28840       -0.35860
N         -1.34150       -1.44920       -3.20140
S         -0.73200       -2.46540       -4.45480
O         -1.46590       -2.12020       -5.64140
O          0.70310       -2.45530       -4.36110
N         -1.23690       -4.04980       -3.99460
H          1.94240       -0.00530       -0.94230
H          3.18060       -0.00260        1.20590
H          1.94080       -0.00620        3.35640
H         -0.54200        0.01780        3.35740
H         -1.78500        0.01920        1.21380
H         -0.28290        0.65380       -2.03890
H         -1.78670        0.33770       -1.17690
H         -1.32640       -3.87510        0.26680
H         -2.32210       -1.17900       -3.22410
H         -0.53330       -4.69730       -3.68240
H         -1.93790       -4.50770       -4.55050
