rmsd192.gzmat
 OpenBabel08211713423D

 28 28  0  0  1  0  0  0  0  0999 V2000
    0.0000    0.0000    0.0000 C   0  0  0  0  0  0  0  0  0  0  0  0
    1.3971    0.0000    0.0000 C   0  0  0  0  0  0  0  0  0  0  0  0
    2.0931    0.0000    1.2060 C   0  0  0  0  0  0  0  0  0  0  0  0
    1.3983    0.0029    2.4147 C   0  0  0  0  0  0  0  0  0  0  0  0
    0.0048    0.0101    2.4154 C   0  0  0  0  0  0  0  0  0  0  0  0
   -0.6944    0.0091    1.2103 C   0  0  0  0  0  0  0  0  0  0  0  0
   -0.7461   -0.0197   -1.2969 C   0  0  0  0  0  0  0  0  0  0  0  0
   -0.6496   -1.4181   -1.9544 C   0  0  1  0  0  0  0  0  0  0  0  0
    0.4364   -1.7236   -2.0185 H   0  0  0  0  0  0  0  0  0  0  0  0
   -1.4238   -2.3977   -1.0678 C   0  0  0  0  0  0  0  0  0  0  0  0
   -2.6069   -2.4260   -0.8624 O   0  0  0  0  0  0  0  0  0  0  0  0
   -0.5774   -3.2892   -0.5062 O   0  0  0  0  0  0  0  0  0  0  0  0
   -1.2577   -1.3744   -3.2762 N   0  0  0  0  0  0  0  0  0  0  0  0
   -0.6048   -2.3051   -4.5750 S   0  0  0  0  0  0  0  0  0  0  0  0
   -1.3607   -1.9449   -5.7432 O   0  0  0  0  0  0  0  0  0  0  0  0
    0.8284   -2.2296   -4.4845 O   0  0  0  0  0  0  0  0  0  0  0  0
   -1.0321   -3.9325   -4.1891 N   0  0  0  0  0  0  0  0  0  0  0  0
    1.9432   -0.0058   -0.9424 H   0  0  0  0  0  0  0  0  0  0  0  0
    3.1818   -0.0066    1.2056 H   0  0  0  0  0  0  0  0  0  0  0  0
    1.9439   -0.0000    3.3559 H   0  0  0  0  0  0  0  0  0  0  0  0
   -0.5403    0.0147    3.3577 H   0  0  0  0  0  0  0  0  0  0  0  0
   -1.7830    0.0101    1.2173 H   0  0  0  0  0  0  0  0  0  0  0  0
   -0.3304    0.7375   -1.9996 H   0  0  0  0  0  0  0  0  0  0  0  0
   -1.8086    0.2709   -1.1620 H   0  0  0  0  0  0  0  0  0  0  0  0
   -1.0166   -3.9356    0.0998 H   0  0  0  0  0  0  0  0  0  0  0  0
   -2.2562   -1.1781   -3.2763 H   0  0  0  0  0  0  0  0  0  0  0  0
   -0.2924   -4.5698   -3.9460 H   0  0  0  0  0  0  0  0  0  0  0  0
   -1.7343   -4.3832   -4.7509 H   0  0  0  0  0  0  0  0  0  0  0  0
  1  2  2  0  0  0  0
  1  6  1  0  0  0  0
  2  3  1  0  0  0  0
  3  4  2  0  0  0  0
  4  5  1  0  0  0  0
  4 20  1  0  0  0  0
  5 21  1  0  0  0  0
  6 22  1  0  0  0  0
  6  5  2  0  0  0  0
  7 24  1  0  0  0  0
  7  1  1  0  0  0  0
  8  9  1  6  0  0  0
  8  7  1  0  0  0  0
  8 10  1  0  0  0  0
 10 11  2  0  0  0  0
 10 12  1  0  0  0  0
 12 25  1  0  0  0  0
 13  8  1  0  0  0  0
 14 16  2  0  0  0  0
 14 17  1  0  0  0  0
 14 13  1  0  0  0  0
 15 14  2  0  0  0  0
 17 27  1  0  0  0  0
 18  2  1  0  0  0  0
 19  3  1  0  0  0  0
 23  7  1  0  0  0  0
 26 13  1  0  0  0  0
 28 17  1  0  0  0  0
M  END
$$$$
