
     RDKit          3D

 28 28  0  0  0  0  0  0  0  0999 V2000
    0.0697   -0.0004   -0.0283 C   0  0  0  0  0  0  0  0  0  0  0  0
    1.4668    0.0492    0.0826 C   0  0  0  0  0  0  0  0  0  0  0  0
    2.0849    0.0143    1.3337 C   0  0  0  0  0  0  0  0  0  0  0  0
    1.3120   -0.0721    2.4957 C   0  0  0  0  0  0  0  0  0  0  0  0
   -0.0808   -0.1216    2.3971 C   0  0  0  0  0  0  0  0  0  0  0  0
   -0.6955   -0.0873    1.1429 C   0  0  0  0  0  0  0  0  0  0  0  0
   -0.5901   -0.0177   -1.3843 C   0  0  0  0  0  0  0  0  0  0  0  0
   -0.5703   -1.4073   -2.0629 C   0  0  1  0  0  0  0  0  0  0  0  0
    0.4701   -1.7087   -2.2445 H   0  0  0  0  0  0  0  0  0  0  0  0
   -1.2502   -2.4392   -1.1686 C   0  0  0  0  0  0  0  0  0  0  0  0
   -2.4464   -2.6073   -1.1468 O   0  0  0  0  0  0  0  0  0  0  0  0
   -0.3917   -3.0842   -0.3747 O   0  0  0  0  0  0  0  0  0  0  0  0
   -1.2557   -1.3200   -3.3440 N   0  0  0  0  0  0  0  0  0  0  0  0
   -0.8106   -2.4017   -4.5335 S   0  0  0  0  0  0  0  0  0  0  0  0
   -1.8276   -2.2769   -5.5687 O   0  0  0  0  0  0  0  0  0  0  0  0
    0.6140   -2.2283   -4.7835 O   0  0  0  0  0  0  0  0  0  0  0  0
   -0.9259   -3.9135   -3.7751 N   0  0  0  0  0  0  0  0  0  0  0  0
    2.0763    0.1178   -0.8230 H   0  0  0  0  0  0  0  0  0  0  0  0
    3.1745    0.0575    1.4030 H   0  0  0  0  0  0  0  0  0  0  0  0
    1.7947   -0.0966    3.4755 H   0  0  0  0  0  0  0  0  0  0  0  0
   -0.6923   -0.1844    3.3006 H   0  0  0  0  0  0  0  0  0  0  0  0
   -1.7858   -0.1298    1.0690 H   0  0  0  0  0  0  0  0  0  0  0  0
   -0.0923    0.6758   -2.0781 H   0  0  0  0  0  0  0  0  0  0  0  0
   -1.6408    0.3018   -1.2993 H   0  0  0  0  0  0  0  0  0  0  0  0
   -0.9133   -3.6594    0.2121 H   0  0  0  0  0  0  0  0  0  0  0  0
   -2.2730   -1.2921   -3.2547 H   0  0  0  0  0  0  0  0  0  0  0  0
   -0.1903   -4.5237   -4.1318 H   0  0  0  0  0  0  0  0  0  0  0  0
   -1.8513   -4.3220   -3.9101 H   0  0  0  0  0  0  0  0  0  0  0  0
  1  2  2  0
  1  6  1  0
  1  7  1  0
  2  3  1  0
  2 18  1  0
  3  4  2  0
  3 19  1  0
  4  5  1  0
  4 20  1  0
  5  6  2  0
  5 21  1  0
  6 22  1  0
  7  8  1  0
  7 23  1  0
  7 24  1  0
  8  9  1  6
  8 10  1  0
  8 13  1  0
 10 11  2  0
 10 12  1  0
 12 25  1  0
 14 13  1  0
 13 26  1  0
 14 15  2  0
 14 16  2  0
 14 17  1  0
 17 27  1  0
 17 28  1  0
M  END

