rmsd225.gzmat
 OpenBabel08211713423D

 28 28  0  0  1  0  0  0  0  0999 V2000
    0.0000    0.0000    0.0000 C   0  0  0  0  0  0  0  0  0  0  0  0
    1.3966    0.0000    0.0000 C   0  0  0  0  0  0  0  0  0  0  0  0
    2.0921    0.0000    1.2065 C   0  0  0  0  0  0  0  0  0  0  0  0
    1.3962    0.0008    2.4146 C   0  0  0  0  0  0  0  0  0  0  0  0
    0.0026    0.0112    2.4149 C   0  0  0  0  0  0  0  0  0  0  0  0
   -0.6961    0.0131    1.2098 C   0  0  0  0  0  0  0  0  0  0  0  0
   -0.7473   -0.0323   -1.2951 C   0  0  0  0  0  0  0  0  0  0  0  0
   -0.7477   -1.4684   -1.8735 C   0  0  1  0  0  0  0  0  0  0  0  0
    0.3138   -1.8540   -1.9069 H   0  0  0  0  0  0  0  0  0  0  0  0
   -1.5997   -2.3451   -0.9503 C   0  0  0  0  0  0  0  0  0  0  0  0
   -2.7803   -2.2629   -0.7438 O   0  0  0  0  0  0  0  0  0  0  0  0
   -0.8332   -3.2884   -0.3586 O   0  0  0  0  0  0  0  0  0  0  0  0
   -1.3415   -1.4492   -3.2014 N   0  0  0  0  0  0  0  0  0  0  0  0
   -0.7320   -2.4654   -4.4548 S   0  0  0  0  0  0  0  0  0  0  0  0
   -1.4659   -2.1202   -5.6414 O   0  0  0  0  0  0  0  0  0  0  0  0
    0.7031   -2.4553   -4.3611 O   0  0  0  0  0  0  0  0  0  0  0  0
   -1.2369   -4.0498   -3.9946 N   0  0  0  0  0  0  0  0  0  0  0  0
    1.9424   -0.0053   -0.9423 H   0  0  0  0  0  0  0  0  0  0  0  0
    3.1806   -0.0026    1.2059 H   0  0  0  0  0  0  0  0  0  0  0  0
    1.9408   -0.0062    3.3564 H   0  0  0  0  0  0  0  0  0  0  0  0
   -0.5420    0.0178    3.3574 H   0  0  0  0  0  0  0  0  0  0  0  0
   -1.7850    0.0192    1.2138 H   0  0  0  0  0  0  0  0  0  0  0  0
   -0.2829    0.6538   -2.0389 H   0  0  0  0  0  0  0  0  0  0  0  0
   -1.7867    0.3377   -1.1769 H   0  0  0  0  0  0  0  0  0  0  0  0
   -1.3264   -3.8751    0.2668 H   0  0  0  0  0  0  0  0  0  0  0  0
   -2.3221   -1.1790   -3.2241 H   0  0  0  0  0  0  0  0  0  0  0  0
   -0.5333   -4.6973   -3.6824 H   0  0  0  0  0  0  0  0  0  0  0  0
   -1.9379   -4.5077   -4.5505 H   0  0  0  0  0  0  0  0  0  0  0  0
  1  2  2  0  0  0  0
  1  6  1  0  0  0  0
  2  3  1  0  0  0  0
  3  4  2  0  0  0  0
  4  5  1  0  0  0  0
  4 20  1  0  0  0  0
  5 21  1  0  0  0  0
  6 22  1  0  0  0  0
  6  5  2  0  0  0  0
  7 24  1  0  0  0  0
  7  1  1  0  0  0  0
  8  9  1  6  0  0  0
  8  7  1  0  0  0  0
  8 10  1  0  0  0  0
 10 11  2  0  0  0  0
 10 12  1  0  0  0  0
 12 25  1  0  0  0  0
 13  8  1  0  0  0  0
 14 16  2  0  0  0  0
 14 17  1  0  0  0  0
 14 13  1  0  0  0  0
 15 14  2  0  0  0  0
 17 27  1  0  0  0  0
 18  2  1  0  0  0  0
 19  3  1  0  0  0  0
 23  7  1  0  0  0  0
 26 13  1  0  0  0  0
 28 17  1  0  0  0  0
M  END
$$$$
