28

C          0.06970       -0.00040       -0.02830
C          1.46680        0.04920        0.08260
C          2.08490        0.01430        1.33370
C          1.31200       -0.07210        2.49570
C         -0.08080       -0.12160        2.39710
C         -0.69550       -0.08730        1.14290
C         -0.59010       -0.01770       -1.38430
C         -0.57030       -1.40730       -2.06290
H          0.47010       -1.70870       -2.24450
C         -1.25020       -2.43920       -1.16860
O         -2.44640       -2.60730       -1.14680
O         -0.39170       -3.08420       -0.37470
N         -1.25570       -1.32000       -3.34400
S         -0.81060       -2.40170       -4.53350
O         -1.82760       -2.27690       -5.56870
O          0.61400       -2.22830       -4.78350
N         -0.92590       -3.91350       -3.77510
H          2.07630        0.11780       -0.82300
H          3.17450        0.05750        1.40300
H          1.79470       -0.09660        3.47550
H         -0.69230       -0.18440        3.30060
H         -1.78580       -0.12980        1.06900
H         -0.09230        0.67580       -2.07810
H         -1.64080        0.30180       -1.29930
H         -0.91330       -3.65940        0.21210
H         -2.27300       -1.29210       -3.25470
H         -0.19030       -4.52370       -4.13180
H         -1.85130       -4.32200       -3.91010
