
     RDKit          3D

 28 28  0  0  0  0  0  0  0  0999 V2000
   -0.0612   -0.0198   -0.0276 C   0  0  0  0  0  0  0  0  0  0  0  0
    1.3324    0.1405   -0.0760 C   0  0  0  0  0  0  0  0  0  0  0  0
    2.0942    0.1406    1.0943 C   0  0  0  0  0  0  0  0  0  0  0  0
    1.4713   -0.0234    2.3344 C   0  0  0  0  0  0  0  0  0  0  0  0
    0.0843   -0.1824    2.3943 C   0  0  0  0  0  0  0  0  0  0  0  0
   -0.6789   -0.1799    1.2235 C   0  0  0  0  0  0  0  0  0  0  0  0
   -0.8669   -0.0814   -1.3020 C   0  0  0  0  0  0  0  0  0  0  0  0
   -1.0895   -1.5330   -1.8115 C   0  0  1  0  0  0  0  0  0  0  0  0
   -1.6097   -1.4790   -2.7791 H   0  0  0  0  0  0  0  0  0  0  0  0
    0.2435   -2.2330   -2.0220 C   0  0  0  0  0  0  0  0  0  0  0  0
    0.6511   -3.1593   -1.3714 O   0  0  0  0  0  0  0  0  0  0  0  0
    0.9479   -1.6547   -3.0115 O   0  0  0  0  0  0  0  0  0  0  0  0
   -1.8795   -2.3781   -0.9297 N   0  0  0  0  0  0  0  0  0  0  0  0
   -3.4830   -2.0051   -0.7035 S   0  0  0  0  0  0  0  0  0  0  0  0
   -3.7433   -1.1697    0.4702 O   0  0  0  0  0  0  0  0  0  0  0  0
   -3.9683   -1.5725   -2.0135 O   0  0  0  0  0  0  0  0  0  0  0  0
   -4.0187   -3.5278   -0.2630 N   0  0  0  0  0  0  0  0  0  0  0  0
    1.8230    0.2675   -1.0447 H   0  0  0  0  0  0  0  0  0  0  0  0
    3.1777    0.2713    1.0379 H   0  0  0  0  0  0  0  0  0  0  0  0
    2.0652   -0.0229    3.2516 H   0  0  0  0  0  0  0  0  0  0  0  0
   -0.4111   -0.3049    3.3607 H   0  0  0  0  0  0  0  0  0  0  0  0
   -1.7629   -0.3023    1.2758 H   0  0  0  0  0  0  0  0  0  0  0  0
   -0.3629    0.4793   -2.1026 H   0  0  0  0  0  0  0  0  0  0  0  0
   -1.8610    0.3684   -1.1625 H   0  0  0  0  0  0  0  0  0  0  0  0
    1.8025   -2.1172   -3.0575 H   0  0  0  0  0  0  0  0  0  0  0  0
   -1.4048   -2.6910   -0.0828 H   0  0  0  0  0  0  0  0  0  0  0  0
   -4.1152   -4.1414   -1.0723 H   0  0  0  0  0  0  0  0  0  0  0  0
   -4.8881   -3.4419    0.2636 H   0  0  0  0  0  0  0  0  0  0  0  0
  1  2  2  0
  1  6  1  0
  1  7  1  0
  2  3  1  0
  2 18  1  0
  3  4  2  0
  3 19  1  0
  4  5  1  0
  4 20  1  0
  5  6  2  0
  5 21  1  0
  6 22  1  0
  7  8  1  0
  7 23  1  0
  7 24  1  0
  8  9  1  6
  8 10  1  0
  8 13  1  0
 10 11  2  0
 10 12  1  0
 12 25  1  0
 14 13  1  0
 13 26  1  0
 14 15  2  0
 14 16  2  0
 14 17  1  0
 17 27  1  0
 17 28  1  0
M  END

