28
rmsd242.gzmat
C          0.00000        0.00000        0.00000
C          1.39700        0.00000        0.00000
C          2.09270        0.00000        1.20590
C          1.39680       -0.00080        2.41410
C          0.00320        0.00040        2.41440
C         -0.69570        0.00290        1.20920
C         -0.74220       -0.01250       -1.29850
C         -0.71410       -1.43070       -1.91740
H          0.34580       -1.82540       -1.89810
C         -1.62420       -2.32500       -1.07000
O         -2.80120       -2.19710       -0.86790
O         -0.91440       -3.34820       -0.54380
N         -1.22510       -1.37220       -3.27800
S         -0.52860       -2.33700       -4.52580
O         -1.03460       -1.82170       -5.76860
O          0.87050       -2.48290       -4.22450
N         -1.25160       -3.88900       -4.30840
H          1.94190       -0.00410       -0.94310
H          3.18120       -0.00160        1.20480
H          1.94200       -0.00250        3.35540
H         -0.54180       -0.00100        3.35650
H         -1.78470        0.00260        1.21430
H         -0.28500        0.70310       -2.01880
H         -1.78860        0.33610       -1.17620
H         -1.44390       -3.95540        0.02940
H         -2.19890       -1.09240       -3.35690
H         -0.67400       -4.63790       -3.96530
H         -1.89470       -4.21260       -5.01060
