rmsd213.gzmat
 OpenBabel08211713423D

 28 28  0  0  1  0  0  0  0  0999 V2000
    0.0000    0.0000    0.0000 C   0  0  0  0  0  0  0  0  0  0  0  0
    1.3973    0.0000    0.0000 C   0  0  0  0  0  0  0  0  0  0  0  0
    2.0933    0.0000    1.2055 C   0  0  0  0  0  0  0  0  0  0  0  0
    1.3982    0.0065    2.4143 C   0  0  0  0  0  0  0  0  0  0  0  0
    0.0050    0.0065    2.4148 C   0  0  0  0  0  0  0  0  0  0  0  0
   -0.6952    0.0023    1.2099 C   0  0  0  0  0  0  0  0  0  0  0  0
   -0.7400   -0.0089   -1.3000 C   0  0  0  0  0  0  0  0  0  0  0  0
   -0.6312   -1.3993   -1.9709 C   0  0  1  0  0  0  0  0  0  0  0  0
    0.4402   -1.7570   -1.9139 H   0  0  0  0  0  0  0  0  0  0  0  0
   -1.5472   -2.3569   -1.2044 C   0  0  0  0  0  0  0  0  0  0  0  0
   -2.7463   -2.3330   -1.1376 O   0  0  0  0  0  0  0  0  0  0  0  0
   -0.8135   -3.2987   -0.5709 O   0  0  0  0  0  0  0  0  0  0  0  0
   -1.0742   -1.3029   -3.3541 N   0  0  0  0  0  0  0  0  0  0  0  0
   -0.3070   -2.2439   -4.5807 S   0  0  0  0  0  0  0  0  0  0  0  0
   -0.8624   -1.8070   -5.8319 O   0  0  0  0  0  0  0  0  0  0  0  0
    1.1006   -2.2697   -4.2873 O   0  0  0  0  0  0  0  0  0  0  0  0
   -0.8971   -3.8422   -4.3064 N   0  0  0  0  0  0  0  0  0  0  0  0
    1.9425   -0.0044   -0.9435 H   0  0  0  0  0  0  0  0  0  0  0  0
    3.1814   -0.0077    1.2038 H   0  0  0  0  0  0  0  0  0  0  0  0
    1.9436    0.0134    3.3554 H   0  0  0  0  0  0  0  0  0  0  0  0
   -0.5393    0.0103    3.3573 H   0  0  0  0  0  0  0  0  0  0  0  0
   -1.7835   -0.0021    1.2181 H   0  0  0  0  0  0  0  0  0  0  0  0
   -0.3191    0.7570   -1.9910 H   0  0  0  0  0  0  0  0  0  0  0  0
   -1.8036    0.2788   -1.1724 H   0  0  0  0  0  0  0  0  0  0  0  0
   -1.3495   -3.9388   -0.0410 H   0  0  0  0  0  0  0  0  0  0  0  0
   -2.0561   -1.0629   -3.4689 H   0  0  0  0  0  0  0  0  0  0  0  0
   -0.2542   -4.5329   -3.9590 H   0  0  0  0  0  0  0  0  0  0  0  0
   -1.5306   -4.2348   -4.9811 H   0  0  0  0  0  0  0  0  0  0  0  0
  1  2  2  0  0  0  0
  1  6  1  0  0  0  0
  2  3  1  0  0  0  0
  3  4  2  0  0  0  0
  4  5  1  0  0  0  0
  4 20  1  0  0  0  0
  5 21  1  0  0  0  0
  6 22  1  0  0  0  0
  6  5  2  0  0  0  0
  7 24  1  0  0  0  0
  7  1  1  0  0  0  0
  8  9  1  1  0  0  0
  8  7  1  0  0  0  0
  8 10  1  0  0  0  0
 10 11  2  0  0  0  0
 10 12  1  0  0  0  0
 12 25  1  0  0  0  0
 13  8  1  0  0  0  0
 14 17  1  0  0  0  0
 14 16  2  0  0  0  0
 14 13  1  0  0  0  0
 15 14  2  0  0  0  0
 17 27  1  0  0  0  0
 18  2  1  0  0  0  0
 19  3  1  0  0  0  0
 23  7  1  0  0  0  0
 26 13  1  0  0  0  0
 28 17  1  0  0  0  0
M  END
$$$$
