rmsd160.gzmat
 OpenBabel08211713393D

 32 33  0  0  0  0  0  0  0  0999 V2000
    0.0000    0.0000    0.0000 C   0  0  0  0  0  0  0  0  0  0  0  0
    1.3818    0.0000    0.0000 C   0  0  0  0  0  0  0  0  0  0  0  0
    2.0587    0.0000    1.2360 C   0  0  0  0  0  0  0  0  0  0  0  0
    1.3789    0.0084    2.4535 C   0  0  0  0  0  0  0  0  0  0  0  0
   -0.0177    0.0108    2.4164 C   0  0  0  0  0  0  0  0  0  0  0  0
   -0.7292   -0.0057    1.2012 C   0  0  0  0  0  0  0  0  0  0  0  0
   -2.1872   -0.0366    1.1118 C   0  0  0  0  0  0  0  0  0  0  0  0
   -2.7902    0.2502    0.1038 O   0  0  0  0  0  0  0  0  0  0  0  0
   -2.9551   -0.4615    2.3113 C   0  0  0  0  0  0  0  0  0  0  0  0
   -3.9039    0.4329    2.7342 O   0  0  0  0  0  0  0  0  0  0  0  0
   -4.5280   -0.1422    3.8322 C   0  0  0  0  0  0  0  0  0  0  0  0
   -3.9996   -1.3734    4.0958 C   0  0  0  0  0  0  0  0  0  0  0  0
   -2.9723   -1.5870    3.1038 C   0  0  0  0  0  0  0  0  0  0  0  0
   -2.1449   -2.7731    3.0294 C   0  0  0  0  0  0  0  0  0  0  0  0
   -1.9407   -3.6056    3.8775 O   0  0  0  0  0  0  0  0  0  0  0  0
   -1.5575   -2.8807    1.8049 O   0  0  0  0  0  0  0  0  0  0  0  0
   -0.8081    0.0421    3.5097 O   0  0  0  0  0  0  0  0  0  0  0  0
   -0.1875    0.0268    4.7908 C   0  0  0  0  0  0  0  0  0  0  0  0
    3.4016   -0.0050    1.0946 O   0  0  0  0  0  0  0  0  0  0  0  0
    4.1939   -0.0090    2.2763 C   0  0  0  0  0  0  0  0  0  0  0  0
   -0.5523    0.0003   -0.9489 H   0  0  0  0  0  0  0  0  0  0  0  0
    1.9517   -0.0011   -0.9242 H   0  0  0  0  0  0  0  0  0  0  0  0
    1.9108    0.0130    3.3936 H   0  0  0  0  0  0  0  0  0  0  0  0
   -5.2870    0.4753    4.2514 H   0  0  0  0  0  0  0  0  0  0  0  0
   -4.2576   -2.0741    4.8654 H   0  0  0  0  0  0  0  0  0  0  0  0
   -0.9868   -3.6834    1.7152 H   0  0  0  0  0  0  0  0  0  0  0  0
    0.4170    0.9253    4.9404 H   0  0  0  0  0  0  0  0  0  0  0  0
    0.3971   -0.8881    4.9311 H   0  0  0  0  0  0  0  0  0  0  0  0
   -1.0585    0.0281    5.4629 H   0  0  0  0  0  0  0  0  0  0  0  0
    5.2147   -0.0084    1.8682 H   0  0  0  0  0  0  0  0  0  0  0  0
    4.0169   -0.9167    2.8614 H   0  0  0  0  0  0  0  0  0  0  0  0
    4.0175    0.8945    2.8681 H   0  0  0  0  0  0  0  0  0  0  0  0
  1  6  1  0  0  0  0
  2  1  2  0  0  0  0
  2  3  1  0  0  0  0
  3  4  2  0  0  0  0
  4 23  1  0  0  0  0
  5  4  1  0  0  0  0
  5 17  1  0  0  0  0
  6  5  2  0  0  0  0
  7  6  1  0  0  0  0
  7  9  1  0  0  0  0
  8  7  2  0  0  0  0
  9 10  1  0  0  0  0
  9 13  2  0  0  0  0
 10 11  1  0  0  0  0
 11 12  2  0  0  0  0
 11 24  1  0  0  0  0
 12 25  1  0  0  0  0
 13 12  1  0  0  0  0
 14 13  1  0  0  0  0
 14 15  2  0  0  0  0
 16 14  1  0  0  0  0
 17 18  1  0  0  0  0
 18 28  1  0  0  0  0
 18 27  1  0  0  0  0
 18 29  1  0  0  0  0
 19  3  1  0  0  0  0
 19 20  1  0  0  0  0
 20 31  1  0  0  0  0
 20 32  1  0  0  0  0
 21  1  1  0  0  0  0
 22  2  1  0  0  0  0
 26 16  1  0  0  0  0
 30 20  1  0  0  0  0
M  END
$$$$
