32
rmsd202.gzmat
C          0.00000        0.00000        0.00000
C          1.38870        0.00000        0.00000
C          2.05800        0.00000        1.23010
C          1.37000        0.00790        2.45200
C         -0.02050        0.00360        2.41620
C         -0.72950       -0.01190        1.19420
C         -2.18850       -0.04860        1.10680
O         -2.79580        0.30400        0.12290
C         -2.94470       -0.57730        2.27080
O         -3.95090        0.23630        2.72360
C         -4.55600       -0.43280        3.77740
C         -3.96000       -1.64410        3.98420
C         -2.90690       -1.74330        3.00170
C         -2.01270       -2.87610        2.87920
O         -1.76780       -3.73500        3.68840
O         -1.41350       -2.89490        1.65530
O         -0.81650        0.02910        3.50510
C         -0.19510        0.00050        4.78640
O          3.40010       -0.00390        1.39130
C          4.20650       -0.02080        0.21940
H         -0.54750        0.00370       -0.95130
H          1.93020       -0.00020       -0.93750
H          1.92990        0.01590        3.37980
H         -5.35530        0.11650        4.21670
H         -4.18720       -2.39900        4.71120
H         -0.78790       -3.65170        1.53990
H          0.41500        0.89500        4.94190
H          0.38820       -0.91710        4.91640
H         -1.06480        0.00020        5.45910
H          5.22220       -0.01170        0.63910
H          4.03420        0.87420       -0.38680
H          4.03740       -0.93660       -0.35560
