32
rmsd160.gzmat
C          0.00000        0.00000        0.00000
C          1.38180        0.00000        0.00000
C          2.05870        0.00000        1.23600
C          1.37890        0.00840        2.45350
C         -0.01770        0.01080        2.41640
C         -0.72920       -0.00570        1.20120
C         -2.18720       -0.03660        1.11180
O         -2.79020        0.25020        0.10380
C         -2.95510       -0.46150        2.31130
O         -3.90390        0.43290        2.73420
C         -4.52800       -0.14220        3.83220
C         -3.99960       -1.37340        4.09580
C         -2.97230       -1.58700        3.10380
C         -2.14490       -2.77310        3.02940
O         -1.94070       -3.60560        3.87750
O         -1.55750       -2.88070        1.80490
O         -0.80810        0.04210        3.50970
C         -0.18750        0.02680        4.79080
O          3.40160       -0.00500        1.09460
C          4.19390       -0.00900        2.27630
H         -0.55230        0.00030       -0.94890
H          1.95170       -0.00110       -0.92420
H          1.91080        0.01300        3.39360
H         -5.28700        0.47530        4.25140
H         -4.25760       -2.07410        4.86540
H         -0.98680       -3.68340        1.71520
H          0.41700        0.92530        4.94040
H          0.39710       -0.88810        4.93110
H         -1.05850        0.02810        5.46290
H          5.21470       -0.00840        1.86820
H          4.01690       -0.91670        2.86140
H          4.01750        0.89450        2.86810
