rmsd231.gzmat
 OpenBabel08211713393D

 32 33  0  0  0  0  0  0  0  0999 V2000
    0.0000    0.0000    0.0000 C   0  0  0  0  0  0  0  0  0  0  0  0
    1.3873    0.0000    0.0000 C   0  0  0  0  0  0  0  0  0  0  0  0
    2.0554    0.0000    1.2315 C   0  0  0  0  0  0  0  0  0  0  0  0
    1.3649   -0.0060    2.4511 C   0  0  0  0  0  0  0  0  0  0  0  0
   -0.0264   -0.0006    2.4157 C   0  0  0  0  0  0  0  0  0  0  0  0
   -0.7359    0.0077    1.1929 C   0  0  0  0  0  0  0  0  0  0  0  0
   -2.1923    0.0251    1.0871 C   0  0  0  0  0  0  0  0  0  0  0  0
   -2.7714    0.0757    0.0267 O   0  0  0  0  0  0  0  0  0  0  0  0
   -2.9985    0.0006    2.3371 C   0  0  0  0  0  0  0  0  0  0  0  0
   -3.6487    1.1739    2.6188 O   0  0  0  0  0  0  0  0  0  0  0  0
   -4.3673    0.9565    3.7879 C   0  0  0  0  0  0  0  0  0  0  0  0
   -4.1841   -0.3201    4.2335 C   0  0  0  0  0  0  0  0  0  0  0  0
   -3.2926   -0.9510    3.2864 C   0  0  0  0  0  0  0  0  0  0  0  0
   -2.8303   -2.3190    3.3882 C   0  0  0  0  0  0  0  0  0  0  0  0
   -2.8828   -3.0652    4.3335 O   0  0  0  0  0  0  0  0  0  0  0  0
   -2.2805   -2.7357    2.2135 O   0  0  0  0  0  0  0  0  0  0  0  0
   -0.8148    0.0062    3.5090 O   0  0  0  0  0  0  0  0  0  0  0  0
   -0.1871   -0.0331    4.7880 C   0  0  0  0  0  0  0  0  0  0  0  0
    3.3967    0.0117    1.3941 O   0  0  0  0  0  0  0  0  0  0  0  0
    4.2053    0.0211    0.2232 C   0  0  0  0  0  0  0  0  0  0  0  0
   -0.5461   -0.0037   -0.9532 H   0  0  0  0  0  0  0  0  0  0  0  0
    1.9301   -0.0003   -0.9367 H   0  0  0  0  0  0  0  0  0  0  0  0
    1.9243   -0.0119    3.3795 H   0  0  0  0  0  0  0  0  0  0  0  0
   -4.9141    1.8130    4.1040 H   0  0  0  0  0  0  0  0  0  0  0  0
   -4.5930   -0.8054    5.0978 H   0  0  0  0  0  0  0  0  0  0  0  0
   -1.9609   -3.6708    2.2428 H   0  0  0  0  0  0  0  0  0  0  0  0
    0.4199    0.8616    4.9513 H   0  0  0  0  0  0  0  0  0  0  0  0
    0.3986   -0.9500    4.9067 H   0  0  0  0  0  0  0  0  0  0  0  0
   -1.0550   -0.0446    5.4636 H   0  0  0  0  0  0  0  0  0  0  0  0
    5.2194    0.0592    0.6460 H   0  0  0  0  0  0  0  0  0  0  0  0
    4.0095    0.9118   -0.3821 H   0  0  0  0  0  0  0  0  0  0  0  0
    4.0626   -0.8987   -0.3533 H   0  0  0  0  0  0  0  0  0  0  0  0
  1  2  2  0  0  0  0
  1  6  1  0  0  0  0
  2  3  1  0  0  0  0
  3 19  1  0  0  0  0
  3  4  2  0  0  0  0
  4 23  1  0  0  0  0
  5  4  1  0  0  0  0
  5 17  1  0  0  0  0
  6  5  2  0  0  0  0
  7  6  1  0  0  0  0
  7  9  1  0  0  0  0
  8  7  2  0  0  0  0
  9 10  1  0  0  0  0
  9 13  2  0  0  0  0
 10 11  1  0  0  0  0
 11 24  1  0  0  0  0
 11 12  2  0  0  0  0
 12 25  1  0  0  0  0
 13 14  1  0  0  0  0
 13 12  1  0  0  0  0
 14 15  2  0  0  0  0
 16 26  1  0  0  0  0
 16 14  1  0  0  0  0
 17 18  1  0  0  0  0
 18 28  1  0  0  0  0
 18 27  1  0  0  0  0
 18 29  1  0  0  0  0
 20 30  1  0  0  0  0
 20 19  1  0  0  0  0
 21  1  1  0  0  0  0
 22  2  1  0  0  0  0
 31 20  1  0  0  0  0
 32 20  1  0  0  0  0
M  END
$$$$
