32
rmsd148.gzmat
C          0.00000        0.00000        0.00000
C          1.38180        0.00000        0.00000
C          2.05880        0.00000        1.23600
C          1.37900       -0.01380        2.45350
C         -0.01780       -0.01580        2.41640
C         -0.72920        0.00170        1.20120
C         -2.18690        0.02160        1.11130
O         -2.78710       -0.26130        0.10080
C         -2.95890        0.42620        2.31540
O         -3.87920       -0.49400        2.74490
C         -4.51580        0.06630        3.84370
C         -4.02420        1.31410        4.09920
C         -3.00580        1.55370        3.10370
C         -2.21020        2.76110        3.02930
O         -2.05220        3.61150        3.86930
O         -1.59050        2.86580        1.82070
O         -0.80750       -0.04860        3.51000
C         -0.18440       -0.04960        4.79020
O          3.40160        0.00780        1.09440
C          4.19410        0.05650        2.27450
H         -0.55280        0.00130       -0.94870
H          1.95160        0.00230       -0.92400
H          1.91190       -0.02410        3.39320
H         -5.25230       -0.57360        4.26940
H         -4.30050        2.01070        4.86650
H         -1.03770        3.68160        1.73640
H          0.41850        0.85250        4.93320
H          0.40280       -0.96080        4.93480
H         -1.05390       -0.03690        5.46400
H          5.21440        0.05060        1.86500
H          4.02770       -0.82730        2.89710
H          4.00830        0.98150        2.82860
