32
rmsd206.gzmat
C          0.00000        0.00000        0.00000
C          1.38860        0.00000        0.00000
C          2.05750        0.00000        1.23040
C          1.36940        0.00950        2.45210
C         -0.02130        0.00910        2.41620
C         -0.72990       -0.00790        1.19390
C         -2.18860       -0.04020        1.10520
O         -2.79300        0.30830        0.11800
C         -2.94950       -0.55470        2.27250
O         -3.94690        0.27210        2.72010
C         -4.56130       -0.38500        3.77600
C         -3.98050       -1.60240        3.98860
C         -2.92720       -1.71830        3.00800
C         -2.04990       -2.86470        2.89130
O         -1.85330       -3.74800        3.68720
O         -1.40310       -2.86480        1.69190
O         -0.81700        0.04380        3.50530
C         -0.19370        0.02830        4.78610
O          3.39980       -0.00600        1.39090
C          4.20520       -0.00710        0.21770
H         -0.54710        0.00170       -0.95140
H          1.93040       -0.00030       -0.93740
H          1.92960        0.01650        3.37960
H         -5.35540        0.17510        4.21090
H         -4.21850       -2.35210        4.71780
H         -0.79030       -3.63280        1.58040
H          0.43310        0.91360        4.92530
H          0.37260       -0.89740        4.93160
H         -1.06160        0.05610        5.46030
H          5.22100       -0.01220        0.63650
H          4.03750        0.89980       -0.37160
H          4.03090       -0.91110       -0.37390
