32
rmsd214.gzmat
C          0.00000        0.00000        0.00000
C          1.38870        0.00000        0.00000
C          2.05750        0.00000        1.23020
C          1.36950        0.00970        2.45220
C         -0.02120        0.00950        2.41630
C         -0.72950       -0.00790        1.19420
C         -2.18860       -0.03800        1.10640
O         -2.79320        0.33420        0.12760
C         -2.94960       -0.58000        2.26090
O         -3.98150        0.21350        2.69190
C         -4.59330       -0.46530        3.73510
C         -3.97680       -1.66360        3.95720
C         -2.90260       -1.74330        2.99560
C         -1.98750       -2.86130        2.89290
O         -1.75960       -3.72600        3.70120
O         -1.34500       -2.85740        1.69130
O         -0.81760        0.04480        3.50520
C         -0.19500        0.02950        4.78630
O          3.39990       -0.00630        1.39030
C          4.20440       -0.01340        0.21670
H         -0.54690        0.00170       -0.95150
H          1.93060        0.00000       -0.93750
H          1.92990        0.01680        3.37960
H         -5.41290        0.06790        4.15660
H         -4.20380       -2.42140        4.68140
H         -0.70790       -3.60640        1.58840
H          0.42510        0.91940        4.92820
H          0.37860       -0.89230        4.92920
H         -1.06320        0.04830        5.46030
H          5.22060       -0.01930        0.63480
H          4.03830        0.89200       -0.37530
H          4.02710       -0.91890       -0.37210
