
     RDKit          3D

 32 33  0  0  0  0  0  0  0  0999 V2000
   -0.0788   -0.1907    0.0556 C   0  0  0  0  0  0  0  0  0  0  0  0
    1.2970   -0.0600   -0.0276 C   0  0  0  0  0  0  0  0  0  0  0  0
    2.0448    0.0653    1.1551 C   0  0  0  0  0  0  0  0  0  0  0  0
    1.3991    0.0497    2.4007 C   0  0  0  0  0  0  0  0  0  0  0  0
    0.0034   -0.0779    2.4655 C   0  0  0  0  0  0  0  0  0  0  0  0
   -0.7661   -0.1796    1.2833 C   0  0  0  0  0  0  0  0  0  0  0  0
   -2.2461   -0.3398    1.2091 C   0  0  0  0  0  0  0  0  0  0  0  0
   -2.7639   -0.8671    0.2372 O   0  0  0  0  0  0  0  0  0  0  0  0
   -3.1521    0.1522    2.2880 C   0  0  0  0  0  0  0  0  0  0  0  0
   -4.3007   -0.5577    2.4206 O   0  0  0  0  0  0  0  0  0  0  0  0
   -5.0401    0.0008    3.4044 C   0  0  0  0  0  0  0  0  0  0  0  0
   -4.3943    1.0848    3.9268 C   0  0  0  0  0  0  0  0  0  0  0  0
   -3.1697    1.1973    3.1939 C   0  0  0  0  0  0  0  0  0  0  0  0
   -2.1570    2.2376    3.4526 C   0  0  0  0  0  0  0  0  0  0  0  0
   -1.9837    2.7672    4.5270 O   0  0  0  0  0  0  0  0  0  0  0  0
   -1.4494    2.5697    2.3567 O   0  0  0  0  0  0  0  0  0  0  0  0
   -0.6557   -0.1278    3.6443 O   0  0  0  0  0  0  0  0  0  0  0  0
    0.0299    0.0636    4.8629 C   0  0  0  0  0  0  0  0  0  0  0  0
    3.3816    0.1915    1.0087 O   0  0  0  0  0  0  0  0  0  0  0  0
    4.1979    0.3176    2.1515 C   0  0  0  0  0  0  0  0  0  0  0  0
   -0.6803   -0.2998   -0.8481 H   0  0  0  0  0  0  0  0  0  0  0  0
    1.8202   -0.0517   -0.9843 H   0  0  0  0  0  0  0  0  0  0  0  0
    1.9757    0.1202    3.3180 H   0  0  0  0  0  0  0  0  0  0  0  0
   -5.9891   -0.4813    3.6228 H   0  0  0  0  0  0  0  0  0  0  0  0
   -4.7289    1.7455    4.7222 H   0  0  0  0  0  0  0  0  0  0  0  0
   -0.7895    3.2271    2.6350 H   0  0  0  0  0  0  0  0  0  0  0  0
    0.5399    1.0415    4.8894 H   0  0  0  0  0  0  0  0  0  0  0  0
    0.7639   -0.7402    5.0461 H   0  0  0  0  0  0  0  0  0  0  0  0
   -0.7352    0.0471    5.6487 H   0  0  0  0  0  0  0  0  0  0  0  0
    5.2303    0.4088    1.7900 H   0  0  0  0  0  0  0  0  0  0  0  0
    4.1241   -0.5688    2.8064 H   0  0  0  0  0  0  0  0  0  0  0  0
    3.9424    1.2175    2.7391 H   0  0  0  0  0  0  0  0  0  0  0  0
  1  2  2  0
  1  6  1  0
  1 21  1  0
  2  3  1  0
  2 22  1  0
  3  4  2  0
  3 19  1  0
  4  5  1  0
  4 23  1  0
  5  6  2  0
  5 17  1  0
  6  7  1  0
  7  8  2  0
  7  9  1  0
  9 10  1  0
  9 13  2  0
 10 11  1  0
 11 12  2  0
 11 24  1  0
 12 13  1  0
 12 25  1  0
 13 14  1  0
 14 15  2  0
 14 16  1  0
 16 26  1  0
 17 18  1  0
 18 27  1  0
 18 28  1  0
 18 29  1  0
 19 20  1  0
 20 30  1  0
 20 31  1  0
 20 32  1  0
M  END

