rmsd212.gzmat
 OpenBabel08211713393D

 32 33  0  0  0  0  0  0  0  0999 V2000
    0.0000    0.0000    0.0000 C   0  0  0  0  0  0  0  0  0  0  0  0
    1.3883    0.0000    0.0000 C   0  0  0  0  0  0  0  0  0  0  0  0
    2.0569    0.0000    1.2305 C   0  0  0  0  0  0  0  0  0  0  0  0
    1.3685   -0.0172    2.4518 C   0  0  0  0  0  0  0  0  0  0  0  0
   -0.0220   -0.0242    2.4159 C   0  0  0  0  0  0  0  0  0  0  0  0
   -0.7307    0.0017    1.1942 C   0  0  0  0  0  0  0  0  0  0  0  0
   -2.1889    0.0374    1.1029 C   0  0  0  0  0  0  0  0  0  0  0  0
   -2.7891   -0.2711    0.0995 O   0  0  0  0  0  0  0  0  0  0  0  0
   -2.9603    0.5000    2.2850 C   0  0  0  0  0  0  0  0  0  0  0  0
   -3.9517   -0.3565    2.6902 O   0  0  0  0  0  0  0  0  0  0  0  0
   -4.5855    0.2516    3.7636 C   0  0  0  0  0  0  0  0  0  0  0  0
   -4.0222    1.4670    4.0297 C   0  0  0  0  0  0  0  0  0  0  0  0
   -2.9596    1.6335    3.0662 C   0  0  0  0  0  0  0  0  0  0  0  0
   -2.0896    2.7901    3.0077 C   0  0  0  0  0  0  0  0  0  0  0  0
   -1.8831    3.6220    3.8550 O   0  0  0  0  0  0  0  0  0  0  0  0
   -1.4625    2.8690    1.8006 O   0  0  0  0  0  0  0  0  0  0  0  0
   -0.8158   -0.0724    3.5053 O   0  0  0  0  0  0  0  0  0  0  0  0
   -0.1906   -0.0758    4.7853 C   0  0  0  0  0  0  0  0  0  0  0  0
    3.3989    0.0156    1.3910 O   0  0  0  0  0  0  0  0  0  0  0  0
    4.2047    0.0080    0.2181 C   0  0  0  0  0  0  0  0  0  0  0  0
   -0.5470    0.0033   -0.9517 H   0  0  0  0  0  0  0  0  0  0  0  0
    1.9306    0.0018   -0.9371 H   0  0  0  0  0  0  0  0  0  0  0  0
    1.9283   -0.0239    3.3796 H   0  0  0  0  0  0  0  0  0  0  0  0
   -5.3769   -0.3348    4.1679 H   0  0  0  0  0  0  0  0  0  0  0  0
   -4.2780    2.1845    4.7844 H   0  0  0  0  0  0  0  0  0  0  0  0
   -0.8518    3.6436    1.7295 H   0  0  0  0  0  0  0  0  0  0  0  0
    0.3827    0.8442    4.9405 H   0  0  0  0  0  0  0  0  0  0  0  0
    0.4302   -0.9673    4.9128 H   0  0  0  0  0  0  0  0  0  0  0  0
   -1.0574   -0.1056    5.4610 H   0  0  0  0  0  0  0  0  0  0  0  0
    5.2203    0.0391    0.6370 H   0  0  0  0  0  0  0  0  0  0  0  0
    4.0152    0.8960   -0.3934 H   0  0  0  0  0  0  0  0  0  0  0  0
    4.0525   -0.9146   -0.3510 H   0  0  0  0  0  0  0  0  0  0  0  0
  1  2  2  0  0  0  0
  1  6  1  0  0  0  0
  2  3  1  0  0  0  0
  3 19  1  0  0  0  0
  3  4  2  0  0  0  0
  4 23  1  0  0  0  0
  5  4  1  0  0  0  0
  5 17  1  0  0  0  0
  6  5  2  0  0  0  0
  7  6  1  0  0  0  0
  7  9  1  0  0  0  0
  8  7  2  0  0  0  0
  9 10  1  0  0  0  0
  9 13  2  0  0  0  0
 10 11  1  0  0  0  0
 11 12  2  0  0  0  0
 11 24  1  0  0  0  0
 12 25  1  0  0  0  0
 13 12  1  0  0  0  0
 14 13  1  0  0  0  0
 14 15  2  0  0  0  0
 16 14  1  0  0  0  0
 17 18  1  0  0  0  0
 18 28  1  0  0  0  0
 18 27  1  0  0  0  0
 18 29  1  0  0  0  0
 20 30  1  0  0  0  0
 20 19  1  0  0  0  0
 21  1  1  0  0  0  0
 22  2  1  0  0  0  0
 26 16  1  0  0  0  0
 31 20  1  0  0  0  0
 32 20  1  0  0  0  0
M  END
$$$$
