32
rmsd191.gzmat
C          0.00000        0.00000        0.00000
C          1.38850        0.00000        0.00000
C          2.05750        0.00000        1.23010
C          1.37000        0.00540        2.45230
C         -0.02050        0.00120        2.41640
C         -0.72910       -0.01290        1.19440
C         -2.18820       -0.04670        1.10810
O         -2.79610        0.31500        0.12790
C         -2.94470       -0.57980        2.27000
O         -3.93750        0.24170        2.73760
C         -4.54700       -0.43220        3.78610
C         -3.96770       -1.65440        3.97440
C         -2.91980       -1.75560        2.98610
C         -2.03910       -2.89670        2.84780
O         -1.83900       -3.79410        3.62700
O         -1.39120       -2.87030        1.64930
O         -0.81680        0.02950        3.50550
C         -0.19420        0.00310        4.78660
O          3.40010        0.00080        1.39050
C          4.20540       -0.00800        0.21750
H         -0.54670        0.00480       -0.95150
H          1.92990        0.00100       -0.93740
H          1.93040        0.01320        3.37980
H         -5.33590        0.12320        4.23660
H         -4.20340       -2.41630        4.69140
H         -0.77590       -3.63400        1.52240
H          0.42330        0.89350        4.93810
H          0.38260       -0.91820        4.92050
H         -1.06240        0.01260        5.46080
H          5.22160       -0.00190        0.63660
H          4.03230        0.89170       -0.38160
H          4.03540       -0.91950       -0.36430
