rmsd89.gzmat
 OpenBabel08211713393D

 29 30  0  0  0  0  0  0  0  0999 V2000
    0.0000    0.0000    0.0000 Cl  0  0  0  0  0  0  0  0  0  0  0  0
    1.7002    0.0000    0.0000 C   0  0  0  0  0  0  0  0  0  0  0  0
    2.3763    0.0000    1.2072 C   0  0  0  0  0  0  0  0  0  0  0  0
    3.7734   -0.0045    1.2026 C   0  0  0  0  0  0  0  0  0  0  0  0
    4.5301   -0.0082    2.4990 C   0  0  0  0  0  0  0  0  0  0  0  0
    5.0335   -1.3599    2.8145 N   0  0  0  0  0  0  0  0  0  0  0  0
    6.3450   -1.6851    2.4033 C   0  0  0  0  0  0  0  0  0  0  0  0
    7.0665   -0.8600    1.8843 O   0  0  0  0  0  0  0  0  0  0  0  0
    6.7794   -2.9890    2.6559 N   0  0  0  0  0  0  0  0  0  0  0  0
    7.7428   -3.2187    2.3941 H   0  0  0  0  0  0  0  0  0  0  0  0
    5.9757   -4.0109    3.2303 C   0  0  0  0  0  0  0  0  0  0  0  0
    6.4666   -5.0935    3.4185 O   0  0  0  0  0  0  0  0  0  0  0  0
    4.6102   -3.5814    3.5166 C   0  0  0  0  0  0  0  0  0  0  0  0
    3.8166   -4.5141    4.0095 F   0  0  0  0  0  0  0  0  0  0  0  0
    4.1607   -2.3189    3.2974 C   0  0  0  0  0  0  0  0  0  0  0  0
    4.4719   -0.0051   -0.0058 C   0  0  0  0  0  0  0  0  0  0  0  0
    3.7927   -0.0034   -1.2206 C   0  0  0  0  0  0  0  0  0  0  0  0
    2.3960   -0.0027   -1.2204 C   0  0  0  0  0  0  0  0  0  0  0  0
    1.5995   -0.0006   -2.3138 O   0  0  0  0  0  0  0  0  0  0  0  0
    2.2390   -0.0437   -3.5840 C   0  0  0  0  0  0  0  0  0  0  0  0
    1.8243    0.0067    2.1487 H   0  0  0  0  0  0  0  0  0  0  0  0
    3.9040    0.3480    3.3504 H   0  0  0  0  0  0  0  0  0  0  0  0
    5.4025    0.6970    2.4445 H   0  0  0  0  0  0  0  0  0  0  0  0
    3.1290   -2.0011    3.4998 H   0  0  0  0  0  0  0  0  0  0  0  0
    5.5677   -0.0094    0.0028 H   0  0  0  0  0  0  0  0  0  0  0  0
    4.3533   -0.0021   -2.1513 H   0  0  0  0  0  0  0  0  0  0  0  0
    1.3764   -0.0672   -4.2661 H   0  0  0  0  0  0  0  0  0  0  0  0
    2.8363   -0.9535   -3.6950 H   0  0  0  0  0  0  0  0  0  0  0  0
    2.8363    0.8572   -3.7523 H   0  0  0  0  0  0  0  0  0  0  0  0
  1  2  1  0  0  0  0
  2  3  2  0  0  0  0
  3 21  1  0  0  0  0
  4  3  1  0  0  0  0
  4  5  1  0  0  0  0
  5  6  1  0  0  0  0
  5 22  1  0  0  0  0
  6 15  1  0  0  0  0
  7  9  1  0  0  0  0
  7  6  1  0  0  0  0
  8  7  2  0  0  0  0
  9 11  1  0  0  0  0
 10  9  1  0  0  0  0
 11 12  2  0  0  0  0
 11 13  1  0  0  0  0
 13 14  1  0  0  0  0
 15 24  1  0  0  0  0
 15 13  2  0  0  0  0
 16 25  1  0  0  0  0
 16  4  2  0  0  0  0
 17 18  2  0  0  0  0
 17 16  1  0  0  0  0
 18  2  1  0  0  0  0
 19 18  1  0  0  0  0
 20 19  1  0  0  0  0
 23  5  1  0  0  0  0
 26 17  1  0  0  0  0
 27 20  1  0  0  0  0
 28 20  1  0  0  0  0
 29 20  1  0  0  0  0
M  END
$$$$
