rmsd130.gzmat
 OpenBabel08211713393D

 29 30  0  0  0  0  0  0  0  0999 V2000
    0.0000    0.0000    0.0000 Cl  0  0  0  0  0  0  0  0  0  0  0  0
    1.7002    0.0000    0.0000 C   0  0  0  0  0  0  0  0  0  0  0  0
    2.3766    0.0000    1.2072 C   0  0  0  0  0  0  0  0  0  0  0  0
    3.7738   -0.0040    1.2029 C   0  0  0  0  0  0  0  0  0  0  0  0
    4.5335   -0.0451    2.4977 C   0  0  0  0  0  0  0  0  0  0  0  0
    4.9627   -1.4263    2.8003 N   0  0  0  0  0  0  0  0  0  0  0  0
    6.2272   -1.8353    2.3199 C   0  0  0  0  0  0  0  0  0  0  0  0
    7.0011   -1.0429    1.8269 O   0  0  0  0  0  0  0  0  0  0  0  0
    6.5557   -3.1848    2.4752 N   0  0  0  0  0  0  0  0  0  0  0  0
    7.4844   -3.4785    2.1576 H   0  0  0  0  0  0  0  0  0  0  0  0
    5.6882   -4.1703    3.0188 C   0  0  0  0  0  0  0  0  0  0  0  0
    6.0827   -5.3042    3.1027 O   0  0  0  0  0  0  0  0  0  0  0  0
    4.3848   -3.6421    3.4108 C   0  0  0  0  0  0  0  0  0  0  0  0
    3.5433   -4.5282    3.9099 F   0  0  0  0  0  0  0  0  0  0  0  0
    4.0357   -2.3369    3.2794 C   0  0  0  0  0  0  0  0  0  0  0  0
    4.4719    0.0063   -0.0057 C   0  0  0  0  0  0  0  0  0  0  0  0
    3.7928    0.0067   -1.2205 C   0  0  0  0  0  0  0  0  0  0  0  0
    2.3962   -0.0046   -1.2206 C   0  0  0  0  0  0  0  0  0  0  0  0
    1.6004   -0.0202   -2.3146 O   0  0  0  0  0  0  0  0  0  0  0  0
    2.2431   -0.0486   -3.5838 C   0  0  0  0  0  0  0  0  0  0  0  0
    1.8251    0.0039    2.1491 H   0  0  0  0  0  0  0  0  0  0  0  0
    3.9304    0.3401    3.3525 H   0  0  0  0  0  0  0  0  0  0  0  0
    5.4446    0.6092    2.4463 H   0  0  0  0  0  0  0  0  0  0  0  0
    3.0477   -1.9460    3.5572 H   0  0  0  0  0  0  0  0  0  0  0  0
    5.5678    0.0072    0.0028 H   0  0  0  0  0  0  0  0  0  0  0  0
    4.3530    0.0139   -2.1516 H   0  0  0  0  0  0  0  0  0  0  0  0
    1.3826   -0.1080   -4.2668 H   0  0  0  0  0  0  0  0  0  0  0  0
    2.8752   -0.9354   -3.6893 H   0  0  0  0  0  0  0  0  0  0  0  0
    2.8056    0.8740   -3.7554 H   0  0  0  0  0  0  0  0  0  0  0  0
  1  2  1  0  0  0  0
  2  3  2  0  0  0  0
  3 21  1  0  0  0  0
  4  3  1  0  0  0  0
  4  5  1  0  0  0  0
  5  6  1  0  0  0  0
  5 22  1  0  0  0  0
  6 15  1  0  0  0  0
  7  9  1  0  0  0  0
  7  6  1  0  0  0  0
  8  7  2  0  0  0  0
  9 11  1  0  0  0  0
 10  9  1  0  0  0  0
 11 12  2  0  0  0  0
 11 13  1  0  0  0  0
 13 14  1  0  0  0  0
 15 13  2  0  0  0  0
 15 24  1  0  0  0  0
 16 25  1  0  0  0  0
 16  4  2  0  0  0  0
 17 16  1  0  0  0  0
 18 17  2  0  0  0  0
 18  2  1  0  0  0  0
 19 18  1  0  0  0  0
 20 19  1  0  0  0  0
 23  5  1  0  0  0  0
 26 17  1  0  0  0  0
 27 20  1  0  0  0  0
 28 20  1  0  0  0  0
 29 20  1  0  0  0  0
M  END
$$$$
