rmsd161.gzmat
 OpenBabel08211713393D

 29 30  0  0  0  0  0  0  0  0999 V2000
    0.0000    0.0000    0.0000 Cl  0  0  0  0  0  0  0  0  0  0  0  0
    1.7000    0.0000    0.0000 C   0  0  0  0  0  0  0  0  0  0  0  0
    2.3772    0.0000    1.2067 C   0  0  0  0  0  0  0  0  0  0  0  0
    3.7744   -0.0034    1.2008 C   0  0  0  0  0  0  0  0  0  0  0  0
    4.5332    0.0126    2.4964 C   0  0  0  0  0  0  0  0  0  0  0  0
    4.9823    1.3827    2.8180 N   0  0  0  0  0  0  0  0  0  0  0  0
    6.2379    1.7897    2.3131 C   0  0  0  0  0  0  0  0  0  0  0  0
    6.9890    1.0007    1.7800 O   0  0  0  0  0  0  0  0  0  0  0  0
    6.5858    3.1313    2.4911 N   0  0  0  0  0  0  0  0  0  0  0  0
    7.5088    3.4225    2.1553 H   0  0  0  0  0  0  0  0  0  0  0  0
    5.7458    4.1114    3.0856 C   0  0  0  0  0  0  0  0  0  0  0  0
    6.1569    5.2380    3.1888 O   0  0  0  0  0  0  0  0  0  0  0  0
    4.4474    3.5875    3.4994 C   0  0  0  0  0  0  0  0  0  0  0  0
    3.6318    4.4687    4.0487 F   0  0  0  0  0  0  0  0  0  0  0  0
    4.0792    2.2901    3.3440 C   0  0  0  0  0  0  0  0  0  0  0  0
    4.4718   -0.0053   -0.0080 C   0  0  0  0  0  0  0  0  0  0  0  0
    3.7916    0.0012   -1.2222 C   0  0  0  0  0  0  0  0  0  0  0  0
    2.3950    0.0022   -1.2207 C   0  0  0  0  0  0  0  0  0  0  0  0
    1.5982    0.0031   -2.3139 O   0  0  0  0  0  0  0  0  0  0  0  0
    2.2397    0.0228   -3.5840 C   0  0  0  0  0  0  0  0  0  0  0  0
    1.8267    0.0010    2.1490 H   0  0  0  0  0  0  0  0  0  0  0  0
    5.4346   -0.6542    2.4378 H   0  0  0  0  0  0  0  0  0  0  0  0
    3.9228   -0.3761    3.3443 H   0  0  0  0  0  0  0  0  0  0  0  0
    3.0940    1.9034    3.6377 H   0  0  0  0  0  0  0  0  0  0  0  0
    5.5680   -0.0063   -0.0017 H   0  0  0  0  0  0  0  0  0  0  0  0
    4.3520    0.0065   -2.1530 H   0  0  0  0  0  0  0  0  0  0  0  0
    1.3783    0.0046   -4.2683 H   0  0  0  0  0  0  0  0  0  0  0  0
    2.8602   -0.8673   -3.7268 H   0  0  0  0  0  0  0  0  0  0  0  0
    2.8148    0.9445   -3.7171 H   0  0  0  0  0  0  0  0  0  0  0  0
  1  2  1  0  0  0  0
  2  3  2  0  0  0  0
  3 21  1  0  0  0  0
  4  3  1  0  0  0  0
  4  5  1  0  0  0  0
  5  6  1  0  0  0  0
  5 23  1  0  0  0  0
  6 15  1  0  0  0  0
  7  9  1  0  0  0  0
  7  6  1  0  0  0  0
  8  7  2  0  0  0  0
  9 11  1  0  0  0  0
 10  9  1  0  0  0  0
 11 12  2  0  0  0  0
 11 13  1  0  0  0  0
 13 14  1  0  0  0  0
 15 13  2  0  0  0  0
 15 24  1  0  0  0  0
 16 25  1  0  0  0  0
 16  4  2  0  0  0  0
 17 18  2  0  0  0  0
 17 16  1  0  0  0  0
 18  2  1  0  0  0  0
 19 18  1  0  0  0  0
 20 19  1  0  0  0  0
 22  5  1  0  0  0  0
 26 17  1  0  0  0  0
 27 20  1  0  0  0  0
 28 20  1  0  0  0  0
 29 20  1  0  0  0  0
M  END
$$$$
