rmsd165.gzmat
 OpenBabel08211713393D

 29 30  0  0  0  0  0  0  0  0999 V2000
    0.0000    0.0000    0.0000 Cl  0  0  0  0  0  0  0  0  0  0  0  0
    1.7004    0.0000    0.0000 C   0  0  0  0  0  0  0  0  0  0  0  0
    2.3756    0.0000    1.2077 C   0  0  0  0  0  0  0  0  0  0  0  0
    3.7731    0.0119    1.2055 C   0  0  0  0  0  0  0  0  0  0  0  0
    4.5286    0.0156    2.5032 C   0  0  0  0  0  0  0  0  0  0  0  0
    4.9291    1.3868    2.8777 N   0  0  0  0  0  0  0  0  0  0  0  0
    6.1760    1.8566    2.4089 C   0  0  0  0  0  0  0  0  0  0  0  0
    6.9382    1.1306    1.8070 O   0  0  0  0  0  0  0  0  0  0  0  0
    6.5023    3.1829    2.7064 N   0  0  0  0  0  0  0  0  0  0  0  0
    7.4207    3.5168    2.3992 H   0  0  0  0  0  0  0  0  0  0  0  0
    5.6501    4.0911    3.3913 C   0  0  0  0  0  0  0  0  0  0  0  0
    6.0478    5.2062    3.6079 O   0  0  0  0  0  0  0  0  0  0  0  0
    4.3569    3.5145    3.7466 C   0  0  0  0  0  0  0  0  0  0  0  0
    3.5215    4.3343    4.3568 F   0  0  0  0  0  0  0  0  0  0  0  0
    4.0110    2.2289    3.4790 C   0  0  0  0  0  0  0  0  0  0  0  0
    4.4722    0.0258   -0.0025 C   0  0  0  0  0  0  0  0  0  0  0  0
    3.7942    0.0183   -1.2184 C   0  0  0  0  0  0  0  0  0  0  0  0
    2.3976    0.0041   -1.2199 C   0  0  0  0  0  0  0  0  0  0  0  0
    1.6019   -0.0087   -2.3138 O   0  0  0  0  0  0  0  0  0  0  0  0
    2.2426   -0.0041   -3.5843 C   0  0  0  0  0  0  0  0  0  0  0  0
    1.8212   -0.0107    2.1475 H   0  0  0  0  0  0  0  0  0  0  0  0
    5.4533   -0.6166    2.4242 H   0  0  0  0  0  0  0  0  0  0  0  0
    3.9305   -0.4252    3.3348 H   0  0  0  0  0  0  0  0  0  0  0  0
    3.0316    1.8020    3.7336 H   0  0  0  0  0  0  0  0  0  0  0  0
    5.5680    0.0479    0.0067 H   0  0  0  0  0  0  0  0  0  0  0  0
    4.3552    0.0235   -2.1491 H   0  0  0  0  0  0  0  0  0  0  0  0
    1.3796   -0.0178   -4.2669 H   0  0  0  0  0  0  0  0  0  0  0  0
    2.8527   -0.9024   -3.7211 H   0  0  0  0  0  0  0  0  0  0  0  0
    2.8278    0.9097   -3.7265 H   0  0  0  0  0  0  0  0  0  0  0  0
  1  2  1  0  0  0  0
  2  3  2  0  0  0  0
  3 21  1  0  0  0  0
  4  3  1  0  0  0  0
  4  5  1  0  0  0  0
  5  6  1  0  0  0  0
  5 23  1  0  0  0  0
  6 15  1  0  0  0  0
  7  9  1  0  0  0  0
  7  6  1  0  0  0  0
  8  7  2  0  0  0  0
  9 11  1  0  0  0  0
 10  9  1  0  0  0  0
 11 12  2  0  0  0  0
 11 13  1  0  0  0  0
 13 14  1  0  0  0  0
 15 24  1  0  0  0  0
 15 13  2  0  0  0  0
 16 25  1  0  0  0  0
 16  4  2  0  0  0  0
 17 16  1  0  0  0  0
 18 17  2  0  0  0  0
 18  2  1  0  0  0  0
 19 18  1  0  0  0  0
 20 19  1  0  0  0  0
 22  5  1  0  0  0  0
 26 17  1  0  0  0  0
 27 20  1  0  0  0  0
 28 20  1  0  0  0  0
 29 20  1  0  0  0  0
M  END
$$$$
