rmsd115.gzmat
 OpenBabel08211713393D

 29 30  0  0  0  0  0  0  0  0999 V2000
    0.0000    0.0000    0.0000 Cl  0  0  0  0  0  0  0  0  0  0  0  0
    1.7001    0.0000    0.0000 C   0  0  0  0  0  0  0  0  0  0  0  0
    2.3773    0.0000    1.2068 C   0  0  0  0  0  0  0  0  0  0  0  0
    3.7745   -0.0034    1.2009 C   0  0  0  0  0  0  0  0  0  0  0  0
    4.5351   -0.0257    2.4953 C   0  0  0  0  0  0  0  0  0  0  0  0
    5.0225   -1.3891    2.7887 N   0  0  0  0  0  0  0  0  0  0  0  0
    6.2963   -1.7464    2.2923 C   0  0  0  0  0  0  0  0  0  0  0  0
    7.0269   -0.9259    1.7789 O   0  0  0  0  0  0  0  0  0  0  0  0
    6.6872   -3.0781    2.4554 N   0  0  0  0  0  0  0  0  0  0  0  0
    7.6253   -3.3319    2.1311 H   0  0  0  0  0  0  0  0  0  0  0  0
    5.8729   -4.0950    3.0233 C   0  0  0  0  0  0  0  0  0  0  0  0
    6.3225   -5.2071    3.1216 O   0  0  0  0  0  0  0  0  0  0  0  0
    4.5488   -3.6235    3.4183 C   0  0  0  0  0  0  0  0  0  0  0  0
    3.7515   -4.5438    3.9286 F   0  0  0  0  0  0  0  0  0  0  0  0
    4.1406   -2.3360    3.2818 C   0  0  0  0  0  0  0  0  0  0  0  0
    4.4719   -0.0011   -0.0080 C   0  0  0  0  0  0  0  0  0  0  0  0
    3.7918   -0.0018   -1.2221 C   0  0  0  0  0  0  0  0  0  0  0  0
    2.3952   -0.0024   -1.2206 C   0  0  0  0  0  0  0  0  0  0  0  0
    1.5987   -0.0024   -2.3141 O   0  0  0  0  0  0  0  0  0  0  0  0
    2.2400   -0.0346   -3.5840 C   0  0  0  0  0  0  0  0  0  0  0  0
    1.8264    0.0043    2.1487 H   0  0  0  0  0  0  0  0  0  0  0  0
    3.9170    0.3280    3.3528 H   0  0  0  0  0  0  0  0  0  0  0  0
    5.4173    0.6674    2.4473 H   0  0  0  0  0  0  0  0  0  0  0  0
    3.1381   -1.9871    3.5641 H   0  0  0  0  0  0  0  0  0  0  0  0
    5.5679   -0.0043   -0.0017 H   0  0  0  0  0  0  0  0  0  0  0  0
    4.3518   -0.0028   -2.1530 H   0  0  0  0  0  0  0  0  0  0  0  0
    1.3779   -0.0418   -4.2679 H   0  0  0  0  0  0  0  0  0  0  0  0
    2.8304   -0.9484   -3.7033 H   0  0  0  0  0  0  0  0  0  0  0  0
    2.8454    0.8630   -3.7421 H   0  0  0  0  0  0  0  0  0  0  0  0
  1  2  1  0  0  0  0
  2  3  2  0  0  0  0
  3 21  1  0  0  0  0
  4  3  1  0  0  0  0
  4  5  1  0  0  0  0
  5  6  1  0  0  0  0
  5 22  1  0  0  0  0
  6 15  1  0  0  0  0
  7  9  1  0  0  0  0
  7  6  1  0  0  0  0
  8  7  2  0  0  0  0
  9 11  1  0  0  0  0
 10  9  1  0  0  0  0
 11 12  2  0  0  0  0
 11 13  1  0  0  0  0
 13 14  1  0  0  0  0
 15 13  2  0  0  0  0
 15 24  1  0  0  0  0
 16 25  1  0  0  0  0
 16  4  2  0  0  0  0
 17 18  2  0  0  0  0
 17 16  1  0  0  0  0
 18  2  1  0  0  0  0
 19 18  1  0  0  0  0
 20 19  1  0  0  0  0
 23  5  1  0  0  0  0
 26 17  1  0  0  0  0
 27 20  1  0  0  0  0
 28 20  1  0  0  0  0
 29 20  1  0  0  0  0
M  END
$$$$
