29

Cl        -0.08440       -0.17000        0.01040
C          1.65490       -0.09010       -0.01010
C          2.36400       -0.06730        1.18790
C          3.76370       -0.00780        1.19210
C          4.52780        0.06320        2.49250
N          5.02050        1.41790        2.79190
C          6.31030        1.74970        2.38250
O          7.06020        0.96260        1.83810
N          6.66590        3.06240        2.65130
H          7.60910        3.31870        2.36940
C          5.89940        4.09350        3.21930
O          6.33970        5.20970        3.38040
C          4.55280        3.63220        3.56400
F          3.72390        4.51970        4.10870
C          4.17210        2.35610        3.34110
C          4.43810        0.02800       -0.03430
C          3.73260        0.00810       -1.23830
C          2.32980       -0.05050       -1.24930
O          1.57250       -0.07570       -2.36280
C          2.20190       -0.03630       -3.62520
H          1.80220       -0.10450        2.12360
H          5.41340       -0.58220        2.46000
H          3.89510       -0.25340        3.33350
H          3.16490        2.02080        3.59190
H          5.52880        0.07710       -0.04340
H          4.28440        0.03480       -2.17740
H          1.39830       -0.06350       -4.37220
H          2.86540       -0.90590       -3.77730
H          2.78840        0.88960       -3.75960
