29
rmsd164.gzmat
Cl         0.00000        0.00000        0.00000
C          1.70040        0.00000        0.00000
C          2.37750        0.00000        1.20660
C          3.77490        0.01040        1.20150
C          4.53450        0.05960        2.49620
N          4.95930        1.44440        2.79060
C          6.19420        1.87180        2.25140
O          6.96120        1.08800        1.73350
N          6.50440        3.22860        2.37790
H          7.41370        3.53530        2.01890
C          5.64050        4.20540        2.94190
O          6.01250        5.34930        2.98540
C          4.36860        3.65660        3.40310
F          3.53440        4.53280        3.93090
C          4.03970        2.34320        3.30490
C          4.47170        0.00430       -0.00770
C          3.79170        0.00170       -1.22210
C          2.39520        0.00620       -1.22100
O          1.59810        0.01460       -2.31380
C          2.23760        0.05350       -3.58450
H          1.82640       -0.00820        2.14820
H          5.44810       -0.59090        2.44840
H          3.93270       -0.32360        3.35240
H          3.07550        1.93680        3.63830
H          5.56770        0.00920       -0.00170
H          4.35240       -0.00150       -2.15270
H          1.37410        0.06510       -4.26650
H          2.84220       -0.84370       -3.74800
H          2.82840        0.96780       -3.70090
