rmsd210.gzmat
 OpenBabel08211713373D

 55 57  0  0  1  0  0  0  0  0999 V2000
    0.0000    0.0000    0.0000 N   0  0  0  0  0  0  0  0  0  0  0  0
    1.3902    0.0000    0.0000 C   0  0  0  0  0  0  0  0  0  0  0  0
    2.2027    0.0000    1.1037 N   0  0  0  0  0  0  0  0  0  0  0  0
    1.5266    0.0095    2.2776 C   0  0  0  0  0  0  0  0  0  0  0  0
    2.0036    0.0258    3.5761 N   0  0  0  0  0  0  0  0  0  0  0  0
    3.4047   -0.0272    4.0171 C   0  0  0  0  0  0  0  0  0  0  0  0
    4.0020   -1.4005    3.6917 C   0  0  0  0  0  0  0  0  0  0  0  0
    4.2043    1.0959    3.3506 C   0  0  0  0  0  0  0  0  0  0  0  0
    0.8612   -0.0171    4.4237 C   0  0  0  0  0  0  0  0  0  0  0  0
   -0.2725   -0.0272    3.7308 N   0  0  0  0  0  0  0  0  0  0  0  0
    0.0917   -0.0085    2.3870 C   0  0  0  0  0  0  0  0  0  0  0  0
   -0.6530   -0.0098    1.1756 C   0  0  0  0  0  0  0  0  0  0  0  0
   -2.0325   -0.0254    1.2500 N   0  0  0  0  0  0  0  0  0  0  0  0
   -2.9545   -0.0270    0.1963 C   0  0  0  0  0  0  0  0  0  0  0  0
   -4.3123   -0.1993    0.5578 C   0  0  0  0  0  0  0  0  0  0  0  0
   -5.2953   -0.2039   -0.4166 C   0  0  0  0  0  0  0  0  0  0  0  0
   -4.9639   -0.0471   -1.7707 C   0  0  0  0  0  0  0  0  0  0  0  0
   -3.6225    0.1313   -2.1021 C   0  0  0  0  0  0  0  0  0  0  0  0
   -3.1623    0.3641   -3.7253 Cl  0  0  0  0  0  0  0  0  0  0  0  0
   -2.6139    0.1491   -1.1523 C   0  0  0  0  0  0  0  0  0  0  0  0
   -6.0184   -0.0825   -2.7868 C   0  0  0  0  0  0  0  0  0  0  0  0
   -5.9618   -0.3957   -3.9467 O   0  0  0  0  0  0  0  0  0  0  0  0
   -7.2149    0.2949   -2.2463 O   0  0  0  0  0  0  0  0  0  0  0  0
    1.9444   -0.0273   -1.2427 N   0  0  0  0  0  0  0  0  0  0  0  0
    3.3917    0.0923   -1.4662 C   0  0  2  0  0  0  0  0  0  0  0  0
    3.8185    0.8200   -0.7159 H   0  0  0  0  0  0  0  0  0  0  0  0
    3.6713    0.6334   -2.8927 C   0  0  0  0  0  0  0  0  0  0  0  0
    3.0668   -0.2486   -3.9881 C   0  0  0  0  0  0  0  0  0  0  0  0
    3.1656    2.0723   -3.0251 C   0  0  0  0  0  0  0  0  0  0  0  0
    4.0805   -1.2790   -1.2369 C   0  0  0  0  0  0  0  0  0  0  0  0
    4.6336   -1.3323    0.0565 O   0  0  0  0  0  0  0  0  0  0  0  0
    3.4024    0.1265    5.1320 H   0  0  0  0  0  0  0  0  0  0  0  0
    4.0134   -1.5939    2.6086 H   0  0  0  0  0  0  0  0  0  0  0  0
    3.4354   -2.2150    4.1567 H   0  0  0  0  0  0  0  0  0  0  0  0
    5.0399   -1.4698    4.0376 H   0  0  0  0  0  0  0  0  0  0  0  0
    4.2746    0.9502    2.2607 H   0  0  0  0  0  0  0  0  0  0  0  0
    5.2275    1.1355    3.7388 H   0  0  0  0  0  0  0  0  0  0  0  0
    3.7408    2.0764    3.5110 H   0  0  0  0  0  0  0  0  0  0  0  0
    0.9489   -0.0248    5.4974 H   0  0  0  0  0  0  0  0  0  0  0  0
   -2.4060   -0.0676    2.2080 H   0  0  0  0  0  0  0  0  0  0  0  0
   -4.5878   -0.3305    1.6024 H   0  0  0  0  0  0  0  0  0  0  0  0
   -6.3458   -0.3319   -0.1334 H   0  0  0  0  0  0  0  0  0  0  0  0
   -1.5718    0.3006   -1.4558 H   0  0  0  0  0  0  0  0  0  0  0  0
   -7.9549    0.2829   -2.9012 H   0  0  0  0  0  0  0  0  0  0  0  0
    1.3297   -0.0513   -2.0499 H   0  0  0  0  0  0  0  0  0  0  0  0
    4.7851    0.6411   -3.0195 H   0  0  0  0  0  0  0  0  0  0  0  0
    1.9751   -0.1680   -4.0375 H   0  0  0  0  0  0  0  0  0  0  0  0
    3.3164   -1.3059   -3.8457 H   0  0  0  0  0  0  0  0  0  0  0  0
    3.4449    0.0426   -4.9760 H   0  0  0  0  0  0  0  0  0  0  0  0
    2.0795    2.1429   -2.8920 H   0  0  0  0  0  0  0  0  0  0  0  0
    3.3990    2.4848   -4.0131 H   0  0  0  0  0  0  0  0  0  0  0  0
    3.6257    2.7318   -2.2797 H   0  0  0  0  0  0  0  0  0  0  0  0
    3.3775   -2.1220   -1.3608 H   0  0  0  0  0  0  0  0  0  0  0  0
    4.9550   -1.4257   -1.8944 H   0  0  0  0  0  0  0  0  0  0  0  0
    3.9597   -1.0325    0.7158 H   0  0  0  0  0  0  0  0  0  0  0  0
  1  2  2  0  0  0  0
  1 12  2  0  0  0  0
  2  3  2  0  0  0  0
  3  4  2  0  0  0  0
  4 11  1  0  0  0  0
  4  5  1  0  0  0  0
  5  6  1  0  0  0  0
  5  9  1  0  0  0  0
  6 32  1  0  0  0  0
  7  6  1  0  0  0  0
  7 35  1  0  0  0  0
  7 34  1  0  0  0  0
  8 38  1  0  0  0  0
  8 37  1  0  0  0  0
  8  6  1  0  0  0  0
  9 39  1  0  0  0  0
 10  9  2  0  0  0  0
 11 10  2  0  0  0  0
 12 13  1  0  0  0  0
 12 11  1  0  0  0  0
 13 40  1  0  0  0  0
 14 15  1  0  0  0  0
 14 13  1  0  0  0  0
 15 41  1  0  0  0  0
 16 42  1  0  0  0  0
 16 15  2  0  0  0  0
 17 16  1  0  0  0  0
 18 17  2  0  0  0  0
 18 20  1  0  0  0  0
 19 18  1  0  0  0  0
 20 14  2  0  0  0  0
 21 23  1  0  0  0  0
 21 17  1  0  0  0  0
 22 21  2  0  0  0  0
 24  2  1  0  0  0  0
 25 24  1  0  0  0  0
 25 30  1  0  0  0  0
 25 26  1  1  0  0  0
 27 25  1  0  0  0  0
 28 48  1  0  0  0  0
 28 27  1  0  0  0  0
 29 27  1  0  0  0  0
 29 50  1  0  0  0  0
 29 52  1  0  0  0  0
 30 31  1  0  0  0  0
 31 55  1  0  0  0  0
 33  7  1  0  0  0  0
 36  8  1  0  0  0  0
 43 20  1  0  0  0  0
 44 23  1  0  0  0  0
 45 24  1  0  0  0  0
 46 27  1  0  0  0  0
 47 28  1  0  0  0  0
 49 28  1  0  0  0  0
 51 29  1  0  0  0  0
 53 30  1  0  0  0  0
 54 30  1  0  0  0  0
M  END
$$$$
