55
rmsd146.gzmat
N          0.00000        0.00000        0.00000
C          1.39010        0.00000        0.00000
N          2.20010        0.00000        1.10550
C          1.51650        0.03250        2.27340
N          2.00500        0.05090        3.56740
C          3.42000       -0.09840        3.93160
C          3.72940        0.73040        5.18190
C          3.74260       -1.58140        4.14960
C          0.86890        0.01890        4.42250
N         -0.26970        0.02950        3.73570
C          0.08460        0.03720        2.38780
C         -0.65700        0.01880        1.17400
N         -2.03690        0.01550        1.24470
C         -2.95870       -0.06740        0.19400
C         -4.32390       -0.10850        0.56780
C         -5.30710       -0.20670       -0.40140
C         -4.97040       -0.27030       -1.76180
C         -3.62180       -0.21170       -2.10710
Cl        -3.15420       -0.24520       -3.74450
C         -2.61180       -0.11020       -1.16400
C         -6.02550       -0.40490       -2.76900
O         -5.98080       -0.87210       -3.87680
O         -7.20880        0.08240       -2.29090
N          1.95220        0.00110       -1.24080
C          3.41160       -0.03290       -1.44230
H          3.88860        0.66630       -0.69380
C          3.71040        0.49180       -2.87130
C          5.19470        0.85130       -2.97860
C          3.32240       -0.51280       -3.95870
C          3.96900       -1.45400       -1.18060
O          4.52960       -1.53100        0.10930
H          4.02640        0.29280        3.06170
H          3.26090        0.31910        6.08240
H          3.38920        1.76850        5.07080
H          4.81170        0.76130        5.36390
H          3.13240       -2.02530        4.94400
H          4.79660       -1.71720        4.42010
H          3.56650       -2.16690        3.23590
H          0.96370        0.01130        5.49570
H         -2.41220        0.03800        2.20310
H         -4.60470       -0.06310        1.61830
H         -6.36250       -0.23750       -0.10900
H         -1.56390       -0.06350       -1.48160
H         -7.94720        0.00760       -2.94370
H          1.34580       -0.08900       -2.04880
H          3.11370        1.42920       -3.02340
H          5.84110       -0.02360       -2.84090
H          5.48800        1.59240       -2.22500
H          5.42810        1.27540       -3.96220
H          3.92720       -1.42550       -3.90980
H          3.47430       -0.08510       -4.95780
H          2.27060       -0.81110       -3.89420
H          3.19230       -2.23290       -1.27810
H          4.82210       -1.69660       -1.83870
H          3.89650       -1.16000        0.76960
