55
rmsd210.gzmat
N          0.00000        0.00000        0.00000
C          1.39020        0.00000        0.00000
N          2.20270        0.00000        1.10370
C          1.52660        0.00950        2.27760
N          2.00360        0.02580        3.57610
C          3.40470       -0.02720        4.01710
C          4.00200       -1.40050        3.69170
C          4.20430        1.09590        3.35060
C          0.86120       -0.01710        4.42370
N         -0.27250       -0.02720        3.73080
C          0.09170       -0.00850        2.38700
C         -0.65300       -0.00980        1.17560
N         -2.03250       -0.02540        1.25000
C         -2.95450       -0.02700        0.19630
C         -4.31230       -0.19930        0.55780
C         -5.29530       -0.20390       -0.41660
C         -4.96390       -0.04710       -1.77070
C         -3.62250        0.13130       -2.10210
Cl        -3.16230        0.36410       -3.72530
C         -2.61390        0.14910       -1.15230
C         -6.01840       -0.08250       -2.78680
O         -5.96180       -0.39570       -3.94670
O         -7.21490        0.29490       -2.24630
N          1.94440       -0.02730       -1.24270
C          3.39170        0.09230       -1.46620
H          3.81850        0.82000       -0.71590
C          3.67130        0.63340       -2.89270
C          3.06680       -0.24860       -3.98810
C          3.16560        2.07230       -3.02510
C          4.08050       -1.27900       -1.23690
O          4.63360       -1.33230        0.05650
H          3.40240        0.12650        5.13200
H          4.01340       -1.59390        2.60860
H          3.43540       -2.21500        4.15670
H          5.03990       -1.46980        4.03760
H          4.27460        0.95020        2.26070
H          5.22750        1.13550        3.73880
H          3.74080        2.07640        3.51100
H          0.94890       -0.02480        5.49740
H         -2.40600       -0.06760        2.20800
H         -4.58780       -0.33050        1.60240
H         -6.34580       -0.33190       -0.13340
H         -1.57180        0.30060       -1.45580
H         -7.95490        0.28290       -2.90120
H          1.32970       -0.05130       -2.04990
H          4.78510        0.64110       -3.01950
H          1.97510       -0.16800       -4.03750
H          3.31640       -1.30590       -3.84570
H          3.44490        0.04260       -4.97600
H          2.07950        2.14290       -2.89200
H          3.39900        2.48480       -4.01310
H          3.62570        2.73180       -2.27970
H          3.37750       -2.12200       -1.36080
H          4.95500       -1.42570       -1.89440
H          3.95970       -1.03250        0.71580
