55

N          0.03290       -0.10270       -0.00420
C          1.38290       -0.01140        0.01900
N          2.16570        0.03460        1.11160
C          1.46380       -0.01710        2.24260
N          1.92590        0.00760        3.54010
C          3.33380        0.09730        3.93640
C          3.59860        1.38080        4.72470
C          3.77100       -1.16230        4.68570
C          0.80120       -0.07220        4.35140
N         -0.32280       -0.14420        3.68080
C          0.06520       -0.11220        2.35760
C         -0.64490       -0.15620        1.13850
N         -2.01430       -0.25160        1.16490
C         -2.93610       -0.31670        0.12760
C         -4.30410       -0.41410        0.45620
C         -5.25620       -0.48380       -0.54660
C         -4.91440       -0.46240       -1.91540
C         -3.54080       -0.36330       -2.22550
Cl        -2.93680       -0.32190       -3.86320
C         -2.57100       -0.29120       -1.22850
C         -5.98540       -0.54470       -2.94260
O         -5.84170       -0.55260       -4.14110
O         -7.22060       -0.61650       -2.38200
N          2.00270        0.04180       -1.19540
C          1.31860       -0.11760       -2.47800
H          0.48350       -0.82320       -2.33130
C          2.29220       -0.72960       -3.50450
C          2.72030       -2.13950       -3.08170
C          1.69230       -0.74190       -4.91350
C          0.71490        1.22390       -2.91440
O          1.70790        2.18060       -3.22150
H          3.87510        0.14830        2.97950
H          3.06170        1.37750        5.68700
H          3.27670        2.26410        4.15360
H          4.67330        1.48000        4.94050
H          3.23880       -1.26170        5.64560
H          4.84940       -1.12170        4.90230
H          3.57150       -2.06280        4.08620
H          0.88560       -0.07180        5.43790
H         -2.39300       -0.28180        2.10650
H         -4.61230       -0.43480        1.50450
H         -6.31030       -0.55890       -0.28290
H         -1.52360       -0.21440       -1.49120
H         -7.84130       -0.66760       -3.12710
H          3.01390        0.00880       -1.16160
H          3.18400       -0.07650       -3.53070
H          1.85600       -2.82470       -3.09250
H          3.14370       -2.16010       -2.06610
H          3.47750       -2.54430       -3.77130
H          0.70860       -1.24160       -4.92050
H          2.35020       -1.28900       -5.60640
H          1.56450        0.27600       -5.30740
H          0.09900        1.08860       -3.81400
H          0.04010        1.57680       -2.11320
H          2.22980        2.30550       -2.41640
