55
rmsd164.gzmat
N          0.00000        0.00000        0.00000
C          1.39040        0.00000        0.00000
N          2.20180        0.00000        1.10420
C          1.52110        0.04920        2.27280
N          2.01010        0.06070        3.56530
C          3.42890        0.11950        3.93730
C          3.79710        1.55470        4.33340
C          3.70950       -0.86670        5.07580
C          0.87610        0.09030        4.42200
N         -0.26350        0.08240        3.73660
C          0.08930        0.05850        2.38870
C         -0.65430        0.02550        1.17570
N         -2.03360        0.01000        1.25470
C         -2.96330       -0.06140        0.21040
C         -4.32030       -0.18680        0.59510
C         -5.31190       -0.25670       -0.36760
C         -4.99170       -0.21070       -1.73280
C         -3.65030       -0.08010       -2.08750
Cl        -3.20040        0.01340       -3.72720
C         -2.63210       -0.00320       -1.15030
C         -6.05630       -0.30800       -2.73410
O         -6.00500       -0.65850       -3.88390
O         -7.25740        0.05730       -2.19430
N          1.95830        0.00840       -1.23810
C          3.41960       -0.01120       -1.42960
H          3.89080        0.64720       -0.64100
C          3.72690        0.58760       -2.82710
C          5.20630        0.97550       -2.89560
C          3.36680       -0.36990       -3.96520
C          3.97820       -1.44320       -1.24320
O          4.47960       -1.61150        0.06210
H          4.02560       -0.17990        3.02510
H          3.20050        1.91710        5.17770
H          3.63700        2.25050        3.49790
H          4.85370        1.62240        4.61730
H          3.24510       -0.55850        6.01860
H          4.78920       -0.95230        5.25380
H          3.34040       -1.87340        4.83610
H          0.97220        0.10840        5.49480
H         -2.40200        0.01920        2.21640
H         -4.58800       -0.23000        1.64910
H         -6.36110       -0.35040       -0.06600
H         -1.58980        0.10300       -1.47300
H         -8.00250        0.00340       -2.84110
H          1.35830       -0.08300       -2.05000
H          3.11640        1.52150       -2.94150
H          5.86620        0.11260       -2.74560
H          5.46470        1.71760       -2.13060
H          5.45790        1.41070       -3.86930
H          4.00620       -1.26010       -3.97130
H          3.49170        0.11740       -4.94020
H          2.32800       -0.71180       -3.90790
H          3.21540       -2.21840       -1.43290
H          4.86280       -1.63150       -1.87750
H          3.82550       -1.27020        0.71650
