rmsd147.gzmat
 OpenBabel08211713373D

 55 57  0  0  1  0  0  0  0  0999 V2000
    0.0000    0.0000    0.0000 N   0  0  0  0  0  0  0  0  0  0  0  0
    1.3894    0.0000    0.0000 C   0  0  0  0  0  0  0  0  0  0  0  0
    2.2007    0.0000    1.1033 N   0  0  0  0  0  0  0  0  0  0  0  0
    1.5252    0.0364    2.2766 C   0  0  0  0  0  0  0  0  0  0  0  0
    2.0066    0.0635    3.5731 N   0  0  0  0  0  0  0  0  0  0  0  0
    3.4077   -0.0495    4.0039 C   0  0  0  0  0  0  0  0  0  0  0  0
    3.9310   -1.4567    3.6949 C   0  0  0  0  0  0  0  0  0  0  0  0
    4.2577    1.0198    3.3118 C   0  0  0  0  0  0  0  0  0  0  0  0
    0.8653    0.0517    4.4233 C   0  0  0  0  0  0  0  0  0  0  0  0
   -0.2700    0.0546    3.7327 N   0  0  0  0  0  0  0  0  0  0  0  0
    0.0910    0.0440    2.3876 C   0  0  0  0  0  0  0  0  0  0  0  0
   -0.6538    0.0211    1.1758 C   0  0  0  0  0  0  0  0  0  0  0  0
   -2.0328    0.0225    1.2490 N   0  0  0  0  0  0  0  0  0  0  0  0
   -2.9560   -0.0007    0.1958 C   0  0  0  0  0  0  0  0  0  0  0  0
   -4.3204    0.0859    0.5654 C   0  0  0  0  0  0  0  0  0  0  0  0
   -5.3061    0.0754   -0.4063 C   0  0  0  0  0  0  0  0  0  0  0  0
   -4.9677   -0.0111   -1.7640 C   0  0  0  0  0  0  0  0  0  0  0  0
   -3.6237   -0.1180   -2.1042 C   0  0  0  0  0  0  0  0  0  0  0  0
   -3.1666   -0.3047   -3.7367 Cl  0  0  0  0  0  0  0  0  0  0  0  0
   -2.6108   -0.1159   -1.1581 C   0  0  0  0  0  0  0  0  0  0  0  0
   -6.0605    0.0042   -2.7437 C   0  0  0  0  0  0  0  0  0  0  0  0
   -7.1172   -0.5700   -2.6788 O   0  0  0  0  0  0  0  0  0  0  0  0
   -5.7783    0.8183   -3.7927 O   0  0  0  0  0  0  0  0  0  0  0  0
    1.9493   -0.0084   -1.2412 N   0  0  0  0  0  0  0  0  0  0  0  0
    3.4050    0.0654   -1.4553 C   0  0  2  0  0  0  0  0  0  0  0  0
    3.8420    0.7763   -0.6947 H   0  0  0  0  0  0  0  0  0  0  0  0
    3.6490    0.6406   -2.8757 C   0  0  0  0  0  0  0  0  0  0  0  0
    5.0950    1.1300   -2.9853 C   0  0  0  0  0  0  0  0  0  0  0  0
    3.3406   -0.3755   -3.9775 C   0  0  0  0  0  0  0  0  0  0  0  0
    4.0589   -1.3208   -1.2362 C   0  0  0  0  0  0  0  0  0  0  0  0
    4.5842   -1.4149    0.0671 O   0  0  0  0  0  0  0  0  0  0  0  0
    3.4228    0.1239    5.1155 H   0  0  0  0  0  0  0  0  0  0  0  0
    3.9221   -1.6658    2.6145 H   0  0  0  0  0  0  0  0  0  0  0  0
    3.3273   -2.2341    4.1764 H   0  0  0  0  0  0  0  0  0  0  0  0
    4.9672   -1.5753    4.0316 H   0  0  0  0  0  0  0  0  0  0  0  0
    4.2673    0.8842    2.2178 H   0  0  0  0  0  0  0  0  0  0  0  0
    5.2986    0.9751    3.6498 H   0  0  0  0  0  0  0  0  0  0  0  0
    3.8792    2.0302    3.5044 H   0  0  0  0  0  0  0  0  0  0  0  0
    0.9561    0.0572    5.4970 H   0  0  0  0  0  0  0  0  0  0  0  0
   -2.4077    0.0549    2.2071 H   0  0  0  0  0  0  0  0  0  0  0  0
   -4.5979    0.1618    1.6152 H   0  0  0  0  0  0  0  0  0  0  0  0
   -6.3616    0.1336   -0.1214 H   0  0  0  0  0  0  0  0  0  0  0  0
   -1.5639   -0.2030   -1.4700 H   0  0  0  0  0  0  0  0  0  0  0  0
   -6.4929    0.8367   -4.4772 H   0  0  0  0  0  0  0  0  0  0  0  0
    1.3395   -0.0782   -2.0487 H   0  0  0  0  0  0  0  0  0  0  0  0
    2.9729    1.5258   -3.0076 H   0  0  0  0  0  0  0  0  0  0  0  0
    5.8178    0.3173   -2.8458 H   0  0  0  0  0  0  0  0  0  0  0  0
    5.3203    1.8980   -2.2353 H   0  0  0  0  0  0  0  0  0  0  0  0
    5.2884    1.5705   -3.9703 H   0  0  0  0  0  0  0  0  0  0  0  0
    4.0496   -1.2113   -3.9744 H   0  0  0  0  0  0  0  0  0  0  0  0
    3.4030    0.0908   -4.9685 H   0  0  0  0  0  0  0  0  0  0  0  0
    2.3352   -0.7997   -3.8840 H   0  0  0  0  0  0  0  0  0  0  0  0
    3.3449   -2.1488   -1.3914 H   0  0  0  0  0  0  0  0  0  0  0  0
    4.9460   -1.4692   -1.8774 H   0  0  0  0  0  0  0  0  0  0  0  0
    3.9167   -1.0877    0.7187 H   0  0  0  0  0  0  0  0  0  0  0  0
  1  2  2  0  0  0  0
  1 12  2  0  0  0  0
  2  3  2  0  0  0  0
  3  4  2  0  0  0  0
  4 11  1  0  0  0  0
  4  5  1  0  0  0  0
  5  6  1  0  0  0  0
  5  9  1  0  0  0  0
  6 32  1  0  0  0  0
  7  6  1  0  0  0  0
  7 35  1  0  0  0  0
  7 34  1  0  0  0  0
  8 38  1  0  0  0  0
  8 37  1  0  0  0  0
  8  6  1  0  0  0  0
  9 39  1  0  0  0  0
 10  9  2  0  0  0  0
 11 10  2  0  0  0  0
 12 13  1  0  0  0  0
 12 11  1  0  0  0  0
 13 40  1  0  0  0  0
 14 15  1  0  0  0  0
 14 13  1  0  0  0  0
 15 41  1  0  0  0  0
 16 42  1  0  0  0  0
 16 15  2  0  0  0  0
 17 16  1  0  0  0  0
 18 17  2  0  0  0  0
 18 20  1  0  0  0  0
 19 18  1  0  0  0  0
 20 14  2  0  0  0  0
 21 22  2  0  0  0  0
 21 17  1  0  0  0  0
 23 21  1  0  0  0  0
 24  2  1  0  0  0  0
 25 24  1  0  0  0  0
 25 30  1  0  0  0  0
 25 26  1  1  0  0  0
 27 25  1  0  0  0  0
 28 27  1  0  0  0  0
 28 47  1  0  0  0  0
 28 48  1  0  0  0  0
 29 50  1  0  0  0  0
 29 52  1  0  0  0  0
 29 27  1  0  0  0  0
 30 31  1  0  0  0  0
 31 55  1  0  0  0  0
 33  7  1  0  0  0  0
 36  8  1  0  0  0  0
 43 20  1  0  0  0  0
 44 23  1  0  0  0  0
 45 24  1  0  0  0  0
 46 27  1  0  0  0  0
 49 28  1  0  0  0  0
 51 29  1  0  0  0  0
 53 30  1  0  0  0  0
 54 30  1  0  0  0  0
M  END
$$$$
