55
rmsd103.gzmat
N          0.00000        0.00000        0.00000
C          1.39070        0.00000        0.00000
N          2.20420        0.00000        1.10310
C          1.52910        0.03310        2.27710
N          2.00720        0.05820        3.57460
C          3.41010        0.10020        4.01000
C          4.11890       -1.19840        3.61210
C          4.10620        1.31930        3.39610
C          0.86580        0.05360        4.42370
N         -0.26850        0.03470        3.73170
C          0.09470        0.02420        2.38740
C         -0.65170        0.00210        1.17660
N         -2.03100       -0.01630        1.25870
C         -2.96410       -0.07700        0.21720
C         -4.32390       -0.14160        0.60710
C         -5.31910       -0.21490       -0.35150
C         -4.99980       -0.23010       -1.71760
C         -3.65640       -0.15000       -2.07800
Cl        -3.20920       -0.12400       -3.72090
C         -2.63410       -0.07300       -1.14540
C         -6.06920       -0.33980       -2.71240
O         -6.03990       -0.77500       -3.83360
O         -7.24660        0.12680       -2.19990
N          1.94960       -0.02210       -1.24050
C          3.40180        0.04420       -1.45390
H          3.85990        0.70340       -0.65900
C          3.71500        0.66100       -2.84230
C          3.02310       -0.07740       -3.99110
C          3.33910        2.14520       -2.85350
C          4.02520       -1.36890       -1.30860
O          4.52170       -1.54980       -0.00320
H          3.40280        0.19560        5.13100
H          4.20270       -1.29680        2.51910
H          3.58490       -2.08450        3.97390
H          5.13840       -1.23040        4.01240
H          4.11060        1.26600        2.29540
H          5.14990        1.38260        3.72180
H          3.60690        2.25560        3.66970
H          0.95370        0.06650        5.49740
H         -2.39720       -0.01400        2.22110
H         -4.59150       -0.13420        1.66190
H         -6.37010       -0.26390       -0.04620
H         -1.58960       -0.01100       -1.47190
H         -7.99730        0.06480       -2.83940
H          1.34020       -0.04610       -2.05140
H          4.82360        0.57950       -2.98740
H          1.95190        0.14810       -4.05020
H          3.13400       -1.16390       -3.90570
H          3.45420        0.21550       -4.95670
H          2.28010        2.30260       -2.61470
H          3.52380        2.59530       -3.83510
H          3.92310        2.71350       -2.12030
H          3.29680       -2.17070       -1.52390
H          4.91930       -1.50020       -1.94280
H          3.85130       -1.23330        0.65100
