55

N          0.06800        0.11290        0.00890
C          1.42720        0.14090        0.04570
N          2.18920        0.23420        1.15130
C          1.47870        0.27810        2.28380
N          1.92880        0.35660        3.58030
C          3.34460        0.35540        3.98080
C          3.51960        0.94490        5.37720
C          3.94100       -1.04880        3.85380
C          0.78810        0.35250        4.37640
N         -0.32700        0.28930        3.68880
C          0.08350        0.24080        2.37480
C         -0.61680        0.15870        1.14630
N         -1.98560        0.12810        1.19400
C         -2.94310        0.04210        0.19090
C         -4.29870        0.03200        0.57910
C         -5.29520       -0.05220       -0.37720
C         -5.00890       -0.13030       -1.75600
C         -3.64650       -0.11910       -2.12650
Cl        -3.12050       -0.20910       -3.78530
C         -2.62970       -0.03480       -1.17510
C         -6.12680       -0.21840       -2.73270
O         -6.03810       -0.28880       -3.93440
O         -7.33760       -0.21240       -2.11690
N          2.03560        0.05370       -1.16470
C          3.46060        0.20560       -1.45700
H          3.80180        1.18920       -1.08240
C          3.62330        0.20120       -2.99470
C          4.97620        0.77170       -3.42640
C          3.37310       -1.17920       -3.61590
C          4.34550       -0.84450       -0.74310
O          4.74800       -0.45210        0.54170
H          3.85130        1.01410        3.25660
H          3.09070        0.28890        6.15130
H          3.05290        1.93800        5.45960
H          4.59210        1.05090        5.59470
H          3.39780       -1.75930        4.49710
H          4.99770       -1.03610        4.16120
H          3.90700       -1.39870        2.81310
H          0.85290        0.40550        5.46120
H         -2.34170        0.17340        2.14440
H         -4.56090        0.09100        1.63830
H         -6.33940       -0.05940       -0.06790
H         -1.59040       -0.02830       -1.48550
H         -7.99260       -0.27260       -2.83150
H          1.38970        0.05330       -1.94450
H          2.84790        0.89070       -3.37840
H          5.81190        0.13650       -3.09250
H          5.13710        1.78090       -3.01590
H          5.03310        0.83870       -4.52400
H          4.16490       -1.89250       -3.33730
H          3.36110       -1.11290       -4.71490
H          2.41160       -1.60900       -3.29460
H          3.80120       -1.81120       -0.74200
H          5.26320       -0.99560       -1.33350
H          3.92640       -0.12740        0.97260
