rmsd231.gzmat
 OpenBabel08211713373D

 55 57  0  0  1  0  0  0  0  0999 V2000
    0.0000    0.0000    0.0000 N   0  0  0  0  0  0  0  0  0  0  0  0
    1.3902    0.0000    0.0000 C   0  0  0  0  0  0  0  0  0  0  0  0
    2.2040    0.0000    1.1035 N   0  0  0  0  0  0  0  0  0  0  0  0
    1.5236    0.0362    2.2734 C   0  0  0  0  0  0  0  0  0  0  0  0
    2.0110    0.0687    3.5662 N   0  0  0  0  0  0  0  0  0  0  0  0
    3.4274    0.0326    3.9476 C   0  0  0  0  0  0  0  0  0  0  0  0
    3.7224    1.1635    4.9390 C   0  0  0  0  0  0  0  0  0  0  0  0
    3.7685   -1.3384    4.5418 C   0  0  0  0  0  0  0  0  0  0  0  0
    0.8765    0.0455    4.4232 C   0  0  0  0  0  0  0  0  0  0  0  0
   -0.2622    0.0317    3.7370 N   0  0  0  0  0  0  0  0  0  0  0  0
    0.0924    0.0280    2.3893 C   0  0  0  0  0  0  0  0  0  0  0  0
   -0.6532    0.0060    1.1773 C   0  0  0  0  0  0  0  0  0  0  0  0
   -2.0315   -0.0119    1.2623 N   0  0  0  0  0  0  0  0  0  0  0  0
   -2.9681   -0.0729    0.2233 C   0  0  0  0  0  0  0  0  0  0  0  0
   -2.6473   -0.0472   -1.1435 C   0  0  0  0  0  0  0  0  0  0  0  0
   -3.6549   -0.1226   -2.0935 C   0  0  0  0  0  0  0  0  0  0  0  0
   -4.9998   -0.2268   -1.7133 C   0  0  0  0  0  0  0  0  0  0  0  0
   -5.3009   -0.2310   -0.3521 C   0  0  0  0  0  0  0  0  0  0  0  0
   -6.9219   -0.3055    0.1649 Cl  0  0  0  0  0  0  0  0  0  0  0  0
   -4.3221   -0.1581    0.6225 C   0  0  0  0  0  0  0  0  0  0  0  0
   -6.0415   -0.3365   -2.7377 C   0  0  0  0  0  0  0  0  0  0  0  0
   -7.1268   -0.8523   -2.6828 O   0  0  0  0  0  0  0  0  0  0  0  0
   -5.6276    0.2454   -3.9027 O   0  0  0  0  0  0  0  0  0  0  0  0
    1.9572   -0.0194   -1.2378 N   0  0  0  0  0  0  0  0  0  0  0  0
    3.4141    0.0178   -1.4279 C   0  0  2  0  0  0  0  0  0  0  0  0
    3.8704    0.6593   -0.6160 H   0  0  0  0  0  0  0  0  0  0  0  0
    3.7675    0.6457   -2.8004 C   0  0  0  0  0  0  0  0  0  0  0  0
    3.0997   -0.0745   -3.9750 C   0  0  0  0  0  0  0  0  0  0  0  0
    3.4053    2.1334   -2.8060 C   0  0  0  0  0  0  0  0  0  0  0  0
    4.0039   -1.4101   -1.2862 C   0  0  0  0  0  0  0  0  0  0  0  0
    4.5071   -1.6035    0.0148 O   0  0  0  0  0  0  0  0  0  0  0  0
    4.0315    0.1941    3.0062 H   0  0  0  0  0  0  0  0  0  0  0  0
    3.2157    1.0211    5.8993 H   0  0  0  0  0  0  0  0  0  0  0  0
    3.4056    2.1375    4.5417 H   0  0  0  0  0  0  0  0  0  0  0  0
    4.7986    1.2278    5.1416 H   0  0  0  0  0  0  0  0  0  0  0  0
    3.2260   -1.5339    5.4730 H   0  0  0  0  0  0  0  0  0  0  0  0
    4.8413   -1.4131    4.7573 H   0  0  0  0  0  0  0  0  0  0  0  0
    3.5215   -2.1491    3.8420 H   0  0  0  0  0  0  0  0  0  0  0  0
    0.9730    0.0518    5.4961 H   0  0  0  0  0  0  0  0  0  0  0  0
   -2.3949   -0.0097    2.2267 H   0  0  0  0  0  0  0  0  0  0  0  0
   -1.6072    0.0335   -1.4721 H   0  0  0  0  0  0  0  0  0  0  0  0
   -3.3982   -0.1002   -3.1580 H   0  0  0  0  0  0  0  0  0  0  0  0
   -4.5877   -0.1673    1.6793 H   0  0  0  0  0  0  0  0  0  0  0  0
   -6.3045    0.1935   -4.6207 H   0  0  0  0  0  0  0  0  0  0  0  0
    1.3593   -0.0539   -2.0534 H   0  0  0  0  0  0  0  0  0  0  0  0
    4.8790    0.5560   -2.9183 H   0  0  0  0  0  0  0  0  0  0  0  0
    2.0345    0.1660   -4.0614 H   0  0  0  0  0  0  0  0  0  0  0  0
    3.1929   -1.1629   -3.8944 H   0  0  0  0  0  0  0  0  0  0  0  0
    3.5639    0.2193   -4.9251 H   0  0  0  0  0  0  0  0  0  0  0  0
    2.3335    2.2945   -2.6379 H   0  0  0  0  0  0  0  0  0  0  0  0
    3.6620    2.6019   -3.7623 H   0  0  0  0  0  0  0  0  0  0  0  0
    3.9405    2.6806   -2.0201 H   0  0  0  0  0  0  0  0  0  0  0  0
    3.2547   -2.1939   -1.4961 H   0  0  0  0  0  0  0  0  0  0  0  0
    4.8898   -1.5638   -1.9271 H   0  0  0  0  0  0  0  0  0  0  0  0
    3.8564   -1.2690    0.6774 H   0  0  0  0  0  0  0  0  0  0  0  0
  1  2  2  0  0  0  0
  1 12  2  0  0  0  0
  2  3  2  0  0  0  0
  3  4  2  0  0  0  0
  4 11  1  0  0  0  0
  4  5  1  0  0  0  0
  5  6  1  0  0  0  0
  5  9  1  0  0  0  0
  6  8  1  0  0  0  0
  6  7  1  0  0  0  0
  7 35  1  0  0  0  0
  7 33  1  0  0  0  0
  8 37  1  0  0  0  0
  8 36  1  0  0  0  0
  9 39  1  0  0  0  0
 10  9  2  0  0  0  0
 11 10  2  0  0  0  0
 12 13  1  0  0  0  0
 12 11  1  0  0  0  0
 13 40  1  0  0  0  0
 14 20  1  0  0  0  0
 14 13  1  0  0  0  0
 15 14  2  0  0  0  0
 16 17  2  0  0  0  0
 16 15  1  0  0  0  0
 17 18  1  0  0  0  0
 18 19  1  0  0  0  0
 18 20  2  0  0  0  0
 20 43  1  0  0  0  0
 21 22  2  0  0  0  0
 21 17  1  0  0  0  0
 23 21  1  0  0  0  0
 24  2  1  0  0  0  0
 25 30  1  0  0  0  0
 25 24  1  0  0  0  0
 25 26  1  1  0  0  0
 27 25  1  0  0  0  0
 28 48  1  0  0  0  0
 28 27  1  0  0  0  0
 29 27  1  0  0  0  0
 29 50  1  0  0  0  0
 29 52  1  0  0  0  0
 30 31  1  0  0  0  0
 31 55  1  0  0  0  0
 32  6  1  0  0  0  0
 34  7  1  0  0  0  0
 38  8  1  0  0  0  0
 41 15  1  0  0  0  0
 42 16  1  0  0  0  0
 44 23  1  0  0  0  0
 45 24  1  0  0  0  0
 46 27  1  0  0  0  0
 47 28  1  0  0  0  0
 49 28  1  0  0  0  0
 51 29  1  0  0  0  0
 53 30  1  0  0  0  0
 54 30  1  0  0  0  0
M  END
$$$$
