51
rmsd118.gzmat
C          0.00000        0.00000        0.00000
C          1.40190        0.00000        0.00000
C          2.11160        0.00000        1.19250
C          1.39410        0.00020        2.39290
C          0.00250        0.00040        2.39190
C         -0.71300       -0.00040        1.19040
O          2.13650        0.00000       -1.16340
C          1.37400        0.04780       -2.30870
C          0.03780        0.05110       -2.31040
O         -0.73690        0.00060       -1.16160
C         -0.86210        0.11170       -3.50570
H         -1.62370        0.92070       -3.40060
O         -0.03010        0.45190       -4.59880
C         -1.51740       -1.27310       -3.73850
N         -2.31240       -1.16810       -4.98260
C         -2.33900       -2.43300       -5.74550
C         -3.17390       -3.53920       -5.06100
N         -4.55680       -3.03200       -4.86610
C         -4.57990       -1.79340       -4.04690
C         -3.69920       -0.72170       -4.73290
C         -5.39740       -4.05100       -4.29660
C         -6.45290       -4.50360       -5.08540
C         -7.31420       -5.49480       -4.61200
C         -7.12450       -6.04070       -3.34760
C         -6.07360       -5.60820       -2.53750
C         -5.21880       -4.61880       -3.01230
O         -4.15130       -4.11160       -2.33790
C         -3.94540       -4.55570       -1.00450
H          3.19920        0.00110        1.18490
H          1.93630        0.00140        3.33730
H         -0.54070        0.00270        3.33540
H         -1.80000        0.00240        1.18150
H          2.03860        0.08690       -3.16480
H         -0.48830        0.17880       -5.43220
H         -2.10710       -1.56950       -2.84660
H         -0.71930       -2.03820       -3.85260
H         -1.30160       -2.78540       -5.91720
H         -2.77350       -2.20410       -6.74660
H         -3.23010       -4.43420       -5.71730
H         -2.69100       -3.85800       -4.11320
H         -5.63240       -1.44080       -3.99660
H         -4.24370       -1.95700       -3.00100
H         -4.14050       -0.45300       -5.72060
H         -3.68590        0.20400       -4.12190
H         -6.59520       -4.06970       -6.07730
H         -8.13400       -5.83790       -5.23840
H         -7.79840       -6.81460       -2.98210
H         -5.93450       -6.04870       -1.55580
H         -3.69360       -5.62050       -0.98560
H         -4.81520       -4.33840       -0.37800
H         -3.08290       -3.94930       -0.69130
