rmsd83.gzmat
 OpenBabel08211713383D

 51 54  0  0  1  0  0  0  0  0999 V2000
    0.0000    0.0000    0.0000 C   0  0  0  0  0  0  0  0  0  0  0  0
    1.4021    0.0000    0.0000 C   0  0  0  0  0  0  0  0  0  0  0  0
    2.1116    0.0000    1.1925 C   0  0  0  0  0  0  0  0  0  0  0  0
    1.3934   -0.0082    2.3925 C   0  0  0  0  0  0  0  0  0  0  0  0
    0.0019   -0.0152    2.3910 C   0  0  0  0  0  0  0  0  0  0  0  0
   -0.7138   -0.0095    1.1898 C   0  0  0  0  0  0  0  0  0  0  0  0
    2.1362   -0.0020   -1.1639 O   0  0  0  0  0  0  0  0  0  0  0  0
    1.3737    0.0607   -2.3088 C   0  0  0  0  0  0  0  0  0  0  0  0
    0.0377    0.0717   -2.3101 C   0  0  0  0  0  0  0  0  0  0  0  0
   -0.7364    0.0079   -1.1617 O   0  0  0  0  0  0  0  0  0  0  0  0
   -0.8660    0.1600   -3.5013 C   0  0  1  0  0  0  0  0  0  0  0  0
   -1.5486    1.0399   -3.4220 H   0  0  0  0  0  0  0  0  0  0  0  0
   -0.0219    0.3813   -4.6151 O   0  0  0  0  0  0  0  0  0  0  0  0
   -1.6456   -1.1668   -3.6674 C   0  0  0  0  0  0  0  0  0  0  0  0
   -2.4661   -1.0488   -4.8942 N   0  0  0  0  0  0  0  0  0  0  0  0
   -2.7355   -2.3650   -5.5107 C   0  0  0  0  0  0  0  0  0  0  0  0
   -3.6887   -3.2438   -4.6694 C   0  0  0  0  0  0  0  0  0  0  0  0
   -4.9639   -2.5082   -4.4676 N   0  0  0  0  0  0  0  0  0  0  0  0
   -4.7525   -1.1913   -3.8138 C   0  0  0  0  0  0  0  0  0  0  0  0
   -3.7523   -0.3606   -4.6514 C   0  0  0  0  0  0  0  0  0  0  0  0
   -5.8984   -3.3081   -3.7205 C   0  0  0  0  0  0  0  0  0  0  0  0
   -7.0850   -3.6516   -4.3647 C   0  0  0  0  0  0  0  0  0  0  0  0
   -8.0367   -4.4412   -3.7170 C   0  0  0  0  0  0  0  0  0  0  0  0
   -7.8091   -4.8893   -2.4208 C   0  0  0  0  0  0  0  0  0  0  0  0
   -6.6330   -4.5535   -1.7488 C   0  0  0  0  0  0  0  0  0  0  0  0
   -5.6872   -3.7667   -2.3974 C   0  0  0  0  0  0  0  0  0  0  0  0
   -4.5008   -3.3649   -1.8666 O   0  0  0  0  0  0  0  0  0  0  0  0
   -4.2084   -3.7616   -0.5343 C   0  0  0  0  0  0  0  0  0  0  0  0
    3.1992    0.0074    1.1868 H   0  0  0  0  0  0  0  0  0  0  0  0
    1.9355   -0.0066    3.3371 H   0  0  0  0  0  0  0  0  0  0  0  0
   -0.5413   -0.0222    3.3342 H   0  0  0  0  0  0  0  0  0  0  0  0
   -1.8010   -0.0088    1.1811 H   0  0  0  0  0  0  0  0  0  0  0  0
    2.0382    0.1022   -3.1647 H   0  0  0  0  0  0  0  0  0  0  0  0
   -0.5058    0.1003   -5.4309 H   0  0  0  0  0  0  0  0  0  0  0  0
   -2.2325   -1.3823   -2.7500 H   0  0  0  0  0  0  0  0  0  0  0  0
   -0.9195   -2.0016   -3.7791 H   0  0  0  0  0  0  0  0  0  0  0  0
   -1.7782   -2.8974   -5.6849 H   0  0  0  0  0  0  0  0  0  0  0  0
   -3.1869   -2.1743   -6.5118 H   0  0  0  0  0  0  0  0  0  0  0  0
   -3.9239   -4.1815   -5.2170 H   0  0  0  0  0  0  0  0  0  0  0  0
   -3.1997   -3.5368   -3.7163 H   0  0  0  0  0  0  0  0  0  0  0  0
   -5.7357   -0.6736   -3.7801 H   0  0  0  0  0  0  0  0  0  0  0  0
   -4.3972   -1.2788   -2.7650 H   0  0  0  0  0  0  0  0  0  0  0  0
   -4.1966   -0.1352   -5.6482 H   0  0  0  0  0  0  0  0  0  0  0  0
   -3.5641    0.6133   -4.1550 H   0  0  0  0  0  0  0  0  0  0  0  0
   -7.2573   -3.2938   -5.3823 H   0  0  0  0  0  0  0  0  0  0  0  0
   -8.9567   -4.7048   -4.2325 H   0  0  0  0  0  0  0  0  0  0  0  0
   -8.5526   -5.5085   -1.9205 H   0  0  0  0  0  0  0  0  0  0  0  0
   -6.4711   -4.9103   -0.7372 H   0  0  0  0  0  0  0  0  0  0  0  0
   -4.1522   -4.8513   -0.4527 H   0  0  0  0  0  0  0  0  0  0  0  0
   -4.9372   -3.3432    0.1662 H   0  0  0  0  0  0  0  0  0  0  0  0
   -3.2174   -3.3122   -0.3746 H   0  0  0  0  0  0  0  0  0  0  0  0
  1  6  1  0  0  0  0
  2  1  2  0  0  0  0
  2  3  1  0  0  0  0
  3  4  2  0  0  0  0
  4 30  1  0  0  0  0
  5  4  1  0  0  0  0
  5 31  1  0  0  0  0
  6  5  2  0  0  0  0
  7  2  1  0  0  0  0
  8  7  1  0  0  0  0
  9  8  2  0  0  0  0
  9 10  1  0  0  0  0
 10  1  1  0  0  0  0
 11 12  1  1  0  0  0
 11  9  1  0  0  0  0
 13 11  1  0  0  0  0
 14 11  1  0  0  0  0
 14 35  1  0  0  0  0
 15 20  1  0  0  0  0
 15 14  1  0  0  0  0
 16 15  1  0  0  0  0
 16 17  1  0  0  0  0
 17 18  1  0  0  0  0
 17 40  1  0  0  0  0
 18 19  1  0  0  0  0
 18 21  1  0  0  0  0
 19 41  1  0  0  0  0
 19 42  1  0  0  0  0
 20 44  1  0  0  0  0
 20 19  1  0  0  0  0
 21 26  1  0  0  0  0
 22 21  2  0  0  0  0
 22 23  1  0  0  0  0
 23 24  2  0  0  0  0
 24 47  1  0  0  0  0
 24 25  1  0  0  0  0
 25 48  1  0  0  0  0
 26 27  1  0  0  0  0
 26 25  2  0  0  0  0
 27 28  1  0  0  0  0
 28 49  1  0  0  0  0
 28 51  1  0  0  0  0
 28 50  1  0  0  0  0
 29  3  1  0  0  0  0
 32  6  1  0  0  0  0
 33  8  1  0  0  0  0
 34 13  1  0  0  0  0
 36 14  1  0  0  0  0
 37 16  1  0  0  0  0
 38 16  1  0  0  0  0
 39 17  1  0  0  0  0
 43 20  1  0  0  0  0
 45 22  1  0  0  0  0
 46 23  1  0  0  0  0
M  END
$$$$
