rmsd100.gzmat
 OpenBabel08211713383D

 51 54  0  0  1  0  0  0  0  0999 V2000
    0.0000    0.0000    0.0000 C   0  0  0  0  0  0  0  0  0  0  0  0
    1.4020    0.0000    0.0000 C   0  0  0  0  0  0  0  0  0  0  0  0
    2.1128    0.0000    1.1919 C   0  0  0  0  0  0  0  0  0  0  0  0
    1.3958   -0.0022    2.3922 C   0  0  0  0  0  0  0  0  0  0  0  0
    0.0042   -0.0059    2.3915 C   0  0  0  0  0  0  0  0  0  0  0  0
   -0.7124   -0.0052    1.1908 C   0  0  0  0  0  0  0  0  0  0  0  0
    2.1366   -0.0002   -1.1634 O   0  0  0  0  0  0  0  0  0  0  0  0
    1.3734    0.0367   -2.3086 C   0  0  0  0  0  0  0  0  0  0  0  0
    0.0370    0.0421   -2.3104 C   0  0  0  0  0  0  0  0  0  0  0  0
   -0.7376    0.0041   -1.1617 O   0  0  0  0  0  0  0  0  0  0  0  0
   -0.8557    0.1087   -3.5122 C   0  0  1  0  0  0  0  0  0  0  0  0
   -1.5111    1.0113   -3.4764 H   0  0  0  0  0  0  0  0  0  0  0  0
    0.0078    0.2696   -4.6202 O   0  0  0  0  0  0  0  0  0  0  0  0
   -1.6818   -1.1985   -3.6338 C   0  0  0  0  0  0  0  0  0  0  0  0
   -2.3119   -1.1894   -4.9726 N   0  0  0  0  0  0  0  0  0  0  0  0
   -2.5080   -2.5476   -5.5189 C   0  0  0  0  0  0  0  0  0  0  0  0
   -3.6450   -3.3311   -4.8221 C   0  0  0  0  0  0  0  0  0  0  0  0
   -4.8946   -2.5399   -4.9572 N   0  0  0  0  0  0  0  0  0  0  0  0
   -4.7590   -1.2077   -4.3156 C   0  0  0  0  0  0  0  0  0  0  0  0
   -3.5934   -0.4543   -5.0003 C   0  0  0  0  0  0  0  0  0  0  0  0
   -6.0278   -3.2602   -4.4442 C   0  0  0  0  0  0  0  0  0  0  0  0
   -7.0241   -3.5889   -5.3613 C   0  0  0  0  0  0  0  0  0  0  0  0
   -8.1581   -4.2915   -4.9508 C   0  0  0  0  0  0  0  0  0  0  0  0
   -8.3025   -4.6701   -3.6209 C   0  0  0  0  0  0  0  0  0  0  0  0
   -7.3205   -4.3537   -2.6810 C   0  0  0  0  0  0  0  0  0  0  0  0
   -6.1922   -3.6526   -3.0941 C   0  0  0  0  0  0  0  0  0  0  0  0
   -5.1567   -3.2829   -2.2924 O   0  0  0  0  0  0  0  0  0  0  0  0
   -5.2514   -3.6011   -0.9113 C   0  0  0  0  0  0  0  0  0  0  0  0
    3.2003    0.0031    1.1833 H   0  0  0  0  0  0  0  0  0  0  0  0
    1.9383   -0.0003    3.3365 H   0  0  0  0  0  0  0  0  0  0  0  0
   -0.5382   -0.0080    3.3355 H   0  0  0  0  0  0  0  0  0  0  0  0
   -1.7994   -0.0070    1.1820 H   0  0  0  0  0  0  0  0  0  0  0  0
    2.0378    0.0647   -3.1652 H   0  0  0  0  0  0  0  0  0  0  0  0
   -0.4318   -0.1139   -5.4211 H   0  0  0  0  0  0  0  0  0  0  0  0
   -2.4003   -1.2723   -2.7921 H   0  0  0  0  0  0  0  0  0  0  0  0
   -1.0003   -2.0718   -3.5411 H   0  0  0  0  0  0  0  0  0  0  0  0
   -1.5576   -3.1158   -5.4592 H   0  0  0  0  0  0  0  0  0  0  0  0
   -2.7491   -2.4320   -6.6018 H   0  0  0  0  0  0  0  0  0  0  0  0
   -3.7992   -4.3079   -5.3274 H   0  0  0  0  0  0  0  0  0  0  0  0
   -3.3794   -3.5469   -3.7661 H   0  0  0  0  0  0  0  0  0  0  0  0
   -5.7094   -0.6541   -4.4710 H   0  0  0  0  0  0  0  0  0  0  0  0
   -4.5934   -1.2676   -3.2193 H   0  0  0  0  0  0  0  0  0  0  0  0
   -3.8451   -0.2803   -6.0727 H   0  0  0  0  0  0  0  0  0  0  0  0
   -3.4607    0.5421   -4.5320 H   0  0  0  0  0  0  0  0  0  0  0  0
   -6.9021   -3.2889   -6.4043 H   0  0  0  0  0  0  0  0  0  0  0  0
   -8.9281   -4.5410   -5.6766 H   0  0  0  0  0  0  0  0  0  0  0  0
   -9.1881   -5.2203   -3.3053 H   0  0  0  0  0  0  0  0  0  0  0  0
   -7.4480   -4.6569   -1.6473 H   0  0  0  0  0  0  0  0  0  0  0  0
   -5.2810   -4.6848   -0.7614 H   0  0  0  0  0  0  0  0  0  0  0  0
   -6.1160   -3.1090   -0.4554 H   0  0  0  0  0  0  0  0  0  0  0  0
   -4.3153   -3.1822   -0.5141 H   0  0  0  0  0  0  0  0  0  0  0  0
  1  6  1  0  0  0  0
  2  1  2  0  0  0  0
  2  3  1  0  0  0  0
  3  4  2  0  0  0  0
  4 30  1  0  0  0  0
  5  4  1  0  0  0  0
  5 31  1  0  0  0  0
  6  5  2  0  0  0  0
  7  2  1  0  0  0  0
  8  7  1  0  0  0  0
  9  8  2  0  0  0  0
  9 10  1  0  0  0  0
 10  1  1  0  0  0  0
 11 12  1  1  0  0  0
 11  9  1  0  0  0  0
 13 11  1  0  0  0  0
 14 36  1  0  0  0  0
 14 11  1  0  0  0  0
 14 35  1  0  0  0  0
 15 14  1  0  0  0  0
 16 37  1  0  0  0  0
 16 15  1  0  0  0  0
 16 17  1  0  0  0  0
 17 40  1  0  0  0  0
 18 17  1  0  0  0  0
 18 21  1  0  0  0  0
 18 19  1  0  0  0  0
 19 42  1  0  0  0  0
 20 15  1  0  0  0  0
 20 44  1  0  0  0  0
 20 19  1  0  0  0  0
 21 26  2  0  0  0  0
 22 23  2  0  0  0  0
 22 21  1  0  0  0  0
 23 24  1  0  0  0  0
 24 47  1  0  0  0  0
 24 25  2  0  0  0  0
 25 48  1  0  0  0  0
 26 25  1  0  0  0  0
 26 27  1  0  0  0  0
 27 28  1  0  0  0  0
 28 49  1  0  0  0  0
 28 51  1  0  0  0  0
 28 50  1  0  0  0  0
 29  3  1  0  0  0  0
 32  6  1  0  0  0  0
 33  8  1  0  0  0  0
 34 13  1  0  0  0  0
 38 16  1  0  0  0  0
 39 17  1  0  0  0  0
 41 19  1  0  0  0  0
 43 20  1  0  0  0  0
 45 22  1  0  0  0  0
 46 23  1  0  0  0  0
M  END
$$$$
