51
rmsd41.gzmat
C          0.00000        0.00000        0.00000
C          1.40210        0.00000        0.00000
C          2.11300        0.00000        1.19160
C          1.39570        0.00170        2.39210
C          0.00400        0.00840        2.39130
C         -0.71240        0.00890        1.19070
O          2.13550        0.00000       -1.16460
C          1.37260        0.09450       -2.30640
C          0.03580        0.08880       -2.30810
O         -0.73630       -0.01440       -1.16230
C         -0.85790        0.21020       -3.50250
H         -1.72160        0.88630       -3.29840
O         -0.06650        0.82040       -4.50490
C         -1.32770       -1.19400       -3.96780
N         -2.03780       -0.99200       -5.25020
C         -1.78350       -2.07150       -6.22490
C         -2.50110       -3.39580       -5.87510
N         -3.95720       -3.11660       -5.78740
C         -4.24940       -2.11400       -4.73190
C         -3.49330       -0.80810       -5.07720
C         -4.70850       -4.32610       -5.59150
C         -5.60070       -4.67620       -6.60320
C         -6.36340       -5.84060       -6.50050
C         -6.24080       -6.66080       -5.38450
C         -5.35920       -6.33140       -4.35420
C         -4.59770       -5.17220       -4.46270
O         -3.69410       -4.73510       -3.54390
C         -3.51930       -5.52130       -2.37380
H          3.20070       -0.00020        1.18370
H          1.93830        0.00060        3.33630
H         -0.53930        0.01570        3.33490
H         -1.79960        0.01790        1.18200
H          2.03620        0.18020       -3.15950
H         -0.47910        0.62980       -5.38410
H         -1.94310       -1.67000       -3.17820
H         -0.44130       -1.84820       -4.10950
H         -0.69120       -2.23990       -6.31820
H         -2.14250       -1.70760       -7.21640
H         -2.34080       -4.14130       -6.68250
H         -2.08500       -3.82960       -4.94170
H         -5.34450       -1.92730       -4.73000
H         -3.97810       -2.46280       -3.71330
H         -3.88600       -0.39650       -6.03620
H         -3.67990       -0.04430       -4.29480
H         -5.69240       -4.02550       -7.47560
H         -7.05260       -6.10330       -7.29920
H         -6.83630       -7.56980       -5.30900
H         -5.27850       -6.97920       -3.48800
H         -3.17170       -6.52810       -2.62500
H         -4.44100       -5.54990       -1.78420
H         -2.73470       -4.96610       -1.83970
