51
rmsd119.gzmat
C          0.00000        0.00000        0.00000
C          1.40220        0.00000        0.00000
C          2.11260        0.00000        1.19210
C          1.39500       -0.00190        2.39250
C          0.00330       -0.00400        2.39150
C         -0.71290       -0.00230        1.19030
O          2.13640       -0.00180       -1.16360
C          1.37360        0.07180       -2.30740
C          0.03730        0.07420       -2.30910
O         -0.73690       -0.00280       -1.16210
C         -0.85680        0.17370       -3.50700
H         -1.56020        1.03530       -3.41510
O         -0.00100        0.44800       -4.59960
C         -1.61160       -1.16420       -3.72150
N         -2.28500       -1.07120       -5.03590
C         -2.39600       -2.37840       -5.71430
C         -3.44240       -3.31750       -5.07000
N         -4.75440       -2.62180       -5.08430
C         -4.69940       -1.35060       -4.31840
C         -3.61950       -0.44210       -4.95390
C         -5.80600       -3.47640       -4.60400
C         -6.82650       -3.77730       -5.50420
C         -7.88630       -4.60100       -5.12100
C         -7.93110       -5.13070       -3.83630
C         -6.92280       -4.84550       -2.91440
C         -5.86960       -4.02240       -3.29960
O         -4.82280       -3.66110       -2.50840
C         -4.81680       -4.14070       -1.17130
H          3.20010        0.00280        1.18430
H          1.93720        0.00040        3.33700
H         -0.53960       -0.00420        3.33520
H         -1.80010        0.00130        1.18100
H          2.03790        0.12680       -3.16290
H         -0.44310        0.13560       -5.42880
H         -2.29710       -1.35390       -2.87050
H         -0.87870       -1.99990       -3.72540
H         -1.40280       -2.87130       -5.74020
H         -2.68460       -2.17380       -6.77220
H         -3.53970       -4.24700       -5.67010
H         -3.11960       -3.61740       -4.05100
H         -5.69470       -0.86310       -4.39400
H         -4.49370       -1.50280       -3.23780
H         -3.92130       -0.18270       -5.99550
H         -3.54740        0.51030       -4.39020
H         -6.78420       -3.35820       -6.51200
H         -8.67700       -4.82550       -5.83310
H         -8.75940       -5.77410       -3.54180
H         -6.97190       -5.26760       -1.91630
H         -4.73120       -5.23180       -1.15110
H         -5.70160       -3.79790       -0.62630
H         -3.90950       -3.67270       -0.76330
