rmsd14.gzmat
 OpenBabel08211713383D

 51 54  0  0  1  0  0  0  0  0999 V2000
    0.0000    0.0000    0.0000 C   0  0  0  0  0  0  0  0  0  0  0  0
    1.4023    0.0000    0.0000 C   0  0  0  0  0  0  0  0  0  0  0  0
    2.1124    0.0000    1.1922 C   0  0  0  0  0  0  0  0  0  0  0  0
    1.3949    0.0011    2.3925 C   0  0  0  0  0  0  0  0  0  0  0  0
    0.0032    0.0038    2.3916 C   0  0  0  0  0  0  0  0  0  0  0  0
   -0.7130    0.0027    1.1904 C   0  0  0  0  0  0  0  0  0  0  0  0
    2.1371   -0.0008   -1.1632 O   0  0  0  0  0  0  0  0  0  0  0  0
    1.3738   -0.0009   -2.3089 C   0  0  0  0  0  0  0  0  0  0  0  0
    0.0376   -0.0042   -2.3108 C   0  0  0  0  0  0  0  0  0  0  0  0
   -0.7375   -0.0034   -1.1616 O   0  0  0  0  0  0  0  0  0  0  0  0
   -0.8589   -0.0182   -3.5114 C   0  0  1  0  0  0  0  0  0  0  0  0
   -1.5818    0.8309   -3.4921 H   0  0  0  0  0  0  0  0  0  0  0  0
   -0.0107    0.1788   -4.6260 O   0  0  0  0  0  0  0  0  0  0  0  0
   -1.5781   -1.3903   -3.5984 C   0  0  0  0  0  0  0  0  0  0  0  0
   -2.2383   -1.4541   -4.9211 N   0  0  0  0  0  0  0  0  0  0  0  0
   -2.2626   -2.8238   -5.4744 C   0  0  0  0  0  0  0  0  0  0  0  0
   -3.2370   -3.7632   -4.7272 C   0  0  0  0  0  0  0  0  0  0  0  0
   -4.5961   -3.1673   -4.7928 N   0  0  0  0  0  0  0  0  0  0  0  0
   -4.6315   -1.8174   -4.1743 C   0  0  0  0  0  0  0  0  0  0  0  0
   -3.6115   -0.9087   -4.9020 C   0  0  0  0  0  0  0  0  0  0  0  0
   -5.5710   -4.0415   -4.1981 C   0  0  0  0  0  0  0  0  0  0  0  0
   -6.5528   -4.5509   -5.0456 C   0  0  0  0  0  0  0  0  0  0  0  0
   -7.5394   -5.4054   -4.5507 C   0  0  0  0  0  0  0  0  0  0  0  0
   -7.5495   -5.7568   -3.2056 C   0  0  0  0  0  0  0  0  0  0  0  0
   -6.5754   -5.2651   -2.3352 C   0  0  0  0  0  0  0  0  0  0  0  0
   -5.5939   -4.4137   -2.8321 C   0  0  0  0  0  0  0  0  0  0  0  0
   -4.5847   -3.8655   -2.1026 O   0  0  0  0  0  0  0  0  0  0  0  0
   -4.5505   -4.1502   -0.7114 C   0  0  0  0  0  0  0  0  0  0  0  0
    3.2002   -0.0007    1.1846 H   0  0  0  0  0  0  0  0  0  0  0  0
    1.9375    0.0009    3.3368 H   0  0  0  0  0  0  0  0  0  0  0  0
   -0.5396    0.0087    3.3352 H   0  0  0  0  0  0  0  0  0  0  0  0
   -1.8001    0.0071    1.1815 H   0  0  0  0  0  0  0  0  0  0  0  0
    2.0379    0.0052   -3.1663 H   0  0  0  0  0  0  0  0  0  0  0  0
   -0.4432   -0.2218   -5.4221 H   0  0  0  0  0  0  0  0  0  0  0  0
   -2.2695   -1.5087   -2.7389 H   0  0  0  0  0  0  0  0  0  0  0  0
   -0.8247   -2.2025   -3.5057 H   0  0  0  0  0  0  0  0  0  0  0  0
   -1.2375   -3.2471   -5.4660 H   0  0  0  0  0  0  0  0  0  0  0  0
   -2.5707   -2.7418   -6.5430 H   0  0  0  0  0  0  0  0  0  0  0  0
   -3.2727   -4.7532   -5.2297 H   0  0  0  0  0  0  0  0  0  0  0  0
   -2.8889   -3.9365   -3.6871 H   0  0  0  0  0  0  0  0  0  0  0  0
   -5.6577   -1.4121   -4.3046 H   0  0  0  0  0  0  0  0  0  0  0  0
   -4.4259   -1.8328   -3.0831 H   0  0  0  0  0  0  0  0  0  0  0  0
   -3.9249   -0.7750   -5.9635 H   0  0  0  0  0  0  0  0  0  0  0  0
   -3.6033    0.0983   -4.4370 H   0  0  0  0  0  0  0  0  0  0  0  0
   -6.5381   -4.2708   -6.1010 H   0  0  0  0  0  0  0  0  0  0  0  0
   -8.3006   -5.7937   -5.2232 H   0  0  0  0  0  0  0  0  0  0  0  0
   -8.3215   -6.4233   -2.8227 H   0  0  0  0  0  0  0  0  0  0  0  0
   -6.5960   -5.5494   -1.2887 H   0  0  0  0  0  0  0  0  0  0  0  0
   -4.3947   -5.2190   -0.5352 H   0  0  0  0  0  0  0  0  0  0  0  0
   -5.4568   -3.7899   -0.2151 H   0  0  0  0  0  0  0  0  0  0  0  0
   -3.6740   -3.5737   -0.3813 H   0  0  0  0  0  0  0  0  0  0  0  0
  1  6  1  0  0  0  0
  2  1  2  0  0  0  0
  2  3  1  0  0  0  0
  3  4  2  0  0  0  0
  4 30  1  0  0  0  0
  5  4  1  0  0  0  0
  5 31  1  0  0  0  0
  6  5  2  0  0  0  0
  7  2  1  0  0  0  0
  8  7  1  0  0  0  0
  9  8  2  0  0  0  0
  9 10  1  0  0  0  0
 10  1  1  0  0  0  0
 11 12  1  1  0  0  0
 11  9  1  0  0  0  0
 13 11  1  0  0  0  0
 14 11  1  0  0  0  0
 14 36  1  0  0  0  0
 14 35  1  0  0  0  0
 15 20  1  0  0  0  0
 15 14  1  0  0  0  0
 16 37  1  0  0  0  0
 16 15  1  0  0  0  0
 16 17  1  0  0  0  0
 17 40  1  0  0  0  0
 18 17  1  0  0  0  0
 18 21  1  0  0  0  0
 18 19  1  0  0  0  0
 19 42  1  0  0  0  0
 20 44  1  0  0  0  0
 20 19  1  0  0  0  0
 21 26  2  0  0  0  0
 22 23  2  0  0  0  0
 22 21  1  0  0  0  0
 23 24  1  0  0  0  0
 24 47  1  0  0  0  0
 24 25  2  0  0  0  0
 25 48  1  0  0  0  0
 26 25  1  0  0  0  0
 26 27  1  0  0  0  0
 27 28  1  0  0  0  0
 28 49  1  0  0  0  0
 28 51  1  0  0  0  0
 28 50  1  0  0  0  0
 29  3  1  0  0  0  0
 32  6  1  0  0  0  0
 33  8  1  0  0  0  0
 34 13  1  0  0  0  0
 38 16  1  0  0  0  0
 39 17  1  0  0  0  0
 41 19  1  0  0  0  0
 43 20  1  0  0  0  0
 45 22  1  0  0  0  0
 46 23  1  0  0  0  0
M  END
$$$$
