rmsd99.gzmat
 OpenBabel08211713383D

 37 38  0  0  1  0  0  0  0  0999 V2000
    0.0000    0.0000    0.0000 S   0  0  0  0  0  0  0  0  0  0  0  0
    1.6316    0.0000    0.0000 C   0  0  0  0  0  0  0  0  0  0  0  0
    2.0721    0.0000    1.3150 O   0  0  0  0  0  0  0  0  0  0  0  0
    3.3961    0.0216    1.5982 C   0  0  0  0  0  0  0  0  0  0  0  0
    4.3156   -0.0986    0.6815 N   0  0  0  0  0  0  0  0  0  0  0  0
    3.9473   -0.1970   -0.6703 C   0  0  0  0  0  0  0  0  0  0  0  0
    5.0064   -0.3619   -1.5325 N   0  0  0  0  0  0  0  0  0  0  0  0
    4.8425   -1.2012   -2.7362 C   0  0  0  0  0  0  0  0  0  0  0  0
    4.2371   -2.5746   -2.4346 C   0  0  0  0  0  0  0  0  0  0  0  0
    6.3852   -0.3031   -1.0012 C   0  0  0  0  0  0  0  0  0  0  0  0
    6.8745   -1.6233   -0.4006 C   0  0  0  0  0  0  0  0  0  0  0  0
    2.6039   -0.0246   -1.0250 C   0  0  2  0  0  0  0  0  0  0  0  0
    2.1402    0.1887   -2.4215 C   0  0  0  0  0  0  0  0  0  0  0  0
    3.6645    0.1549    3.0314 C   0  0  0  0  0  0  0  0  0  0  0  0
    4.9842    0.1384    3.4967 C   0  0  0  0  0  0  0  0  0  0  0  0
    5.2353    0.2701    4.8595 C   0  0  0  0  0  0  0  0  0  0  0  0
    4.1753    0.4187    5.7536 C   0  0  0  0  0  0  0  0  0  0  0  0
    2.8605    0.4359    5.2881 C   0  0  0  0  0  0  0  0  0  0  0  0
    2.5996    0.3041    3.9272 C   0  0  0  0  0  0  0  0  0  0  0  0
    5.8389   -1.3222   -3.2199 H   0  0  0  0  0  0  0  0  0  0  0  0
    4.2125   -0.6499   -3.4724 H   0  0  0  0  0  0  0  0  0  0  0  0
    4.8294   -3.1307   -1.6987 H   0  0  0  0  0  0  0  0  0  0  0  0
    4.1740   -3.1840   -3.3432 H   0  0  0  0  0  0  0  0  0  0  0  0
    3.2199   -2.4892   -2.0255 H   0  0  0  0  0  0  0  0  0  0  0  0
    6.4388    0.5073   -0.2331 H   0  0  0  0  0  0  0  0  0  0  0  0
    7.0469    0.0165   -1.8380 H   0  0  0  0  0  0  0  0  0  0  0  0
    6.2010   -1.9628    0.3997 H   0  0  0  0  0  0  0  0  0  0  0  0
    7.8694   -1.5052    0.0430 H   0  0  0  0  0  0  0  0  0  0  0  0
    6.9338   -2.4200   -1.1478 H   0  0  0  0  0  0  0  0  0  0  0  0
    1.9137   -0.7585   -2.9330 H   0  0  0  0  0  0  0  0  0  0  0  0
    2.8754    0.7477   -3.0176 H   0  0  0  0  0  0  0  0  0  0  0  0
    1.2133    0.7881   -2.4647 H   0  0  0  0  0  0  0  0  0  0  0  0
    5.8094    0.0239    2.7893 H   0  0  0  0  0  0  0  0  0  0  0  0
    6.2592    0.2580    5.2269 H   0  0  0  0  0  0  0  0  0  0  0  0
    4.3748    0.5221    6.8196 H   0  0  0  0  0  0  0  0  0  0  0  0
    2.0361    0.5521    5.9898 H   0  0  0  0  0  0  0  0  0  0  0  0
    1.5675    0.3162    3.5618 H   0  0  0  0  0  0  0  0  0  0  0  0
  1  2  2  0  0  0  0
  2  3  1  0  0  0  0
  3  4  1  0  0  0  0
  4 14  1  0  0  0  0
  5  4  2  0  0  0  0
  6  5  2  0  0  0  0
  7 10  1  0  0  0  0
  7  6  1  0  0  0  0
  8  9  1  0  0  0  0
  8  7  1  0  0  0  0
  9 24  1  0  0  0  0
  9 22  1  0  0  0  0
 10 11  1  0  0  0  0
 10 25  1  0  0  0  0
 11 28  1  0  0  0  0
 11 27  1  0  0  0  0
 12 13  1  1  0  0  0
 12  6  1  0  0  0  0
 12  2  1  0  0  0  0
 14 15  2  0  0  0  0
 14 19  1  0  0  0  0
 15 16  1  0  0  0  0
 16 34  1  0  0  0  0
 16 17  2  0  0  0  0
 17 35  1  0  0  0  0
 18 17  1  0  0  0  0
 18 36  1  0  0  0  0
 19 18  2  0  0  0  0
 20  8  1  0  0  0  0
 21  8  1  0  0  0  0
 23  9  1  0  0  0  0
 26 10  1  0  0  0  0
 29 11  1  0  0  0  0
 30 13  1  0  0  0  0
 31 13  1  0  0  0  0
 32 13  1  0  0  0  0
 33 15  1  0  0  0  0
 37 19  1  0  0  0  0
M  RAD  1  12   2
M  END
$$$$
