37
rmsd133.gzmat
S          0.00000        0.00000        0.00000
C          1.63250        0.00000        0.00000
O          2.06730        0.00000        1.31720
C          3.38940       -0.01930        1.60550
N          4.31270        0.09370        0.69160
C          3.95180        0.18560       -0.66300
N          5.01910        0.33640       -1.51530
C          6.39270        0.29740       -0.96680
C          6.85970        1.63270       -0.38220
C          4.86830        1.12680       -2.75240
C          4.28630        2.52160       -2.50770
C          2.60720        0.02230       -1.02190
C          2.14430       -0.18290       -2.42030
C          3.65400       -0.13820        3.04070
C          4.97450       -0.15530        3.50360
C          5.22400       -0.26310        4.86860
C          4.16120       -0.35530        5.76710
C          2.84600       -0.34190        5.30380
C          2.58680       -0.23360        3.94050
H          7.06900       -0.02870       -1.78910
H          6.44410       -0.49790       -0.18290
H          6.92170        2.41770       -1.14120
H          7.84870        1.53290        0.07790
H          6.17100        1.97790        0.40260
H          4.22970        0.55720       -3.46720
H          5.86610        1.21030       -3.24190
H          3.27440        2.47120       -2.08030
H          4.21940        3.08890       -3.44260
H          4.89760        3.10350       -1.80900
H          1.18240       -0.72320       -2.46750
H          2.84810       -0.79770       -2.99930
H          1.98410        0.76830       -2.94880
H          5.80030       -0.08400        2.79130
H          6.24860       -0.27490        5.23400
H          4.35990       -0.43770        6.83510
H          2.01960       -0.41500        6.00930
H          1.55430       -0.22300        3.57620
