37
rmsd37.gzmat
S          0.00000        0.00000        0.00000
C          1.63160        0.00000        0.00000
O          2.07320        0.00000        1.31430
C          3.39730        0.01790        1.59580
N          4.31640       -0.09630        0.67800
C          3.94780       -0.19070       -0.67380
N          5.00770       -0.34640       -1.53800
C          6.38620       -0.28250       -1.00600
C          6.88550       -1.60420       -0.41710
C          4.84900       -1.19270       -2.73740
C          4.26190       -2.57180       -2.42690
C          2.60350       -0.02460       -1.02620
C          2.13620        0.18200       -2.42240
C          3.66720        0.13520        3.02980
C          4.98980        0.14260        3.48660
C          5.24610        0.25010        4.85030
C          4.18760        0.35110        5.75300
C          2.87020        0.34560        5.29570
C          2.60400        0.23740        3.93360
H          6.43440        0.52120       -0.23070
H          7.04460        0.04870       -1.84090
H          6.20180       -1.96750        0.36380
H          7.86850       -1.47670        0.04920
H          6.97650       -2.38760       -1.17530
H          5.84470       -1.30330       -3.22520
H          4.20920       -0.65310       -3.47370
H          4.87300       -3.12210       -1.70200
H          4.19150       -3.18210       -3.33400
H          3.24960       -2.49630       -2.00440
H          1.88750       -0.76650       -2.92110
H          2.87860        0.71810       -3.02990
H          1.22260        0.80080       -2.46540
H          5.81260        0.06330        2.77150
H          6.27280        0.25530        5.21010
H          4.39140        0.43460        6.81990
H          2.04690        0.42580        6.00390
H          1.56950        0.23280        3.57430
