rmsd133.gzmat
 OpenBabel08211713383D

 37 38  0  0  1  0  0  0  0  0999 V2000
    0.0000    0.0000    0.0000 S   0  0  0  0  0  0  0  0  0  0  0  0
    1.6325    0.0000    0.0000 C   0  0  0  0  0  0  0  0  0  0  0  0
    2.0673    0.0000    1.3172 O   0  0  0  0  0  0  0  0  0  0  0  0
    3.3894   -0.0193    1.6055 C   0  0  0  0  0  0  0  0  0  0  0  0
    4.3127    0.0937    0.6916 N   0  0  0  0  0  0  0  0  0  0  0  0
    3.9518    0.1856   -0.6630 C   0  0  0  0  0  0  0  0  0  0  0  0
    5.0191    0.3364   -1.5153 N   0  0  0  0  0  0  0  0  0  0  0  0
    6.3927    0.2974   -0.9668 C   0  0  0  0  0  0  0  0  0  0  0  0
    6.8597    1.6327   -0.3822 C   0  0  0  0  0  0  0  0  0  0  0  0
    4.8683    1.1268   -2.7524 C   0  0  0  0  0  0  0  0  0  0  0  0
    4.2863    2.5216   -2.5077 C   0  0  0  0  0  0  0  0  0  0  0  0
    2.6072    0.0223   -1.0219 C   0  0  1  0  0  0  0  0  0  0  0  0
    2.1443   -0.1829   -2.4203 C   0  0  0  0  0  0  0  0  0  0  0  0
    3.6540   -0.1382    3.0407 C   0  0  0  0  0  0  0  0  0  0  0  0
    4.9745   -0.1553    3.5036 C   0  0  0  0  0  0  0  0  0  0  0  0
    5.2240   -0.2631    4.8686 C   0  0  0  0  0  0  0  0  0  0  0  0
    4.1612   -0.3553    5.7671 C   0  0  0  0  0  0  0  0  0  0  0  0
    2.8460   -0.3419    5.3038 C   0  0  0  0  0  0  0  0  0  0  0  0
    2.5868   -0.2336    3.9405 C   0  0  0  0  0  0  0  0  0  0  0  0
    7.0690   -0.0287   -1.7891 H   0  0  0  0  0  0  0  0  0  0  0  0
    6.4441   -0.4979   -0.1829 H   0  0  0  0  0  0  0  0  0  0  0  0
    6.9217    2.4177   -1.1412 H   0  0  0  0  0  0  0  0  0  0  0  0
    7.8487    1.5329    0.0779 H   0  0  0  0  0  0  0  0  0  0  0  0
    6.1710    1.9779    0.4026 H   0  0  0  0  0  0  0  0  0  0  0  0
    4.2297    0.5572   -3.4672 H   0  0  0  0  0  0  0  0  0  0  0  0
    5.8661    1.2103   -3.2419 H   0  0  0  0  0  0  0  0  0  0  0  0
    3.2744    2.4712   -2.0803 H   0  0  0  0  0  0  0  0  0  0  0  0
    4.2194    3.0889   -3.4426 H   0  0  0  0  0  0  0  0  0  0  0  0
    4.8976    3.1035   -1.8090 H   0  0  0  0  0  0  0  0  0  0  0  0
    1.1824   -0.7232   -2.4675 H   0  0  0  0  0  0  0  0  0  0  0  0
    2.8481   -0.7977   -2.9993 H   0  0  0  0  0  0  0  0  0  0  0  0
    1.9841    0.7683   -2.9488 H   0  0  0  0  0  0  0  0  0  0  0  0
    5.8003   -0.0840    2.7913 H   0  0  0  0  0  0  0  0  0  0  0  0
    6.2486   -0.2749    5.2340 H   0  0  0  0  0  0  0  0  0  0  0  0
    4.3599   -0.4377    6.8351 H   0  0  0  0  0  0  0  0  0  0  0  0
    2.0196   -0.4150    6.0093 H   0  0  0  0  0  0  0  0  0  0  0  0
    1.5543   -0.2230    3.5762 H   0  0  0  0  0  0  0  0  0  0  0  0
  1  2  2  0  0  0  0
  2  3  1  0  0  0  0
  3  4  1  0  0  0  0
  4 14  1  0  0  0  0
  5  4  2  0  0  0  0
  6  5  2  0  0  0  0
  7  8  1  0  0  0  0
  7  6  1  0  0  0  0
  8  9  1  0  0  0  0
  8 21  1  0  0  0  0
  9 23  1  0  0  0  0
  9 24  1  0  0  0  0
 10 11  1  0  0  0  0
 10  7  1  0  0  0  0
 11 27  1  0  0  0  0
 11 29  1  0  0  0  0
 12 13  1  1  0  0  0
 12  6  1  0  0  0  0
 12  2  1  0  0  0  0
 14 15  2  0  0  0  0
 14 19  1  0  0  0  0
 15 16  1  0  0  0  0
 16 34  1  0  0  0  0
 16 17  2  0  0  0  0
 17 35  1  0  0  0  0
 18 17  1  0  0  0  0
 18 36  1  0  0  0  0
 19 18  2  0  0  0  0
 20  8  1  0  0  0  0
 22  9  1  0  0  0  0
 25 10  1  0  0  0  0
 26 10  1  0  0  0  0
 28 11  1  0  0  0  0
 30 13  1  0  0  0  0
 31 13  1  0  0  0  0
 32 13  1  0  0  0  0
 33 15  1  0  0  0  0
 37 19  1  0  0  0  0
M  RAD  1  12   2
M  END
$$$$
