rmsd93.gzmat
 OpenBabel08211713383D

 37 38  0  0  1  0  0  0  0  0999 V2000
    0.0000    0.0000    0.0000 S   0  0  0  0  0  0  0  0  0  0  0  0
    1.6315    0.0000    0.0000 C   0  0  0  0  0  0  0  0  0  0  0  0
    2.0709    0.0000    1.3149 O   0  0  0  0  0  0  0  0  0  0  0  0
    3.3944    0.0348    1.5992 C   0  0  0  0  0  0  0  0  0  0  0  0
    4.3156   -0.0863    0.6840 N   0  0  0  0  0  0  0  0  0  0  0  0
    3.9482   -0.1943   -0.6676 C   0  0  0  0  0  0  0  0  0  0  0  0
    5.0054   -0.3653   -1.5301 N   0  0  0  0  0  0  0  0  0  0  0  0
    4.8384   -1.2087   -2.7308 C   0  0  0  0  0  0  0  0  0  0  0  0
    4.2258   -2.5780   -2.4246 C   0  0  0  0  0  0  0  0  0  0  0  0
    6.3853   -0.3031   -1.0034 C   0  0  0  0  0  0  0  0  0  0  0  0
    6.8757   -1.6225   -0.4024 C   0  0  0  0  0  0  0  0  0  0  0  0
    2.6048   -0.0229   -1.0237 C   0  0  2  0  0  0  0  0  0  0  0  0
    2.1433    0.1947   -2.4203 C   0  0  0  0  0  0  0  0  0  0  0  0
    3.6568    0.1854    3.0319 C   0  0  0  0  0  0  0  0  0  0  0  0
    2.5868    0.2618    3.9306 C   0  0  0  0  0  0  0  0  0  0  0  0
    2.8414    0.4133    5.2908 C   0  0  0  0  0  0  0  0  0  0  0  0
    4.1552    0.4882    5.7521 C   0  0  0  0  0  0  0  0  0  0  0  0
    5.2208    0.4108    4.8555 C   0  0  0  0  0  0  0  0  0  0  0  0
    4.9756    0.2589    3.4939 C   0  0  0  0  0  0  0  0  0  0  0  0
    5.8344   -1.3369   -3.2134 H   0  0  0  0  0  0  0  0  0  0  0  0
    4.2109   -0.6572   -3.4692 H   0  0  0  0  0  0  0  0  0  0  0  0
    4.8089   -3.1297   -1.6784 H   0  0  0  0  0  0  0  0  0  0  0  0
    4.1719   -3.1956   -3.3282 H   0  0  0  0  0  0  0  0  0  0  0  0
    3.2042   -2.4857   -2.0284 H   0  0  0  0  0  0  0  0  0  0  0  0
    6.4398    0.5088   -0.2372 H   0  0  0  0  0  0  0  0  0  0  0  0
    7.0447    0.0151   -1.8428 H   0  0  0  0  0  0  0  0  0  0  0  0
    6.2033   -1.9613    0.3992 H   0  0  0  0  0  0  0  0  0  0  0  0
    7.8707   -1.5033    0.0403 H   0  0  0  0  0  0  0  0  0  0  0  0
    6.9342   -2.4205   -1.1487 H   0  0  0  0  0  0  0  0  0  0  0  0
    1.9152   -0.7507   -2.9348 H   0  0  0  0  0  0  0  0  0  0  0  0
    2.8805    0.7544   -3.0134 H   0  0  0  0  0  0  0  0  0  0  0  0
    1.2180    0.7963   -2.4614 H   0  0  0  0  0  0  0  0  0  0  0  0
    1.5550    0.2035    3.5693 H   0  0  0  0  0  0  0  0  0  0  0  0
    2.0124    0.4734    5.9944 H   0  0  0  0  0  0  0  0  0  0  0  0
    4.3498    0.6071    6.8173 H   0  0  0  0  0  0  0  0  0  0  0  0
    6.2444    0.4695    5.2199 H   0  0  0  0  0  0  0  0  0  0  0  0
    5.8047    0.1969    2.7847 H   0  0  0  0  0  0  0  0  0  0  0  0
  1  2  2  0  0  0  0
  2  3  1  0  0  0  0
  3  4  1  0  0  0  0
  4 14  1  0  0  0  0
  5  4  2  0  0  0  0
  6  5  2  0  0  0  0
  7 10  1  0  0  0  0
  7  6  1  0  0  0  0
  8  9  1  0  0  0  0
  8  7  1  0  0  0  0
  9 24  1  0  0  0  0
  9 22  1  0  0  0  0
 10 11  1  0  0  0  0
 10 25  1  0  0  0  0
 11 28  1  0  0  0  0
 11 27  1  0  0  0  0
 12 13  1  1  0  0  0
 12  6  1  0  0  0  0
 12  2  1  0  0  0  0
 14 19  2  0  0  0  0
 14 15  1  0  0  0  0
 15 16  2  0  0  0  0
 16 17  1  0  0  0  0
 16 34  1  0  0  0  0
 17 35  1  0  0  0  0
 18 36  1  0  0  0  0
 18 17  2  0  0  0  0
 19 18  1  0  0  0  0
 20  8  1  0  0  0  0
 21  8  1  0  0  0  0
 23  9  1  0  0  0  0
 26 10  1  0  0  0  0
 29 11  1  0  0  0  0
 30 13  1  0  0  0  0
 31 13  1  0  0  0  0
 32 13  1  0  0  0  0
 33 15  1  0  0  0  0
 37 19  1  0  0  0  0
M  RAD  1  12   2
M  END
$$$$
