37
rmsd126.gzmat
S          0.00000        0.00000        0.00000
C          1.63200        0.00000        0.00000
O          2.06600        0.00000        1.31770
C          3.38770       -0.02240        1.60640
N          4.31260        0.09230        0.69420
C          3.95200        0.18830       -0.65990
N          5.01760        0.34430       -1.51290
C          6.39340        0.29220       -0.97280
C          6.88520        1.62740       -0.40880
C          4.86520        1.14660       -2.74230
C          4.27420        2.53540       -2.48510
C          2.60810        0.02270       -1.02020
C          2.15030       -0.18900       -2.41900
C          3.65150       -0.14940        3.04070
C          2.58870       -0.13570        3.95070
C          2.85020       -0.25800        5.31270
C          4.16290       -0.39430        5.76360
C          5.22060       -0.40870        4.85430
C          4.96900       -0.28580        3.49120
H          7.05730       -0.05440       -1.79700
H          6.44070       -0.49440       -0.18000
H          6.92650        2.40910       -1.17280
H          7.88930        1.52470        0.01720
H          6.22470        1.97950        0.39670
H          4.23210        0.57970       -3.46400
H          5.86400        1.24220       -3.22750
H          3.27920        2.47490       -2.02110
H          4.16430        3.09490       -3.42080
H          4.90390        3.13000       -1.81300
H          1.19970       -0.74860       -2.46710
H          2.86830       -0.78700       -2.99820
H          1.97040        0.75970       -2.94580
H          1.55860       -0.03080        3.59550
H          2.02800       -0.24630        6.02630
H          4.36380       -0.49000        6.83030
H          6.24310       -0.51590        5.20930
H          5.79180       -0.29380        2.77160
