rmsd129.gzmat
 OpenBabel08211713383D

 37 38  0  0  1  0  0  0  0  0999 V2000
    0.0000    0.0000    0.0000 S   0  0  0  0  0  0  0  0  0  0  0  0
    1.6313    0.0000    0.0000 C   0  0  0  0  0  0  0  0  0  0  0  0
    2.0723    0.0000    1.3148 O   0  0  0  0  0  0  0  0  0  0  0  0
    3.3961   -0.0220    1.5975 C   0  0  0  0  0  0  0  0  0  0  0  0
    4.3161    0.0855    0.6797 N   0  0  0  0  0  0  0  0  0  0  0  0
    3.9482    0.1815   -0.6721 C   0  0  0  0  0  0  0  0  0  0  0  0
    5.0079    0.3294   -1.5380 N   0  0  0  0  0  0  0  0  0  0  0  0
    6.3864    0.2268   -1.0131 C   0  0  0  0  0  0  0  0  0  0  0  0
    6.9205    1.5239   -0.4004 C   0  0  0  0  0  0  0  0  0  0  0  0
    4.8579    1.1910   -2.7278 C   0  0  0  0  0  0  0  0  0  0  0  0
    4.2791    2.5712   -2.4046 C   0  0  0  0  0  0  0  0  0  0  0  0
    2.6033    0.0235   -1.0258 C   0  0  1  0  0  0  0  0  0  0  0  0
    2.1392   -0.1761   -2.4242 C   0  0  0  0  0  0  0  0  0  0  0  0
    3.6662   -0.1361    3.0319 C   0  0  0  0  0  0  0  0  0  0  0  0
    2.6033   -0.2331    3.9366 C   0  0  0  0  0  0  0  0  0  0  0  0
    2.8689   -0.3424    5.2989 C   0  0  0  0  0  0  0  0  0  0  0  0
    4.1862   -0.3564    5.7560 C   0  0  0  0  0  0  0  0  0  0  0  0
    5.2447   -0.2557    4.8530 C   0  0  0  0  0  0  0  0  0  0  0  0
    4.9889   -0.1451    3.4895 C   0  0  0  0  0  0  0  0  0  0  0  0
    7.0339   -0.1040   -1.8569 H   0  0  0  0  0  0  0  0  0  0  0  0
    6.4188   -0.5917   -0.2522 H   0  0  0  0  0  0  0  0  0  0  0  0
    6.9769    2.3358   -1.1310 H   0  0  0  0  0  0  0  0  0  0  0  0
    7.9252    1.3740    0.0111 H   0  0  0  0  0  0  0  0  0  0  0  0
    6.2779    1.8597    0.4264 H   0  0  0  0  0  0  0  0  0  0  0  0
    4.2134    0.6647   -3.4702 H   0  0  0  0  0  0  0  0  0  0  0  0
    5.8549    1.3002   -3.2128 H   0  0  0  0  0  0  0  0  0  0  0  0
    3.2649    2.4985   -1.9856 H   0  0  0  0  0  0  0  0  0  0  0  0
    4.2145    3.1912   -3.3061 H   0  0  0  0  0  0  0  0  0  0  0  0
    4.8911    3.1098   -1.6718 H   0  0  0  0  0  0  0  0  0  0  0  0
    1.2092   -0.7700   -2.4730 H   0  0  0  0  0  0  0  0  0  0  0  0
    2.8722   -0.7349   -3.0235 H   0  0  0  0  0  0  0  0  0  0  0  0
    1.9206    0.7768   -2.9286 H   0  0  0  0  0  0  0  0  0  0  0  0
    1.5690   -0.2225    3.5779 H   0  0  0  0  0  0  0  0  0  0  0  0
    2.0459   -0.4165    6.0076 H   0  0  0  0  0  0  0  0  0  0  0  0
    4.3891   -0.4459    6.8224 H   0  0  0  0  0  0  0  0  0  0  0  0
    6.2713   -0.2639    5.2132 H   0  0  0  0  0  0  0  0  0  0  0  0
    5.8129   -0.0657    2.7756 H   0  0  0  0  0  0  0  0  0  0  0  0
  1  2  2  0  0  0  0
  2  3  1  0  0  0  0
  3  4  1  0  0  0  0
  4 14  1  0  0  0  0
  5  4  2  0  0  0  0
  6  5  2  0  0  0  0
  7  8  1  0  0  0  0
  7  6  1  0  0  0  0
  8  9  1  0  0  0  0
  8 21  1  0  0  0  0
  9 23  1  0  0  0  0
  9 24  1  0  0  0  0
 10 11  1  0  0  0  0
 10  7  1  0  0  0  0
 11 27  1  0  0  0  0
 11 29  1  0  0  0  0
 12 13  1  1  0  0  0
 12  6  1  0  0  0  0
 12  2  1  0  0  0  0
 14 19  2  0  0  0  0
 14 15  1  0  0  0  0
 15 16  2  0  0  0  0
 16 17  1  0  0  0  0
 16 34  1  0  0  0  0
 17 35  1  0  0  0  0
 18 36  1  0  0  0  0
 18 17  2  0  0  0  0
 19 18  1  0  0  0  0
 20  8  1  0  0  0  0
 22  9  1  0  0  0  0
 25 10  1  0  0  0  0
 26 10  1  0  0  0  0
 28 11  1  0  0  0  0
 30 13  1  0  0  0  0
 31 13  1  0  0  0  0
 32 13  1  0  0  0  0
 33 15  1  0  0  0  0
 37 19  1  0  0  0  0
M  RAD  1  12   2
M  END
$$$$
