45
rmsd61.gzmat
N          0.00000        0.00000        0.00000
C          1.41470        0.00000        0.00000
N          1.90620        0.00000        1.24790
C          0.81900       -0.02550        2.11590
C          0.71390       -0.03770        3.50800
C         -0.57440       -0.07340        4.00800
C         -1.72240       -0.09350        3.18010
N         -1.65040       -0.08110        1.84480
C         -0.39880       -0.04790        1.33550
Cl        -0.81020       -0.09840        5.69230
C          2.23210        0.00320       -1.23590
C          2.85230        1.38520       -1.56760
C          1.75640        2.39090       -2.00060
C          1.22160        2.07010       -3.35550
O          0.54670        1.13240       -3.70330
O          1.58140        3.01990       -4.25430
C          3.57660        1.96220       -0.34830
C          3.85810        1.18810       -2.71130
C         -0.89520       -0.22620       -1.12910
C         -0.82480       -1.65630       -1.59700
C         -1.15480       -2.69020       -0.71750
C         -1.06740       -4.01580       -1.13480
C         -0.66300       -4.26790       -2.43970
C         -0.34580       -3.25890       -3.33900
C         -0.43030       -1.93700       -2.90540
Cl        -0.55410       -5.89470       -2.96350
H          1.60430       -0.02270        4.13840
H         -2.73550       -0.12190        3.60540
H          1.64290       -0.36400       -2.10750
H          3.05980       -0.73850       -1.11170
H          2.17580        3.42290       -1.98310
H          0.92850        2.39540       -1.25900
H          1.24210        2.85590       -5.16890
H          4.22130        1.20840        0.12620
H          2.87770        2.28490        0.43470
H          4.20320        2.81960       -0.60990
H          4.72710        0.60700       -2.37960
H          4.23620        2.14830       -3.08210
H          3.41860        0.65810       -3.56410
H         -0.63310        0.48770       -1.95150
H         -1.94420        0.02580       -0.81700
H         -1.48220       -2.45840        0.29860
H         -1.31280       -4.82750       -0.45010
H         -0.03620       -3.48450       -4.35860
H         -0.19040       -1.12370       -3.59640
