45
rmsd204.gzmat
N          0.00000        0.00000        0.00000
C          1.41420        0.00000        0.00000
N          1.90210        0.00000        1.25010
C          0.81250        0.02530        2.11530
C          0.70230        0.03940        3.50730
C         -0.58800        0.07930        4.00230
C         -1.73370        0.10420        3.17110
N         -1.65760        0.08770        1.83620
C         -0.40370        0.04580        1.33240
Cl        -0.83150        0.10320        5.68590
C          2.20880        0.00720       -1.25110
C          3.25570       -1.13410       -1.33810
C          2.66450       -2.47490       -0.85410
C          1.41660       -2.87320       -1.56210
O          0.78720       -2.30770       -2.42180
O          0.98660       -4.07360       -1.09170
C          3.70800       -1.26030       -2.80040
C          4.46660       -0.79740       -0.45960
C         -0.90290        0.11340       -1.13970
C         -0.83590        1.49830       -1.72620
C         -0.32800        1.68980       -3.01160
C         -0.22550        2.97750       -3.53480
C         -0.64410        4.04290       -2.74870
C         -1.17300        3.87760       -1.47480
C         -1.27140        2.58590       -0.96480
Cl        -0.50650        5.62820       -3.37840
H          1.58990        0.02240        4.14110
H         -2.74780        0.13960        3.59340
H          2.73370        0.98780       -1.34040
H          1.54050       -0.04810       -2.14220
H          2.46720       -2.42590        0.24590
H          3.42470       -3.28190       -0.95350
H          0.14770       -4.38990       -1.50720
H          4.13650       -0.32200       -3.16980
H          2.87270       -1.52280       -3.46310
H          4.47430       -2.03390       -2.91680
H          4.95530        0.12650       -0.78610
H          5.21810       -1.59100       -0.47590
H          4.17060       -0.64130        0.59080
H         -1.94820       -0.11740       -0.79920
H         -0.64590       -0.67510       -1.89420
H         -0.01290        0.83640       -3.61360
H          0.17510        3.13570       -4.53520
H         -1.50380        4.73110       -0.88300
H         -1.68480        2.42090        0.03320
