
     RDKit          3D

 45 47  0  0  0  0  0  0  0  0999 V2000
    0.0031    0.0753    0.0897 N   0  0  0  0  0  0  0  0  0  0  0  0
    1.3877    0.0111    0.1022 C   0  0  0  0  0  0  0  0  0  0  0  0
    1.8798   -0.0621    1.3264 N   0  0  0  0  0  0  0  0  0  0  0  0
    0.7934   -0.0338    2.1718 C   0  0  0  0  0  0  0  0  0  0  0  0
    0.6725   -0.0735    3.5642 C   0  0  0  0  0  0  0  0  0  0  0  0
   -0.6291   -0.0085    4.0667 C   0  0  0  0  0  0  0  0  0  0  0  0
   -1.7459    0.0935    3.2084 C   0  0  0  0  0  0  0  0  0  0  0  0
   -1.6390    0.1306    1.8785 N   0  0  0  0  0  0  0  0  0  0  0  0
   -0.4020    0.0623    1.4116 C   0  0  0  0  0  0  0  0  0  0  0  0
   -0.9023   -0.0478    5.7925 Cl  0  0  0  0  0  0  0  0  0  0  0  0
    2.1987    0.0260   -1.1544 C   0  0  0  0  0  0  0  0  0  0  0  0
    3.2475   -1.1154   -1.2927 C   0  0  0  0  0  0  0  0  0  0  0  0
    2.6656   -2.4820   -0.8803 C   0  0  0  0  0  0  0  0  0  0  0  0
    1.4476   -2.9660   -1.6274 C   0  0  0  0  0  0  0  0  0  0  0  0
    0.7083   -2.3042   -2.3232 O   0  0  0  0  0  0  0  0  0  0  0  0
    1.2292   -4.2755   -1.4139 O   0  0  0  0  0  0  0  0  0  0  0  0
    3.7137   -1.1567   -2.7571 C   0  0  0  0  0  0  0  0  0  0  0  0
    4.4538   -0.8314   -0.3812 C   0  0  0  0  0  0  0  0  0  0  0  0
   -0.9026    0.1927   -1.0480 C   0  0  0  0  0  0  0  0  0  0  0  0
   -0.8266    1.5445   -1.7211 C   0  0  0  0  0  0  0  0  0  0  0  0
   -0.5613    1.6465   -3.0913 C   0  0  0  0  0  0  0  0  0  0  0  0
   -0.4870    2.8922   -3.7194 C   0  0  0  0  0  0  0  0  0  0  0  0
   -0.6752    4.0488   -2.9611 C   0  0  0  0  0  0  0  0  0  0  0  0
   -0.9407    3.9709   -1.5899 C   0  0  0  0  0  0  0  0  0  0  0  0
   -1.0165    2.7199   -0.9799 C   0  0  0  0  0  0  0  0  0  0  0  0
   -0.5763    5.6136   -3.7322 Cl  0  0  0  0  0  0  0  0  0  0  0  0
    1.5390   -0.1470    4.2222 H   0  0  0  0  0  0  0  0  0  0  0  0
   -2.7494    0.1471    3.6397 H   0  0  0  0  0  0  0  0  0  0  0  0
    2.7360    0.9881   -1.2050 H   0  0  0  0  0  0  0  0  0  0  0  0
    1.5229   -0.0018   -2.0137 H   0  0  0  0  0  0  0  0  0  0  0  0
    2.3882   -2.4632    0.1880 H   0  0  0  0  0  0  0  0  0  0  0  0
    3.4376   -3.2630   -0.9647 H   0  0  0  0  0  0  0  0  0  0  0  0
    0.4145   -4.5080   -1.8924 H   0  0  0  0  0  0  0  0  0  0  0  0
    4.1246   -0.1801   -3.0582 H   0  0  0  0  0  0  0  0  0  0  0  0
    2.8847   -1.4003   -3.4377 H   0  0  0  0  0  0  0  0  0  0  0  0
    4.5080   -1.9084   -2.8919 H   0  0  0  0  0  0  0  0  0  0  0  0
    4.9416    0.1108   -0.6777 H   0  0  0  0  0  0  0  0  0  0  0  0
    5.2013   -1.6373   -0.4613 H   0  0  0  0  0  0  0  0  0  0  0  0
    4.1370   -0.7353    0.6660 H   0  0  0  0  0  0  0  0  0  0  0  0
   -1.9083    0.0265   -0.6338 H   0  0  0  0  0  0  0  0  0  0  0  0
   -0.6846   -0.6129   -1.7606 H   0  0  0  0  0  0  0  0  0  0  0  0
   -0.4060    0.7382   -3.6795 H   0  0  0  0  0  0  0  0  0  0  0  0
   -0.2787    2.9708   -4.7872 H   0  0  0  0  0  0  0  0  0  0  0  0
   -1.0886    4.8857   -1.0143 H   0  0  0  0  0  0  0  0  0  0  0  0
   -1.2300    2.6544    0.0900 H   0  0  0  0  0  0  0  0  0  0  0  0
  1  2  1  0
  1  9  1  0
  1 19  1  0
  2  3  2  0
  2 11  1  0
  3  4  1  0
  4  5  1  0
  4  9  2  0
  5  6  2  0
  5 27  1  0
  6  7  1  0
  6 10  1  0
  7  8  2  0
  7 28  1  0
  8  9  1  0
 12 11  1  0
 11 29  1  0
 11 30  1  0
 12 13  1  0
 12 17  1  0
 12 18  1  0
 13 14  1  0
 13 31  1  0
 13 32  1  0
 14 15  2  0
 14 16  1  0
 16 33  1  0
 17 34  1  0
 17 35  1  0
 17 36  1  0
 18 37  1  0
 18 38  1  0
 18 39  1  0
 19 20  1  0
 19 40  1  0
 19 41  1  0
 20 21  2  0
 20 25  1  0
 21 22  1  0
 21 42  1  0
 22 23  2  0
 22 43  1  0
 23 24  1  0
 23 26  1  0
 24 25  2  0
 24 44  1  0
 25 45  1  0
M  END

