45
rmsd130.gzmat
N          0.00000        0.00000        0.00000
C          1.41330        0.00000        0.00000
N          1.90640        0.00000        1.24740
C          0.81770        0.01950        2.11440
C          0.71080        0.02490        3.50650
C         -0.57830        0.05230        4.00490
C         -1.72590        0.07560        3.17670
N         -1.65340        0.06880        1.84140
C         -0.40090        0.03840        1.33320
Cl        -0.81590        0.05920        5.68950
C          2.21400       -0.00330       -1.24630
C          2.80300       -1.40370       -1.56260
C          3.26450       -1.42510       -3.04150
C          2.13220       -1.39270       -4.01220
O          1.01860       -0.94540       -3.89740
O          2.51500       -1.95740       -5.18770
C          4.03150       -1.64700       -0.67710
C          1.77460       -2.51230       -1.32250
C         -0.89370        0.11920       -1.14590
C         -0.91700        1.53400       -1.66360
C         -0.52810        1.79810       -2.97760
C         -0.52660        3.10820       -3.45340
C         -0.91950        4.12260       -2.59050
C         -1.32490        3.88550       -1.28330
C         -1.32750        2.57100       -0.82300
Cl        -0.90590        5.73670       -3.16360
H          1.60070        0.00910        4.13780
H         -2.73910        0.10070        3.60180
H          3.04460        0.73460       -1.14620
H          1.60160        0.36170       -2.10220
H          3.89300       -2.32760       -3.22120
H          3.94310       -0.56710       -3.24510
H          1.81100       -1.95400       -5.88190
H          3.77790       -1.51040        0.38820
H          4.84580       -0.94910       -0.89290
H          4.42000       -2.66380       -0.78510
H          1.52990       -2.60510       -0.25570
H          2.15060       -3.48910       -1.64520
H          0.83370       -2.32680       -1.85380
H         -1.92610       -0.19560       -0.83550
H         -0.56860       -0.60280       -1.93970
H         -0.22700        0.98180       -3.64010
H         -0.22320        3.32120       -4.47730
H         -1.63590        4.69980       -0.62950
H         -1.64860        2.35010        0.19800
