45

N         -0.01570       -0.05980        0.06160
C          1.36760        0.04700        0.07760
N          1.85470        0.15370        1.30100
C          0.76780        0.10920        2.14330
C          0.64290        0.16780        3.53520
C         -0.65650        0.06760        4.03660
C         -1.76760       -0.08690        3.17830
N         -1.65730       -0.14200        1.84950
C         -0.42230       -0.03740        1.38270
Cl        -0.93500        0.12610        5.76120
C          2.21180        0.02260       -1.15830
C          2.88870        1.36590       -1.55700
C          1.82070        2.43210       -1.94560
C          1.19490        2.18070       -3.29320
O          0.38760        1.31260       -3.54940
O          1.65550        3.01510       -4.23910
C          3.72050        1.93810       -0.39960
C          3.81780        1.08290       -2.74930
C         -0.91630       -0.29570       -1.06420
C         -0.82330       -1.70640       -1.60360
C         -1.05060       -2.80700       -0.76430
C         -0.95840       -4.10940       -1.25270
C         -0.63900       -4.31360       -2.59910
C         -0.41470       -3.23270       -3.45320
C         -0.50590       -1.93280       -2.94870
Cl        -0.52000       -5.94420       -3.21840
H          1.50540        0.28020        4.19280
H         -2.76940       -0.16860        3.60920
H          1.62240       -0.34760       -2.00610
H          3.01410       -0.71020       -0.97950
H          2.29210        3.42390       -1.96050
H          1.02210        2.44350       -1.18800
H          1.22470        2.76350       -5.07540
H          4.43570        1.18870       -0.02860
H          3.09110        2.22770        0.45180
H          4.28610        2.81960       -0.74140
H          4.64100        0.42020       -2.44180
H          4.25670        2.01440       -3.13840
H          3.28450        0.58640       -3.57540
H         -0.70310        0.42620       -1.86060
H         -1.92540       -0.10120       -0.67220
H         -1.30990       -2.64190        0.28450
H         -1.13570       -4.96690       -0.60210
H         -0.16670       -3.41140       -4.50030
H         -0.32320       -1.07960       -3.60570
