
     RDKit          3D

 45 47  0  0  0  0  0  0  0  0999 V2000
    0.0562    0.0461    0.0511 N   0  0  0  0  0  0  0  0  0  0  0  0
    1.4412   -0.0036    0.0464 C   0  0  0  0  0  0  0  0  0  0  0  0
    1.9574   -0.0165    1.2611 N   0  0  0  0  0  0  0  0  0  0  0  0
    0.8831    0.0387    2.1217 C   0  0  0  0  0  0  0  0  0  0  0  0
    0.7857    0.0618    3.5162 C   0  0  0  0  0  0  0  0  0  0  0  0
   -0.5079    0.1354    4.0382 C   0  0  0  0  0  0  0  0  0  0  0  0
   -1.6399    0.1887    3.1962 C   0  0  0  0  0  0  0  0  0  0  0  0
   -1.5563    0.1687    1.8637 N   0  0  0  0  0  0  0  0  0  0  0  0
   -0.3268    0.0880    1.3782 C   0  0  0  0  0  0  0  0  0  0  0  0
   -0.7512    0.1710    5.7687 Cl  0  0  0  0  0  0  0  0  0  0  0  0
    2.2278   -0.0918   -1.2175 C   0  0  0  0  0  0  0  0  0  0  0  0
    2.7447   -1.5280   -1.5464 C   0  0  0  0  0  0  0  0  0  0  0  0
    3.2203   -1.5597   -3.0116 C   0  0  0  0  0  0  0  0  0  0  0  0
    2.1713   -1.3693   -4.0847 C   0  0  0  0  0  0  0  0  0  0  0  0
    1.0394   -0.9632   -3.9375 O   0  0  0  0  0  0  0  0  0  0  0  0
    2.6532   -1.6909   -5.2972 O   0  0  0  0  0  0  0  0  0  0  0  0
    3.9520   -1.8415   -0.6475 C   0  0  0  0  0  0  0  0  0  0  0  0
    1.6611   -2.5950   -1.3144 C   0  0  0  0  0  0  0  0  0  0  0  0
   -0.8633    0.1254   -1.0808 C   0  0  0  0  0  0  0  0  0  0  0  0
   -1.0109    1.5298   -1.6252 C   0  0  0  0  0  0  0  0  0  0  0  0
   -0.6249    1.8318   -2.9370 C   0  0  0  0  0  0  0  0  0  0  0  0
   -0.7501    3.1308   -3.4371 C   0  0  0  0  0  0  0  0  0  0  0  0
   -1.2635    4.1334   -2.6132 C   0  0  0  0  0  0  0  0  0  0  0  0
   -1.6587    3.8512   -1.3014 C   0  0  0  0  0  0  0  0  0  0  0  0
   -1.5324    2.5507   -0.8160 C   0  0  0  0  0  0  0  0  0  0  0  0
   -1.4185    5.7626   -3.2281 Cl  0  0  0  0  0  0  0  0  0  0  0  0
    1.6641    0.0277    4.1614 H   0  0  0  0  0  0  0  0  0  0  0  0
   -2.6363    0.2527    3.6419 H   0  0  0  0  0  0  0  0  0  0  0  0
    3.0973    0.5758   -1.1196 H   0  0  0  0  0  0  0  0  0  0  0  0
    1.6194    0.2802   -2.0475 H   0  0  0  0  0  0  0  0  0  0  0  0
    3.7376   -2.5087   -3.2261 H   0  0  0  0  0  0  0  0  0  0  0  0
    3.9791   -0.7745   -3.1814 H   0  0  0  0  0  0  0  0  0  0  0  0
    1.9431   -1.5201   -5.9405 H   0  0  0  0  0  0  0  0  0  0  0  0
    3.6805   -1.7189    0.4104 H   0  0  0  0  0  0  0  0  0  0  0  0
    4.7893   -1.1566   -0.8580 H   0  0  0  0  0  0  0  0  0  0  0  0
    4.3059   -2.8725   -0.8089 H   0  0  0  0  0  0  0  0  0  0  0  0
    1.3808   -2.6398   -0.2518 H   0  0  0  0  0  0  0  0  0  0  0  0
    2.0430   -3.5895   -1.5961 H   0  0  0  0  0  0  0  0  0  0  0  0
    0.7560   -2.4017   -1.9052 H   0  0  0  0  0  0  0  0  0  0  0  0
   -1.8292   -0.2423   -0.7049 H   0  0  0  0  0  0  0  0  0  0  0  0
   -0.5187   -0.5523   -1.8709 H   0  0  0  0  0  0  0  0  0  0  0  0
   -0.2209    1.0425   -3.5747 H   0  0  0  0  0  0  0  0  0  0  0  0
   -0.4502    3.3692   -4.4584 H   0  0  0  0  0  0  0  0  0  0  0  0
   -2.0647    4.6468   -0.6751 H   0  0  0  0  0  0  0  0  0  0  0  0
   -1.8499    2.3191    0.2036 H   0  0  0  0  0  0  0  0  0  0  0  0
  1  2  1  0
  1  9  1  0
  1 19  1  0
  2  3  2  0
  2 11  1  0
  3  4  1  0
  4  5  1  0
  4  9  2  0
  5  6  2  0
  5 27  1  0
  6  7  1  0
  6 10  1  0
  7  8  2  0
  7 28  1  0
  8  9  1  0
 12 11  1  0
 11 29  1  0
 11 30  1  0
 12 13  1  0
 12 17  1  0
 12 18  1  0
 13 14  1  0
 13 31  1  0
 13 32  1  0
 14 15  2  0
 14 16  1  0
 16 33  1  0
 17 34  1  0
 17 35  1  0
 17 36  1  0
 18 37  1  0
 18 38  1  0
 18 39  1  0
 19 20  1  0
 19 40  1  0
 19 41  1  0
 20 21  2  0
 20 25  1  0
 21 22  1  0
 21 42  1  0
 22 23  2  0
 22 43  1  0
 23 24  1  0
 23 26  1  0
 24 25  2  0
 24 44  1  0
 25 45  1  0
M  END

