45

N          0.06720        0.01940       -0.03040
C          1.45410       -0.01960       -0.04490
N          1.96930       -0.04810        1.17100
C          0.89940       -0.01070        2.03740
C          0.80600       -0.00500        3.43220
C         -0.48710        0.05260        3.95850
C         -1.62210        0.10360        3.12060
N         -1.54100        0.09750        1.78740
C         -0.31230        0.03680        1.30000
Cl        -0.72520        0.06830        5.68950
C          2.24800       -0.01970       -1.31010
C          3.26840        1.14980       -1.44910
C          4.39830        1.03120       -0.40710
C          5.25720       -0.20760       -0.46460
O          5.05580       -1.21200       -1.10840
O          6.33000       -0.08970        0.34320
C          3.84220        1.10930       -2.87490
C          2.56380        2.49780       -1.22720
C         -0.86670        0.09000       -1.14590
C         -0.88280        1.44830       -1.81130
C         -1.13390        2.59890       -1.04990
C         -1.10680        3.86310       -1.63510
C         -0.82990        3.98030       -3.00160
C         -0.59200        2.84740       -3.78160
C         -0.61900        1.58780       -3.17770
Cl        -0.78090        5.56210       -3.73840
H          1.68610       -0.04030        4.07510
H         -2.61790        0.15330        3.56930
H          1.56560        0.02130       -2.16870
H          2.80540       -0.96540       -1.37790
H          3.96730        1.04510        0.60720
H          5.06860        1.90340       -0.47450
H          6.81250       -0.93230        0.28620
H          3.04520        1.27880       -3.61670
H          4.31520        0.14080       -3.08790
H          4.59650        1.90130       -3.01030
H          1.74260        2.63740       -1.94450
H          3.27300        3.33000       -1.36070
H          2.14640        2.57390       -0.21170
H         -1.85290       -0.13940       -0.71520
H         -0.62850       -0.69640       -1.87620
H         -1.34880        2.50280        0.01710
H         -1.29650        4.75920       -1.04290
H         -0.37910        2.95520       -4.84580
H         -0.41940        0.70130       -3.78570
