rmsd74.gzmat
 OpenBabel08211713393D

 45 47  0  0  0  0  0  0  0  0999 V2000
    0.0000    0.0000    0.0000 N   0  0  0  0  0  0  0  0  0  0  0  0
    1.4129    0.0000    0.0000 C   0  0  0  0  0  0  0  0  0  0  0  0
    1.9059    0.0000    1.2476 N   0  0  0  0  0  0  0  0  0  0  0  0
    0.8165    0.0193    2.1145 C   0  0  0  0  0  0  0  0  0  0  0  0
    0.7058    0.0273    3.5064 C   0  0  0  0  0  0  0  0  0  0  0  0
   -0.5845    0.0503    4.0025 C   0  0  0  0  0  0  0  0  0  0  0  0
   -1.7308    0.0682    3.1725 C   0  0  0  0  0  0  0  0  0  0  0  0
   -1.6550    0.0612    1.8376 N   0  0  0  0  0  0  0  0  0  0  0  0
   -0.4014    0.0354    1.3326 C   0  0  0  0  0  0  0  0  0  0  0  0
   -0.8269    0.0573    5.6865 Cl  0  0  0  0  0  0  0  0  0  0  0  0
    2.2090   -0.0083   -1.2491 C   0  0  0  0  0  0  0  0  0  0  0  0
    2.7823   -1.4142   -1.5698 C   0  0  0  0  0  0  0  0  0  0  0  0
    3.1990   -1.4530   -3.0622 C   0  0  0  0  0  0  0  0  0  0  0  0
    2.0280   -1.4655   -3.9866 C   0  0  0  0  0  0  0  0  0  0  0  0
    0.9656   -0.9016   -3.9000 O   0  0  0  0  0  0  0  0  0  0  0  0
    2.2974   -2.2378   -5.0707 O   0  0  0  0  0  0  0  0  0  0  0  0
    4.0322   -1.6528   -0.7140 C   0  0  0  0  0  0  0  0  0  0  0  0
    1.7574   -2.5175   -1.2915 C   0  0  0  0  0  0  0  0  0  0  0  0
   -0.8956    0.1208   -1.1437 C   0  0  0  0  0  0  0  0  0  0  0  0
   -0.9628    1.5447   -1.6320 C   0  0  0  0  0  0  0  0  0  0  0  0
   -0.5781    1.8458   -2.9389 C   0  0  0  0  0  0  0  0  0  0  0  0
   -0.6426    3.1598   -3.3989 C   0  0  0  0  0  0  0  0  0  0  0  0
   -1.0917    4.1414   -2.5261 C   0  0  0  0  0  0  0  0  0  0  0  0
   -1.4878    3.8682   -1.2232 C   0  0  0  0  0  0  0  0  0  0  0  0
   -1.4230    2.5501   -0.7781 C   0  0  0  0  0  0  0  0  0  0  0  0
   -1.1604    5.7601   -3.0812 Cl  0  0  0  0  0  0  0  0  0  0  0  0
    1.5931    0.0178    4.1408 H   0  0  0  0  0  0  0  0  0  0  0  0
   -2.7451    0.0901    3.5952 H   0  0  0  0  0  0  0  0  0  0  0  0
    3.0476    0.7209   -1.1518 H   0  0  0  0  0  0  0  0  0  0  0  0
    1.5975    0.3660   -2.1025 H   0  0  0  0  0  0  0  0  0  0  0  0
    3.8415   -2.3448   -3.2453 H   0  0  0  0  0  0  0  0  0  0  0  0
    3.8461   -0.5817   -3.3043 H   0  0  0  0  0  0  0  0  0  0  0  0
    1.5602   -2.2783   -5.7282 H   0  0  0  0  0  0  0  0  0  0  0  0
    3.8042   -1.5048    0.3557 H   0  0  0  0  0  0  0  0  0  0  0  0
    4.8421   -0.9586   -0.9573 H   0  0  0  0  0  0  0  0  0  0  0  0
    4.4150   -2.6718   -0.8213 H   0  0  0  0  0  0  0  0  0  0  0  0
    1.5505   -2.6071   -0.2157 H   0  0  0  0  0  0  0  0  0  0  0  0
    2.1194   -3.4969   -1.6236 H   0  0  0  0  0  0  0  0  0  0  0  0
    0.7991   -2.3290   -1.7888 H   0  0  0  0  0  0  0  0  0  0  0  0
   -1.9194   -0.2283   -0.8400 H   0  0  0  0  0  0  0  0  0  0  0  0
   -0.5517   -0.5747   -1.9530 H   0  0  0  0  0  0  0  0  0  0  0  0
   -0.2298    1.0550   -3.6086 H   0  0  0  0  0  0  0  0  0  0  0  0
   -0.3479    3.4003   -4.4191 H   0  0  0  0  0  0  0  0  0  0  0  0
   -1.8454    4.6574   -0.5619 H   0  0  0  0  0  0  0  0  0  0  0  0
   -1.7334    2.3009    0.2395 H   0  0  0  0  0  0  0  0  0  0  0  0
  1  2  1  0  0  0  0
  1  9  1  0  0  0  0
  2  3  2  0  0  0  0
  3  4  2  0  0  0  0
  4  5  1  0  0  0  0
  5  6  2  0  0  0  0
  5 27  1  0  0  0  0
  6 10  1  0  0  0  0
  7 28  1  0  0  0  0
  7  6  1  0  0  0  0
  8  7  2  0  0  0  0
  9  8  2  0  0  0  0
  9  4  1  0  0  0  0
 11 29  1  0  0  0  0
 11  2  1  0  0  0  0
 12 18  1  0  0  0  0
 12 11  1  0  0  0  0
 12 17  1  0  0  0  0
 13 12  1  0  0  0  0
 14 15  2  0  0  0  0
 14 13  1  0  0  0  0
 16 14  1  0  0  0  0
 17 34  1  0  0  0  0
 18 37  1  0  0  0  0
 19 40  1  0  0  0  0
 19  1  1  0  0  0  0
 20 19  1  0  0  0  0
 20 25  2  0  0  0  0
 21 20  1  0  0  0  0
 22 21  2  0  0  0  0
 22 23  1  0  0  0  0
 23 24  2  0  0  0  0
 24 25  1  0  0  0  0
 24 44  1  0  0  0  0
 25 45  1  0  0  0  0
 26 23  1  0  0  0  0
 30 11  1  0  0  0  0
 31 13  1  0  0  0  0
 32 13  1  0  0  0  0
 33 16  1  0  0  0  0
 35 17  1  0  0  0  0
 36 17  1  0  0  0  0
 38 18  1  0  0  0  0
 39 18  1  0  0  0  0
 41 19  1  0  0  0  0
 42 21  1  0  0  0  0
 43 22  1  0  0  0  0
M  END
$$$$
