45

N          0.00310        0.07530        0.08970
C          1.38770        0.01110        0.10220
N          1.87980       -0.06210        1.32640
C          0.79340       -0.03380        2.17180
C          0.67250       -0.07350        3.56420
C         -0.62910       -0.00850        4.06670
C         -1.74590        0.09350        3.20840
N         -1.63900        0.13060        1.87850
C         -0.40200        0.06230        1.41160
Cl        -0.90230       -0.04780        5.79250
C          2.19870        0.02600       -1.15440
C          3.24750       -1.11540       -1.29270
C          2.66560       -2.48200       -0.88030
C          1.44760       -2.96600       -1.62740
O          0.70830       -2.30420       -2.32320
O          1.22920       -4.27550       -1.41390
C          3.71370       -1.15670       -2.75710
C          4.45380       -0.83140       -0.38120
C         -0.90260        0.19270       -1.04800
C         -0.82660        1.54450       -1.72110
C         -0.56130        1.64650       -3.09130
C         -0.48700        2.89220       -3.71940
C         -0.67520        4.04880       -2.96110
C         -0.94070        3.97090       -1.58990
C         -1.01650        2.71990       -0.97990
Cl        -0.57630        5.61360       -3.73220
H          1.53900       -0.14700        4.22220
H         -2.74940        0.14710        3.63970
H          2.73600        0.98810       -1.20500
H          1.52290       -0.00180       -2.01370
H          2.38820       -2.46320        0.18800
H          3.43760       -3.26300       -0.96470
H          0.41450       -4.50800       -1.89240
H          4.12460       -0.18010       -3.05820
H          2.88470       -1.40030       -3.43770
H          4.50800       -1.90840       -2.89190
H          4.94160        0.11080       -0.67770
H          5.20130       -1.63730       -0.46130
H          4.13700       -0.73530        0.66600
H         -1.90830        0.02650       -0.63380
H         -0.68460       -0.61290       -1.76060
H         -0.40600        0.73820       -3.67950
H         -0.27870        2.97080       -4.78720
H         -1.08860        4.88570       -1.01430
H         -1.23000        2.65440        0.09000
