45

N          0.09660       -0.06010        0.04530
C          1.48110       -0.00020        0.05380
N          1.98580        0.01430        1.27340
C          0.90380       -0.05030        2.12370
C          0.79340       -0.07660        3.51710
C         -0.50450       -0.16080        4.02670
C         -1.62800       -0.22090        3.17400
N         -1.53210       -0.19780        1.84240
C         -0.29860       -0.10720        1.36870
Cl        -0.76390       -0.20120        5.75480
C          2.27900        0.09600       -1.20250
C          2.78810        1.53650       -1.52420
C          3.27780        1.57410       -2.98470
C          2.24080        1.37710       -4.06830
O          1.11070        0.96210       -3.93270
O          2.73210        1.70420       -5.27550
C          1.69420        2.59500       -1.30150
C          3.98410        1.85800       -0.61320
C         -0.81150       -0.14420       -1.09540
C         -0.94410       -1.54880       -1.64330
C         -1.46640       -2.57450       -0.84070
C         -1.57880       -3.87510       -1.32920
C         -1.16870       -4.15250       -2.63740
C         -0.65430       -3.14510       -3.45470
C         -0.54300       -1.84610       -2.95160
Cl        -1.30620       -5.78180       -3.25620
H          1.66540       -0.03720        4.17070
H         -2.62810       -0.29310        3.61010
H          1.68140       -0.27920       -2.03880
H          3.15260       -0.56510       -1.09740
H          4.04420        0.79490       -3.14810
H          3.78990        2.52730       -3.19280
H          2.02970        1.52890       -5.92600
H          1.40290        2.63590       -0.24160
H          0.79650        2.39580       -1.90170
H          2.07140        3.59280       -1.57770
H          3.70320        1.73190        0.44190
H          4.33170        2.89180       -0.76970
H          4.82870        1.17970       -0.81630
H         -0.46430        0.53710       -1.88120
H         -1.78350        0.21620       -0.72820
H         -1.79550       -2.34660        0.17600
H         -1.98540       -4.67440       -0.70810
H         -0.34260       -3.37990       -4.47350
H         -0.13840       -1.05300       -3.58420
