
     RDKit          3D

 45 47  0  0  0  0  0  0  0  0999 V2000
    0.0672    0.0194   -0.0304 N   0  0  0  0  0  0  0  0  0  0  0  0
    1.4541   -0.0196   -0.0449 C   0  0  0  0  0  0  0  0  0  0  0  0
    1.9693   -0.0481    1.1710 N   0  0  0  0  0  0  0  0  0  0  0  0
    0.8994   -0.0107    2.0374 C   0  0  0  0  0  0  0  0  0  0  0  0
    0.8060   -0.0050    3.4322 C   0  0  0  0  0  0  0  0  0  0  0  0
   -0.4871    0.0526    3.9585 C   0  0  0  0  0  0  0  0  0  0  0  0
   -1.6221    0.1036    3.1206 C   0  0  0  0  0  0  0  0  0  0  0  0
   -1.5410    0.0975    1.7874 N   0  0  0  0  0  0  0  0  0  0  0  0
   -0.3123    0.0368    1.3000 C   0  0  0  0  0  0  0  0  0  0  0  0
   -0.7252    0.0683    5.6895 Cl  0  0  0  0  0  0  0  0  0  0  0  0
    2.2480   -0.0197   -1.3101 C   0  0  0  0  0  0  0  0  0  0  0  0
    3.2684    1.1498   -1.4491 C   0  0  0  0  0  0  0  0  0  0  0  0
    4.3983    1.0312   -0.4071 C   0  0  0  0  0  0  0  0  0  0  0  0
    5.2572   -0.2076   -0.4646 C   0  0  0  0  0  0  0  0  0  0  0  0
    5.0558   -1.2120   -1.1084 O   0  0  0  0  0  0  0  0  0  0  0  0
    6.3300   -0.0897    0.3432 O   0  0  0  0  0  0  0  0  0  0  0  0
    3.8422    1.1093   -2.8749 C   0  0  0  0  0  0  0  0  0  0  0  0
    2.5638    2.4978   -1.2272 C   0  0  0  0  0  0  0  0  0  0  0  0
   -0.8667    0.0900   -1.1459 C   0  0  0  0  0  0  0  0  0  0  0  0
   -0.8828    1.4483   -1.8113 C   0  0  0  0  0  0  0  0  0  0  0  0
   -1.1339    2.5989   -1.0499 C   0  0  0  0  0  0  0  0  0  0  0  0
   -1.1068    3.8631   -1.6351 C   0  0  0  0  0  0  0  0  0  0  0  0
   -0.8299    3.9803   -3.0016 C   0  0  0  0  0  0  0  0  0  0  0  0
   -0.5920    2.8474   -3.7816 C   0  0  0  0  0  0  0  0  0  0  0  0
   -0.6190    1.5878   -3.1777 C   0  0  0  0  0  0  0  0  0  0  0  0
   -0.7809    5.5621   -3.7384 Cl  0  0  0  0  0  0  0  0  0  0  0  0
    1.6861   -0.0403    4.0751 H   0  0  0  0  0  0  0  0  0  0  0  0
   -2.6179    0.1533    3.5693 H   0  0  0  0  0  0  0  0  0  0  0  0
    1.5656    0.0213   -2.1687 H   0  0  0  0  0  0  0  0  0  0  0  0
    2.8054   -0.9654   -1.3779 H   0  0  0  0  0  0  0  0  0  0  0  0
    3.9673    1.0451    0.6072 H   0  0  0  0  0  0  0  0  0  0  0  0
    5.0686    1.9034   -0.4745 H   0  0  0  0  0  0  0  0  0  0  0  0
    6.8125   -0.9323    0.2862 H   0  0  0  0  0  0  0  0  0  0  0  0
    3.0452    1.2788   -3.6167 H   0  0  0  0  0  0  0  0  0  0  0  0
    4.3152    0.1408   -3.0879 H   0  0  0  0  0  0  0  0  0  0  0  0
    4.5965    1.9013   -3.0103 H   0  0  0  0  0  0  0  0  0  0  0  0
    1.7426    2.6374   -1.9445 H   0  0  0  0  0  0  0  0  0  0  0  0
    3.2730    3.3300   -1.3607 H   0  0  0  0  0  0  0  0  0  0  0  0
    2.1464    2.5739   -0.2117 H   0  0  0  0  0  0  0  0  0  0  0  0
   -1.8529   -0.1394   -0.7152 H   0  0  0  0  0  0  0  0  0  0  0  0
   -0.6285   -0.6964   -1.8762 H   0  0  0  0  0  0  0  0  0  0  0  0
   -1.3488    2.5028    0.0171 H   0  0  0  0  0  0  0  0  0  0  0  0
   -1.2965    4.7592   -1.0429 H   0  0  0  0  0  0  0  0  0  0  0  0
   -0.3791    2.9552   -4.8458 H   0  0  0  0  0  0  0  0  0  0  0  0
   -0.4194    0.7013   -3.7857 H   0  0  0  0  0  0  0  0  0  0  0  0
  1  2  1  0
  1  9  1  0
  1 19  1  0
  2  3  2  0
  2 11  1  0
  3  4  1  0
  4  5  1  0
  4  9  2  0
  5  6  2  0
  5 27  1  0
  6  7  1  0
  6 10  1  0
  7  8  2  0
  7 28  1  0
  8  9  1  0
 12 11  1  0
 11 29  1  0
 11 30  1  0
 12 13  1  0
 12 17  1  0
 12 18  1  0
 13 14  1  0
 13 31  1  0
 13 32  1  0
 14 15  2  0
 14 16  1  0
 16 33  1  0
 17 34  1  0
 17 35  1  0
 17 36  1  0
 18 37  1  0
 18 38  1  0
 18 39  1  0
 19 20  1  0
 19 40  1  0
 19 41  1  0
 20 21  2  0
 20 25  1  0
 21 22  1  0
 21 42  1  0
 22 23  2  0
 22 43  1  0
 23 24  1  0
 23 26  1  0
 24 25  2  0
 24 44  1  0
 25 45  1  0
M  END

