rmsd224.gzmat
 OpenBabel08211713393D

 45 47  0  0  0  0  0  0  0  0999 V2000
    0.0000    0.0000    0.0000 N   0  0  0  0  0  0  0  0  0  0  0  0
    1.4149    0.0000    0.0000 C   0  0  0  0  0  0  0  0  0  0  0  0
    1.9021    0.0000    1.2501 N   0  0  0  0  0  0  0  0  0  0  0  0
    0.8140    0.0267    2.1166 C   0  0  0  0  0  0  0  0  0  0  0  0
    0.7056    0.0419    3.5090 C   0  0  0  0  0  0  0  0  0  0  0  0
   -0.5842    0.0801    4.0051 C   0  0  0  0  0  0  0  0  0  0  0  0
   -1.7300    0.1078    3.1739 C   0  0  0  0  0  0  0  0  0  0  0  0
   -1.6549    0.0916    1.8391 N   0  0  0  0  0  0  0  0  0  0  0  0
   -0.4017    0.0489    1.3335 C   0  0  0  0  0  0  0  0  0  0  0  0
   -0.8300    0.0943    5.6882 Cl  0  0  0  0  0  0  0  0  0  0  0  0
    2.2296    0.0242   -1.2382 C   0  0  0  0  0  0  0  0  0  0  0  0
    3.0454   -1.2702   -1.4856 C   0  0  0  0  0  0  0  0  0  0  0  0
    2.1121   -2.5009   -1.5487 C   0  0  0  0  0  0  0  0  0  0  0  0
    1.2322   -2.5071   -2.7513 C   0  0  0  0  0  0  0  0  0  0  0  0
    0.7062   -1.5920   -3.3355 O   0  0  0  0  0  0  0  0  0  0  0  0
    1.0224   -3.7821   -3.1698 O   0  0  0  0  0  0  0  0  0  0  0  0
    3.7996   -1.1106   -2.8147 C   0  0  0  0  0  0  0  0  0  0  0  0
    4.0619   -1.4919   -0.3608 C   0  0  0  0  0  0  0  0  0  0  0  0
   -0.9092    0.1351   -1.1325 C   0  0  0  0  0  0  0  0  0  0  0  0
   -0.8233    1.5127   -1.7336 C   0  0  0  0  0  0  0  0  0  0  0  0
   -0.3670    1.6692   -3.0434 C   0  0  0  0  0  0  0  0  0  0  0  0
   -0.2606    2.9443   -3.5951 C   0  0  0  0  0  0  0  0  0  0  0  0
   -0.6234    4.0326   -2.8125 C   0  0  0  0  0  0  0  0  0  0  0  0
   -1.0973    3.9031   -1.5131 C   0  0  0  0  0  0  0  0  0  0  0  0
   -1.1997    2.6228   -0.9742 C   0  0  0  0  0  0  0  0  0  0  0  0
   -0.4817    5.6029   -3.4806 Cl  0  0  0  0  0  0  0  0  0  0  0  0
    1.5945    0.0266    4.1416 H   0  0  0  0  0  0  0  0  0  0  0  0
   -2.7437    0.1461    3.5973 H   0  0  0  0  0  0  0  0  0  0  0  0
    2.9372    0.8867   -1.1808 H   0  0  0  0  0  0  0  0  0  0  0  0
    1.5949    0.2319   -2.1313 H   0  0  0  0  0  0  0  0  0  0  0  0
    1.4796   -2.5472   -0.6322 H   0  0  0  0  0  0  0  0  0  0  0  0
    2.7199   -3.4341   -1.5120 H   0  0  0  0  0  0  0  0  0  0  0  0
    0.4248   -3.8534   -3.9544 H   0  0  0  0  0  0  0  0  0  0  0  0
    4.5452   -0.3086   -2.7550 H   0  0  0  0  0  0  0  0  0  0  0  0
    3.1258   -0.8658   -3.6450 H   0  0  0  0  0  0  0  0  0  0  0  0
    4.3355   -2.0271   -3.0841 H   0  0  0  0  0  0  0  0  0  0  0  0
    4.6979   -0.6092   -0.2167 H   0  0  0  0  0  0  0  0  0  0  0  0
    4.7173   -2.3437   -0.5625 H   0  0  0  0  0  0  0  0  0  0  0  0
    3.5736   -1.6684    0.6090 H   0  0  0  0  0  0  0  0  0  0  0  0
   -1.9571   -0.0702   -0.7824 H   0  0  0  0  0  0  0  0  0  0  0  0
   -0.6748   -0.6579   -1.8870 H   0  0  0  0  0  0  0  0  0  0  0  0
   -0.0929    0.7943   -3.6401 H   0  0  0  0  0  0  0  0  0  0  0  0
    0.0988    3.0751   -4.6149 H   0  0  0  0  0  0  0  0  0  0  0  0
   -1.3830    4.7743   -0.9239 H   0  0  0  0  0  0  0  0  0  0  0  0
   -1.5740    2.4856    0.0427 H   0  0  0  0  0  0  0  0  0  0  0  0
  1  2  1  0  0  0  0
  1  9  1  0  0  0  0
  2  3  2  0  0  0  0
  3  4  2  0  0  0  0
  4  5  1  0  0  0  0
  5  6  2  0  0  0  0
  5 27  1  0  0  0  0
  6 10  1  0  0  0  0
  7 28  1  0  0  0  0
  7  6  1  0  0  0  0
  8  7  2  0  0  0  0
  9  8  2  0  0  0  0
  9  4  1  0  0  0  0
 11 29  1  0  0  0  0
 11  2  1  0  0  0  0
 12 11  1  0  0  0  0
 12 18  1  0  0  0  0
 13 32  1  0  0  0  0
 13 12  1  0  0  0  0
 13 31  1  0  0  0  0
 14 13  1  0  0  0  0
 15 14  2  0  0  0  0
 16 14  1  0  0  0  0
 17 34  1  0  0  0  0
 17 12  1  0  0  0  0
 18 37  1  0  0  0  0
 18 39  1  0  0  0  0
 19 40  1  0  0  0  0
 19  1  1  0  0  0  0
 20 19  1  0  0  0  0
 20 25  2  0  0  0  0
 21 20  1  0  0  0  0
 22 21  2  0  0  0  0
 22 23  1  0  0  0  0
 23 24  2  0  0  0  0
 24 25  1  0  0  0  0
 24 44  1  0  0  0  0
 25 45  1  0  0  0  0
 26 23  1  0  0  0  0
 30 11  1  0  0  0  0
 33 16  1  0  0  0  0
 35 17  1  0  0  0  0
 36 17  1  0  0  0  0
 38 18  1  0  0  0  0
 41 19  1  0  0  0  0
 42 21  1  0  0  0  0
 43 22  1  0  0  0  0
M  END
$$$$
