
     RDKit          3D

 37 38  0  0  0  0  0  0  0  0999 V2000
    0.0485    0.0498    0.0039 N   0  0  0  0  0  0  0  0  0  0  0  0
    1.3866    0.0367   -0.0028 C   0  0  0  0  0  0  0  0  0  0  0  0
    1.9535   -0.0001    1.1951 O   0  0  0  0  0  0  0  0  0  0  0  0
    3.3773   -0.0121    1.2633 C   0  0  0  0  0  0  0  0  0  0  0  0
    2.1574    0.0583   -1.0864 N   0  0  0  0  0  0  0  0  0  0  0  0
    1.4828    0.1129   -2.2395 C   0  0  0  0  0  0  0  0  0  0  0  0
    2.2367    0.1550   -3.3309 O   0  0  0  0  0  0  0  0  0  0  0  0
    1.5841    0.2043   -4.5972 C   0  0  0  0  0  0  0  0  0  0  0  0
    0.1583    0.1193   -2.3641 N   0  0  0  0  0  0  0  0  0  0  0  0
   -0.4937    0.0695   -1.2007 C   0  0  0  0  0  0  0  0  0  0  0  0
   -1.8300    0.0570   -1.3122 O   0  0  0  0  0  0  0  0  0  0  0  0
   -2.6061   -0.2681   -0.2115 C   0  0  0  0  0  0  0  0  0  0  0  0
   -3.2177    0.7750    0.4810 C   0  0  0  0  0  0  0  0  0  0  0  0
   -4.0971    0.4960    1.5269 C   0  0  0  0  0  0  0  0  0  0  0  0
   -4.3779   -0.8299    1.8712 C   0  0  0  0  0  0  0  0  0  0  0  0
   -3.7746   -1.8675    1.1654 C   0  0  0  0  0  0  0  0  0  0  0  0
   -2.8676   -1.6088    0.1253 C   0  0  0  0  0  0  0  0  0  0  0  0
   -2.2917   -2.7956   -0.5790 C   0  0  0  0  0  0  0  0  0  0  0  0
   -2.8085   -3.8886   -0.5776 O   0  0  0  0  0  0  0  0  0  0  0  0
   -1.1244   -2.5231   -1.1840 O   0  0  0  0  0  0  0  0  0  0  0  0
   -0.5253   -3.5345   -2.0093 C   0  0  0  0  0  0  0  0  0  0  0  0
   -1.0042   -3.3923   -3.4428 C   0  0  0  0  0  0  0  0  0  0  0  0
    3.6229   -0.0383    2.3321 H   0  0  0  0  0  0  0  0  0  0  0  0
    3.8019    0.8870    0.7928 H   0  0  0  0  0  0  0  0  0  0  0  0
    3.7885   -0.8955    0.7529 H   0  0  0  0  0  0  0  0  0  0  0  0
    2.3862    0.2801   -5.3416 H   0  0  0  0  0  0  0  0  0  0  0  0
    0.9128    1.0726   -4.6636 H   0  0  0  0  0  0  0  0  0  0  0  0
    0.9906   -0.7064   -4.7688 H   0  0  0  0  0  0  0  0  0  0  0  0
   -2.9939    1.7997    0.1812 H   0  0  0  0  0  0  0  0  0  0  0  0
   -4.5684    1.3181    2.0704 H   0  0  0  0  0  0  0  0  0  0  0  0
   -5.0716   -1.0529    2.6844 H   0  0  0  0  0  0  0  0  0  0  0  0
   -3.9905   -2.9110    1.3999 H   0  0  0  0  0  0  0  0  0  0  0  0
   -0.7653   -4.5239   -1.5953 H   0  0  0  0  0  0  0  0  0  0  0  0
    0.5572   -3.3591   -1.9275 H   0  0  0  0  0  0  0  0  0  0  0  0
   -2.0825   -3.6003   -3.5134 H   0  0  0  0  0  0  0  0  0  0  0  0
   -0.4733   -4.1043   -4.0944 H   0  0  0  0  0  0  0  0  0  0  0  0
   -0.8187   -2.3692   -3.8039 H   0  0  0  0  0  0  0  0  0  0  0  0
  1  2  2  0
  1 10  1  0
  2  3  1  0
  2  5  1  0
  3  4  1  0
  4 23  1  0
  4 24  1  0
  4 25  1  0
  5  6  2  0
  6  7  1  0
  6  9  1  0
  7  8  1  0
  8 26  1  0
  8 27  1  0
  8 28  1  0
  9 10  2  0
 10 11  1  0
 11 12  1  0
 12 13  2  0
 12 17  1  0
 13 14  1  0
 13 29  1  0
 14 15  2  0
 14 30  1  0
 15 16  1  0
 15 31  1  0
 16 17  2  0
 16 32  1  0
 17 18  1  0
 18 19  2  0
 18 20  1  0
 20 21  1  0
 21 22  1  0
 21 33  1  0
 21 34  1  0
 22 35  1  0
 22 36  1  0
 22 37  1  0
M  END

