37
rmsd118.gzmat
N          0.00000        0.00000        0.00000
C          1.36370        0.00000        0.00000
O          1.90420        0.00000        1.22090
C          3.34060        0.01700        1.26380
N          2.15020        0.00330       -1.11530
C          1.46750        0.01130       -2.29430
O          2.25550        0.02730       -3.37400
C          1.57570        0.02490       -4.63960
N          0.10890       -0.00220       -2.42190
C         -0.56270       -0.03200       -1.23730
O         -1.90320       -0.03630       -1.37290
C         -2.62100       -0.30220       -0.20200
C         -3.17000        0.78520        0.46990
C         -4.02780        0.52840        1.53750
C         -4.32260       -0.78510        1.90690
C         -3.76050       -1.85810        1.21810
C         -2.88870       -1.62340        0.15170
C         -2.31050       -2.77880       -0.56060
O         -2.86010       -3.82860       -0.77810
O         -1.02940       -2.52580       -0.92010
C         -0.36000       -3.51870       -1.70630
C         -0.74060       -3.33380       -3.16460
H          3.52140        0.00960        2.34610
H          3.73180        0.92560        0.79260
H          3.75420       -0.87240        0.77540
H          2.42270        0.04000       -5.33670
H          0.94680        0.91620       -4.74500
H          0.97050       -0.88140       -4.75330
H         -2.92010        1.80090        0.16910
H         -4.46600        1.35990        2.08950
H         -4.99480       -0.97300        2.74250
H         -3.99700       -2.88610        1.50440
H         -0.60020       -4.52730       -1.32490
H          0.70070       -3.28090       -1.50310
H         -1.76890       -3.67030       -3.35410
H         -0.07630       -3.89320       -3.82950
H         -0.69480       -2.27220       -3.45270
