rmsd132.gzmat
 OpenBabel08211713413D

 37 38  0  0  0  0  0  0  0  0999 V2000
    0.0000    0.0000    0.0000 N   0  0  0  0  0  0  0  0  0  0  0  0
    1.3636    0.0000    0.0000 C   0  0  0  0  0  0  0  0  0  0  0  0
    1.9042    0.0000    1.2211 O   0  0  0  0  0  0  0  0  0  0  0  0
    3.3406    0.0154    1.2653 C   0  0  0  0  0  0  0  0  0  0  0  0
    2.1499    0.0099   -1.1154 N   0  0  0  0  0  0  0  0  0  0  0  0
    1.4673    0.0370   -2.2938 C   0  0  0  0  0  0  0  0  0  0  0  0
    2.2549    0.0624   -3.3739 O   0  0  0  0  0  0  0  0  0  0  0  0
    1.5731    0.0824   -4.6387 C   0  0  0  0  0  0  0  0  0  0  0  0
    0.1086    0.0341   -2.4217 N   0  0  0  0  0  0  0  0  0  0  0  0
   -0.5633   -0.0106   -1.2377 C   0  0  0  0  0  0  0  0  0  0  0  0
   -1.9040   -0.0016   -1.3714 O   0  0  0  0  0  0  0  0  0  0  0  0
   -2.6216   -0.3062   -0.2099 C   0  0  0  0  0  0  0  0  0  0  0  0
   -3.1637    0.7594    0.5017 C   0  0  0  0  0  0  0  0  0  0  0  0
   -4.0275    0.4693    1.5557 C   0  0  0  0  0  0  0  0  0  0  0  0
   -4.3343   -0.8548    1.8749 C   0  0  0  0  0  0  0  0  0  0  0  0
   -3.7761   -1.9053    1.1499 C   0  0  0  0  0  0  0  0  0  0  0  0
   -2.8986   -1.6376    0.0953 C   0  0  0  0  0  0  0  0  0  0  0  0
   -2.3315   -2.7728   -0.6562 C   0  0  0  0  0  0  0  0  0  0  0  0
   -2.8687   -3.8329   -0.8545 O   0  0  0  0  0  0  0  0  0  0  0  0
   -1.0782   -2.4896   -1.0846 O   0  0  0  0  0  0  0  0  0  0  0  0
   -0.4573   -3.4385   -1.9603 C   0  0  0  0  0  0  0  0  0  0  0  0
   -0.9909   -3.2348   -3.3674 C   0  0  0  0  0  0  0  0  0  0  0  0
    3.5202    0.0413    2.3476 H   0  0  0  0  0  0  0  0  0  0  0  0
    3.7382    0.9069    0.7673 H   0  0  0  0  0  0  0  0  0  0  0  0
    3.7506   -0.8907    0.8053 H   0  0  0  0  0  0  0  0  0  0  0  0
    2.4181    0.0956   -5.3379 H   0  0  0  0  0  0  0  0  0  0  0  0
    0.9554    0.9830   -4.7317 H   0  0  0  0  0  0  0  0  0  0  0  0
    0.9571   -0.8154   -4.7619 H   0  0  0  0  0  0  0  0  0  0  0  0
   -2.9033    1.7836    0.2415 H   0  0  0  0  0  0  0  0  0  0  0  0
   -4.4622    1.2830    2.1359 H   0  0  0  0  0  0  0  0  0  0  0  0
   -5.0121   -1.0691    2.6993 H   0  0  0  0  0  0  0  0  0  0  0  0
   -4.0202   -2.9421    1.3965 H   0  0  0  0  0  0  0  0  0  0  0  0
   -0.6234   -4.4628   -1.5810 H   0  0  0  0  0  0  0  0  0  0  0  0
    0.6092   -3.1638   -1.8584 H   0  0  0  0  0  0  0  0  0  0  0  0
   -2.0317   -3.5782   -3.4528 H   0  0  0  0  0  0  0  0  0  0  0  0
   -0.3975   -3.7786   -4.1083 H   0  0  0  0  0  0  0  0  0  0  0  0
   -0.9823   -2.1678   -3.6406 H   0  0  0  0  0  0  0  0  0  0  0  0
  1  2  2  0  0  0  0
  2  3  1  0  0  0  0
  3  4  1  0  0  0  0
  4 23  1  0  0  0  0
  5  2  2  0  0  0  0
  6  5  2  0  0  0  0
  7  6  1  0  0  0  0
  8  7  1  0  0  0  0
  9  6  2  0  0  0  0
  9 10  2  0  0  0  0
 10  1  2  0  0  0  0
 11 10  1  0  0  0  0
 11 12  1  0  0  0  0
 12 17  2  0  0  0  0
 12 13  1  0  0  0  0
 13 14  2  0  0  0  0
 14 15  1  0  0  0  0
 14 30  1  0  0  0  0
 15 31  1  0  0  0  0
 16 32  1  0  0  0  0
 16 15  2  0  0  0  0
 17 16  1  0  0  0  0
 18 17  1  0  0  0  0
 19 18  2  0  0  0  0
 20 18  1  0  0  0  0
 21 34  1  0  0  0  0
 21 33  1  0  0  0  0
 21 20  1  0  0  0  0
 22 21  1  0  0  0  0
 24  4  1  0  0  0  0
 25  4  1  0  0  0  0
 26  8  1  0  0  0  0
 27  8  1  0  0  0  0
 28  8  1  0  0  0  0
 29 13  1  0  0  0  0
 35 22  1  0  0  0  0
 36 22  1  0  0  0  0
 37 22  1  0  0  0  0
M  END
$$$$
