rmsd121.gzmat
 OpenBabel08211713413D

 37 38  0  0  0  0  0  0  0  0999 V2000
    0.0000    0.0000    0.0000 N   0  0  0  0  0  0  0  0  0  0  0  0
    1.3630    0.0000    0.0000 C   0  0  0  0  0  0  0  0  0  0  0  0
    1.9042    0.0000    1.2213 O   0  0  0  0  0  0  0  0  0  0  0  0
    3.3407    0.0052    1.2642 C   0  0  0  0  0  0  0  0  0  0  0  0
    2.1506   -0.0004   -1.1145 N   0  0  0  0  0  0  0  0  0  0  0  0
    1.4683   -0.0183   -2.2936 C   0  0  0  0  0  0  0  0  0  0  0  0
    2.2540   -0.0287   -3.3752 O   0  0  0  0  0  0  0  0  0  0  0  0
    1.5685   -0.0382   -4.6384 C   0  0  0  0  0  0  0  0  0  0  0  0
    0.1099   -0.0149   -2.4217 N   0  0  0  0  0  0  0  0  0  0  0  0
   -0.5631    0.0228   -1.2391 C   0  0  0  0  0  0  0  0  0  0  0  0
   -1.9038    0.0240   -1.3740 O   0  0  0  0  0  0  0  0  0  0  0  0
   -2.6289    0.3134   -0.2152 C   0  0  0  0  0  0  0  0  0  0  0  0
   -3.3586   -0.7522    0.3078 C   0  0  0  0  0  0  0  0  0  0  0  0
   -4.2309   -0.4994    1.3627 C   0  0  0  0  0  0  0  0  0  0  0  0
   -4.3594    0.7925    1.8764 C   0  0  0  0  0  0  0  0  0  0  0  0
   -3.6165    1.8406    1.3411 C   0  0  0  0  0  0  0  0  0  0  0  0
   -2.7336    1.6133    0.2780 C   0  0  0  0  0  0  0  0  0  0  0  0
   -1.9810    2.7761   -0.2280 C   0  0  0  0  0  0  0  0  0  0  0  0
   -2.1651    3.9252    0.0902 O   0  0  0  0  0  0  0  0  0  0  0  0
   -1.0365    2.4130   -1.1266 O   0  0  0  0  0  0  0  0  0  0  0  0
   -0.1956    3.4420   -1.6577 C   0  0  0  0  0  0  0  0  0  0  0  0
    0.8842    3.7893   -0.6486 C   0  0  0  0  0  0  0  0  0  0  0  0
    3.5219   -0.0402    2.3451 H   0  0  0  0  0  0  0  0  0  0  0  0
    3.7339    0.9273    0.8239 H   0  0  0  0  0  0  0  0  0  0  0  0
    3.7533   -0.8677    0.7466 H   0  0  0  0  0  0  0  0  0  0  0  0
    2.4111   -0.0276   -5.3400 H   0  0  0  0  0  0  0  0  0  0  0  0
    0.9377    0.8513   -4.7461 H   0  0  0  0  0  0  0  0  0  0  0  0
    0.9632   -0.9456   -4.7424 H   0  0  0  0  0  0  0  0  0  0  0  0
   -3.2342   -1.7532   -0.1015 H   0  0  0  0  0  0  0  0  0  0  0  0
   -4.8097   -1.3164    1.7936 H   0  0  0  0  0  0  0  0  0  0  0  0
   -5.0400    0.9804    2.7047 H   0  0  0  0  0  0  0  0  0  0  0  0
   -3.7133    2.8533    1.7465 H   0  0  0  0  0  0  0  0  0  0  0  0
   -0.8113    4.3150   -1.9395 H   0  0  0  0  0  0  0  0  0  0  0  0
    0.2011    2.9466   -2.5646 H   0  0  0  0  0  0  0  0  0  0  0  0
    0.4583    4.3117    0.2212 H   0  0  0  0  0  0  0  0  0  0  0  0
    1.6486    4.4394   -1.0879 H   0  0  0  0  0  0  0  0  0  0  0  0
    1.3877    2.8918   -0.2687 H   0  0  0  0  0  0  0  0  0  0  0  0
  1  2  2  0  0  0  0
  2  3  1  0  0  0  0
  3  4  1  0  0  0  0
  4 23  1  0  0  0  0
  5  2  2  0  0  0  0
  6  5  2  0  0  0  0
  7  6  1  0  0  0  0
  8  7  1  0  0  0  0
  9  6  2  0  0  0  0
  9 10  2  0  0  0  0
 10  1  2  0  0  0  0
 11 10  1  0  0  0  0
 11 12  1  0  0  0  0
 12 17  2  0  0  0  0
 12 13  1  0  0  0  0
 13 14  2  0  0  0  0
 14 30  1  0  0  0  0
 14 15  1  0  0  0  0
 15 31  1  0  0  0  0
 16 32  1  0  0  0  0
 16 15  2  0  0  0  0
 17 16  1  0  0  0  0
 18 19  2  0  0  0  0
 18 17  1  0  0  0  0
 20 18  1  0  0  0  0
 21 20  1  0  0  0  0
 21 22  1  0  0  0  0
 22 37  1  0  0  0  0
 22 35  1  0  0  0  0
 24  4  1  0  0  0  0
 25  4  1  0  0  0  0
 26  8  1  0  0  0  0
 27  8  1  0  0  0  0
 28  8  1  0  0  0  0
 29 13  1  0  0  0  0
 33 21  1  0  0  0  0
 34 21  1  0  0  0  0
 36 22  1  0  0  0  0
M  END
$$$$
