37
rmsd132.gzmat
N          0.00000        0.00000        0.00000
C          1.36360        0.00000        0.00000
O          1.90420        0.00000        1.22110
C          3.34060        0.01540        1.26530
N          2.14990        0.00990       -1.11540
C          1.46730        0.03700       -2.29380
O          2.25490        0.06240       -3.37390
C          1.57310        0.08240       -4.63870
N          0.10860        0.03410       -2.42170
C         -0.56330       -0.01060       -1.23770
O         -1.90400       -0.00160       -1.37140
C         -2.62160       -0.30620       -0.20990
C         -3.16370        0.75940        0.50170
C         -4.02750        0.46930        1.55570
C         -4.33430       -0.85480        1.87490
C         -3.77610       -1.90530        1.14990
C         -2.89860       -1.63760        0.09530
C         -2.33150       -2.77280       -0.65620
O         -2.86870       -3.83290       -0.85450
O         -1.07820       -2.48960       -1.08460
C         -0.45730       -3.43850       -1.96030
C         -0.99090       -3.23480       -3.36740
H          3.52020        0.04130        2.34760
H          3.73820        0.90690        0.76730
H          3.75060       -0.89070        0.80530
H          2.41810        0.09560       -5.33790
H          0.95540        0.98300       -4.73170
H          0.95710       -0.81540       -4.76190
H         -2.90330        1.78360        0.24150
H         -4.46220        1.28300        2.13590
H         -5.01210       -1.06910        2.69930
H         -4.02020       -2.94210        1.39650
H         -0.62340       -4.46280       -1.58100
H          0.60920       -3.16380       -1.85840
H         -2.03170       -3.57820       -3.45280
H         -0.39750       -3.77860       -4.10830
H         -0.98230       -2.16780       -3.64060
