rmsd118.gzmat
 OpenBabel08211713413D

 37 38  0  0  0  0  0  0  0  0999 V2000
    0.0000    0.0000    0.0000 N   0  0  0  0  0  0  0  0  0  0  0  0
    1.3637    0.0000    0.0000 C   0  0  0  0  0  0  0  0  0  0  0  0
    1.9042    0.0000    1.2209 O   0  0  0  0  0  0  0  0  0  0  0  0
    3.3406    0.0170    1.2638 C   0  0  0  0  0  0  0  0  0  0  0  0
    2.1502    0.0033   -1.1153 N   0  0  0  0  0  0  0  0  0  0  0  0
    1.4675    0.0113   -2.2943 C   0  0  0  0  0  0  0  0  0  0  0  0
    2.2555    0.0273   -3.3740 O   0  0  0  0  0  0  0  0  0  0  0  0
    1.5757    0.0249   -4.6396 C   0  0  0  0  0  0  0  0  0  0  0  0
    0.1089   -0.0022   -2.4219 N   0  0  0  0  0  0  0  0  0  0  0  0
   -0.5627   -0.0320   -1.2373 C   0  0  0  0  0  0  0  0  0  0  0  0
   -1.9032   -0.0363   -1.3729 O   0  0  0  0  0  0  0  0  0  0  0  0
   -2.6210   -0.3022   -0.2020 C   0  0  0  0  0  0  0  0  0  0  0  0
   -3.1700    0.7852    0.4699 C   0  0  0  0  0  0  0  0  0  0  0  0
   -4.0278    0.5284    1.5375 C   0  0  0  0  0  0  0  0  0  0  0  0
   -4.3226   -0.7851    1.9069 C   0  0  0  0  0  0  0  0  0  0  0  0
   -3.7605   -1.8581    1.2181 C   0  0  0  0  0  0  0  0  0  0  0  0
   -2.8887   -1.6234    0.1517 C   0  0  0  0  0  0  0  0  0  0  0  0
   -2.3105   -2.7788   -0.5606 C   0  0  0  0  0  0  0  0  0  0  0  0
   -2.8601   -3.8286   -0.7781 O   0  0  0  0  0  0  0  0  0  0  0  0
   -1.0294   -2.5258   -0.9201 O   0  0  0  0  0  0  0  0  0  0  0  0
   -0.3600   -3.5187   -1.7063 C   0  0  0  0  0  0  0  0  0  0  0  0
   -0.7406   -3.3338   -3.1646 C   0  0  0  0  0  0  0  0  0  0  0  0
    3.5214    0.0096    2.3461 H   0  0  0  0  0  0  0  0  0  0  0  0
    3.7318    0.9256    0.7926 H   0  0  0  0  0  0  0  0  0  0  0  0
    3.7542   -0.8724    0.7754 H   0  0  0  0  0  0  0  0  0  0  0  0
    2.4227    0.0400   -5.3367 H   0  0  0  0  0  0  0  0  0  0  0  0
    0.9468    0.9162   -4.7450 H   0  0  0  0  0  0  0  0  0  0  0  0
    0.9705   -0.8814   -4.7533 H   0  0  0  0  0  0  0  0  0  0  0  0
   -2.9201    1.8009    0.1691 H   0  0  0  0  0  0  0  0  0  0  0  0
   -4.4660    1.3599    2.0895 H   0  0  0  0  0  0  0  0  0  0  0  0
   -4.9948   -0.9730    2.7425 H   0  0  0  0  0  0  0  0  0  0  0  0
   -3.9970   -2.8861    1.5044 H   0  0  0  0  0  0  0  0  0  0  0  0
   -0.6002   -4.5273   -1.3249 H   0  0  0  0  0  0  0  0  0  0  0  0
    0.7007   -3.2809   -1.5031 H   0  0  0  0  0  0  0  0  0  0  0  0
   -1.7689   -3.6703   -3.3541 H   0  0  0  0  0  0  0  0  0  0  0  0
   -0.0763   -3.8932   -3.8295 H   0  0  0  0  0  0  0  0  0  0  0  0
   -0.6948   -2.2722   -3.4527 H   0  0  0  0  0  0  0  0  0  0  0  0
  1  2  2  0  0  0  0
  2  3  1  0  0  0  0
  3  4  1  0  0  0  0
  4 23  1  0  0  0  0
  5  2  2  0  0  0  0
  6  5  2  0  0  0  0
  7  6  1  0  0  0  0
  8  7  1  0  0  0  0
  9  6  2  0  0  0  0
  9 10  2  0  0  0  0
 10  1  2  0  0  0  0
 11 10  1  0  0  0  0
 11 12  1  0  0  0  0
 12 17  2  0  0  0  0
 12 13  1  0  0  0  0
 13 14  2  0  0  0  0
 14 15  1  0  0  0  0
 14 30  1  0  0  0  0
 15 31  1  0  0  0  0
 16 32  1  0  0  0  0
 16 15  2  0  0  0  0
 17 16  1  0  0  0  0
 18 17  1  0  0  0  0
 19 18  2  0  0  0  0
 20 18  1  0  0  0  0
 21 34  1  0  0  0  0
 21 33  1  0  0  0  0
 21 20  1  0  0  0  0
 22 21  1  0  0  0  0
 24  4  1  0  0  0  0
 25  4  1  0  0  0  0
 26  8  1  0  0  0  0
 27  8  1  0  0  0  0
 28  8  1  0  0  0  0
 29 13  1  0  0  0  0
 35 22  1  0  0  0  0
 36 22  1  0  0  0  0
 37 22  1  0  0  0  0
M  END
$$$$
