37
rmsd10.gzmat
N          0.00000        0.00000        0.00000
C          1.36530        0.00000        0.00000
O          2.04680        0.00000        1.15010
C          1.24720       -0.05980        2.34300
N          2.15540        0.01300       -1.11040
C          1.47610        0.02400       -2.29310
O          2.13040        0.05210       -3.45890
C          3.56400        0.06700       -3.36400
N          0.11850        0.02190       -2.42270
C         -0.55410       -0.02860       -1.24060
O         -1.90620       -0.00810       -1.23290
C         -2.52680       -0.34930       -2.43190
C         -3.28200        0.65430       -3.03310
C         -4.05150        0.31920       -4.14420
C         -4.05500       -0.98810       -4.63420
C         -3.29020       -1.97650       -4.01880
C         -2.51310       -1.66520       -2.90030
C         -1.67680       -2.67990       -2.23980
O         -0.74140       -2.47960       -1.50330
O         -2.10120       -3.92820       -2.55310
C         -1.33650       -5.01980       -2.03000
C         -0.09510       -5.22420       -2.88050
H          2.02090       -0.06840        3.11980
H          0.64320       -0.97490        2.35880
H          0.60020        0.82100        2.42050
H          3.84890        0.05500       -4.42300
H          3.92970       -0.82050       -2.83470
H          3.90820        0.97630       -2.85960
H         -3.25630        1.66910       -2.64070
H         -4.64870        1.08550       -4.63840
H         -4.65510       -1.23650       -5.50730
H         -3.29180       -2.99670       -4.41020
H         -2.06050       -5.85120       -2.11590
H         -1.09630       -4.83290       -0.96750
H         -0.34870       -5.34510       -3.94020
H          0.46570       -6.11000       -2.56390
H          0.58210       -4.36030       -2.80470
