37
rmsd160.gzmat
N          0.00000        0.00000        0.00000
C          1.36370        0.00000        0.00000
O          1.90470        0.00000        1.22080
C          3.34130        0.01180        1.26450
N          2.15020        0.00640       -1.11530
C          1.46740        0.01490       -2.29400
O          2.25430        0.03930       -3.37420
C          1.57200        0.04830       -4.63920
N          0.10870       -0.00400       -2.42150
C         -0.56300       -0.03200       -1.23720
O         -1.90300       -0.03490       -1.37400
C         -2.62270       -0.26750       -0.19680
C         -3.14510        0.84000        0.46420
C         -4.00180        0.61440        1.53950
C         -4.32060       -0.68790        1.92880
C         -3.78530       -1.78090        1.25050
C         -2.91710       -1.57780        0.17430
C         -2.37380       -2.75450       -0.53080
O         -2.95180       -3.79320       -0.72760
O         -1.09230       -2.53700       -0.91050
C         -0.46400       -3.55120       -1.70390
C         -0.83850       -3.33610       -3.15940
H          3.52170       -0.01950        2.34610
H          3.73470        0.92860        0.81230
H          3.75460       -0.86750        0.75850
H          2.41750        0.06190       -5.33810
H          0.94890        0.94480       -4.73720
H          0.96110       -0.85370       -4.75770
H         -2.87610        1.84640        0.14960
H         -4.42050        1.46140        2.08230
H         -4.99040       -0.85180        2.77110
H         -4.03850       -2.80030        1.55220
H         -0.74610       -4.55300       -1.33240
H          0.60610       -3.36150       -1.50000
H         -1.88660       -3.60770       -3.34540
H         -0.21240       -3.93310       -3.82940
H         -0.72910       -2.27760       -3.44330
