37
rmsd198.gzmat
N          0.00000        0.00000        0.00000
C          1.36370        0.00000        0.00000
O          1.90490        0.00000        1.22070
C          3.34140       -0.01470        1.26340
N          2.15050       -0.00580       -1.11530
C          1.46820       -0.01850       -2.29420
O          2.25500       -0.04110       -3.37510
C          1.57180       -0.04830       -4.63930
N          0.10950       -0.00540       -2.42190
C         -0.56210        0.02830       -1.23770
O         -1.90230        0.03100       -1.37500
C         -2.62380        0.30950       -0.20990
C         -3.18860       -0.77060        0.46130
C         -4.05870       -0.50240        1.51570
C         -4.34640        0.81510        1.87780
C         -3.76500        1.88010        1.19300
C         -2.88350        1.63400        0.13650
C         -2.29190        2.78500       -0.57140
O         -2.82790        3.84490       -0.77520
O         -1.01800        2.51730       -0.94500
C         -0.34560        3.50750       -1.73280
C         -0.73870        3.32800       -3.18830
H          3.52270        0.00760        2.34540
H          3.75510        0.86810        0.76260
H          3.73310       -0.92930        0.80500
H          2.41580       -0.07430       -5.33960
H          0.97130        0.86010       -4.76050
H          0.93870       -0.93790       -4.73280
H         -2.94230       -1.79000        0.16980
H         -4.51470       -1.32790        2.06120
H         -5.02760        1.01280        2.70360
H         -3.99390        2.91170        1.47280
H          0.71510        3.26260       -1.53740
H         -0.57670        4.51740       -1.34830
H         -0.66030        2.27230       -3.49190
H         -0.10470        3.92110       -3.85440
H         -1.78170        3.62980       -3.35830
