rmsd160.gzmat
 OpenBabel08211713413D

 37 38  0  0  0  0  0  0  0  0999 V2000
    0.0000    0.0000    0.0000 N   0  0  0  0  0  0  0  0  0  0  0  0
    1.3637    0.0000    0.0000 C   0  0  0  0  0  0  0  0  0  0  0  0
    1.9047    0.0000    1.2208 O   0  0  0  0  0  0  0  0  0  0  0  0
    3.3413    0.0118    1.2645 C   0  0  0  0  0  0  0  0  0  0  0  0
    2.1502    0.0064   -1.1153 N   0  0  0  0  0  0  0  0  0  0  0  0
    1.4674    0.0149   -2.2940 C   0  0  0  0  0  0  0  0  0  0  0  0
    2.2543    0.0393   -3.3742 O   0  0  0  0  0  0  0  0  0  0  0  0
    1.5720    0.0483   -4.6392 C   0  0  0  0  0  0  0  0  0  0  0  0
    0.1087   -0.0040   -2.4215 N   0  0  0  0  0  0  0  0  0  0  0  0
   -0.5630   -0.0320   -1.2372 C   0  0  0  0  0  0  0  0  0  0  0  0
   -1.9030   -0.0349   -1.3740 O   0  0  0  0  0  0  0  0  0  0  0  0
   -2.6227   -0.2675   -0.1968 C   0  0  0  0  0  0  0  0  0  0  0  0
   -3.1451    0.8400    0.4642 C   0  0  0  0  0  0  0  0  0  0  0  0
   -4.0018    0.6144    1.5395 C   0  0  0  0  0  0  0  0  0  0  0  0
   -4.3206   -0.6879    1.9288 C   0  0  0  0  0  0  0  0  0  0  0  0
   -3.7853   -1.7809    1.2505 C   0  0  0  0  0  0  0  0  0  0  0  0
   -2.9171   -1.5778    0.1743 C   0  0  0  0  0  0  0  0  0  0  0  0
   -2.3738   -2.7545   -0.5308 C   0  0  0  0  0  0  0  0  0  0  0  0
   -2.9518   -3.7932   -0.7276 O   0  0  0  0  0  0  0  0  0  0  0  0
   -1.0923   -2.5370   -0.9105 O   0  0  0  0  0  0  0  0  0  0  0  0
   -0.4640   -3.5512   -1.7039 C   0  0  0  0  0  0  0  0  0  0  0  0
   -0.8385   -3.3361   -3.1594 C   0  0  0  0  0  0  0  0  0  0  0  0
    3.5217   -0.0195    2.3461 H   0  0  0  0  0  0  0  0  0  0  0  0
    3.7347    0.9286    0.8123 H   0  0  0  0  0  0  0  0  0  0  0  0
    3.7546   -0.8675    0.7585 H   0  0  0  0  0  0  0  0  0  0  0  0
    2.4175    0.0619   -5.3381 H   0  0  0  0  0  0  0  0  0  0  0  0
    0.9489    0.9448   -4.7372 H   0  0  0  0  0  0  0  0  0  0  0  0
    0.9611   -0.8537   -4.7577 H   0  0  0  0  0  0  0  0  0  0  0  0
   -2.8761    1.8464    0.1496 H   0  0  0  0  0  0  0  0  0  0  0  0
   -4.4205    1.4614    2.0823 H   0  0  0  0  0  0  0  0  0  0  0  0
   -4.9904   -0.8518    2.7711 H   0  0  0  0  0  0  0  0  0  0  0  0
   -4.0385   -2.8003    1.5522 H   0  0  0  0  0  0  0  0  0  0  0  0
   -0.7461   -4.5530   -1.3324 H   0  0  0  0  0  0  0  0  0  0  0  0
    0.6061   -3.3615   -1.5000 H   0  0  0  0  0  0  0  0  0  0  0  0
   -1.8866   -3.6077   -3.3454 H   0  0  0  0  0  0  0  0  0  0  0  0
   -0.2124   -3.9331   -3.8294 H   0  0  0  0  0  0  0  0  0  0  0  0
   -0.7291   -2.2776   -3.4433 H   0  0  0  0  0  0  0  0  0  0  0  0
  1  2  2  0  0  0  0
  2  3  1  0  0  0  0
  3  4  1  0  0  0  0
  4 23  1  0  0  0  0
  5  2  2  0  0  0  0
  6  5  2  0  0  0  0
  7  6  1  0  0  0  0
  8  7  1  0  0  0  0
  9  6  2  0  0  0  0
  9 10  2  0  0  0  0
 10  1  2  0  0  0  0
 11 10  1  0  0  0  0
 11 12  1  0  0  0  0
 12 17  2  0  0  0  0
 12 13  1  0  0  0  0
 13 14  2  0  0  0  0
 14 15  1  0  0  0  0
 14 30  1  0  0  0  0
 15 31  1  0  0  0  0
 16 32  1  0  0  0  0
 16 15  2  0  0  0  0
 17 16  1  0  0  0  0
 18 17  1  0  0  0  0
 19 18  2  0  0  0  0
 20 18  1  0  0  0  0
 21 34  1  0  0  0  0
 21 33  1  0  0  0  0
 21 20  1  0  0  0  0
 22 21  1  0  0  0  0
 24  4  1  0  0  0  0
 25  4  1  0  0  0  0
 26  8  1  0  0  0  0
 27  8  1  0  0  0  0
 28  8  1  0  0  0  0
 29 13  1  0  0  0  0
 35 22  1  0  0  0  0
 36 22  1  0  0  0  0
 37 22  1  0  0  0  0
M  END
$$$$
