rmsd138.gzmat
 OpenBabel08211713413D

 82 84  0  0  1  0  0  0  0  0999 V2000
    0.0000    0.0000    0.0000 C   0  0  0  0  0  0  0  0  0  0  0  0
    1.5330    0.0000    0.0000 C   0  0  0  0  0  0  0  0  0  0  0  0
    2.0206    0.0000    1.4216 C   0  0  0  0  0  0  0  0  0  0  0  0
    1.3629   -0.4726    2.3302 O   0  0  0  0  0  0  0  0  0  0  0  0
    3.2510    0.5307    1.8054 N   0  0  0  0  0  0  0  0  0  0  0  0
    4.2827    1.2437    1.0619 C   0  0  2  0  0  0  0  0  0  0  0  0
    5.2683    0.9908    1.5721 H   0  0  0  0  0  0  0  0  0  0  0  0
    4.1449    2.7844    1.2078 C   0  0  0  0  0  0  0  0  0  0  0  0
    5.1085    3.4923    0.9469 O   0  0  0  0  0  0  0  0  0  0  0  0
    3.0057    3.3270    1.7225 N   0  0  0  0  0  0  0  0  0  0  0  0
    2.8935    4.7852    1.8855 C   0  0  1  0  0  0  0  0  0  0  0  0
    3.9325    5.2108    1.9777 H   0  0  0  0  0  0  0  0  0  0  0  0
    2.1830    5.4837    0.6905 C   0  0  0  0  0  0  0  0  0  0  0  0
    1.4916    4.4975   -0.1929 C   0  0  0  0  0  0  0  0  0  0  0  0
    2.1515    3.9818   -1.3128 C   0  0  0  0  0  0  0  0  0  0  0  0
    1.6102    2.9104   -2.0092 C   0  0  0  0  0  0  0  0  0  0  0  0
    0.3970    2.3697   -1.5603 C   0  0  0  0  0  0  0  0  0  0  0  0
   -0.3481    2.9713   -0.5460 C   0  0  0  0  0  0  0  0  0  0  0  0
    0.2150    4.0404    0.1422 C   0  0  0  0  0  0  0  0  0  0  0  0
    0.0454    1.2091   -2.1831 O   0  0  0  0  0  0  0  0  0  0  0  0
   -0.5990    0.2154   -1.3895 C   0  0  0  0  0  0  0  0  0  0  0  0
    2.1363    5.0180    3.2223 C   0  0  2  0  0  0  0  0  0  0  0  0
    2.4902    4.3071    4.0052 H   0  0  0  0  0  0  0  0  0  0  0  0
    0.7877    4.7013    2.9563 O   0  0  0  0  0  0  0  0  0  0  0  0
    2.2933    6.4847    3.6942 C   0  0  0  0  0  0  0  0  0  0  0  0
    1.2657    6.7449    4.7287 N   0  0  0  0  0  0  0  0  0  0  0  0
    1.6784    6.2525    6.0621 C   0  0  1  0  0  0  0  0  0  0  0  0
    2.1330    5.2301    5.9359 H   0  0  0  0  0  0  0  0  0  0  0  0
    2.6855    7.1581    6.7948 C   0  0  0  0  0  0  0  0  0  0  0  0
    2.2101    8.6131    6.8239 C   0  0  0  0  0  0  0  0  0  0  0  0
    1.8990    9.1005    5.4059 C   0  0  0  0  0  0  0  0  0  0  0  0
    0.8593    8.1683    4.7633 C   0  0  0  0  0  0  0  0  0  0  0  0
    0.4394    6.0426    6.9626 C   0  0  0  0  0  0  0  0  0  0  0  0
    0.5663    5.9820    8.1698 O   0  0  0  0  0  0  0  0  0  0  0  0
   -0.7641    5.8549    6.3300 N   0  0  0  0  0  0  0  0  0  0  0  0
   -2.0273    5.5979    7.0600 C   0  0  0  0  0  0  0  0  0  0  0  0
   -2.3241    6.7632    8.0181 C   0  0  0  0  0  0  0  0  0  0  0  0
   -3.1482    5.4908    6.0054 C   0  0  0  0  0  0  0  0  0  0  0  0
   -1.9104    4.2778    7.8373 C   0  0  0  0  0  0  0  0  0  0  0  0
    4.4088    0.8679   -0.4177 C   0  0  0  0  0  0  0  0  0  0  0  0
    5.8477    0.7867   -0.9142 C   0  0  0  0  0  0  0  0  0  0  0  0
    6.2538   -0.1928   -1.5076 O   0  0  0  0  0  0  0  0  0  0  0  0
    6.6599    1.8726   -0.7076 N   0  0  0  0  0  0  0  0  0  0  0  0
   -0.3718    0.7701    0.7084 H   0  0  0  0  0  0  0  0  0  0  0  0
   -0.3743   -0.9585    0.4214 H   0  0  0  0  0  0  0  0  0  0  0  0
    1.9144    0.8730   -0.5661 H   0  0  0  0  0  0  0  0  0  0  0  0
    1.9148   -0.9007   -0.5289 H   0  0  0  0  0  0  0  0  0  0  0  0
    3.4568    0.4346    2.8046 H   0  0  0  0  0  0  0  0  0  0  0  0
    2.1480    2.7979    1.8312 H   0  0  0  0  0  0  0  0  0  0  0  0
    2.9293    6.0686    0.1166 H   0  0  0  0  0  0  0  0  0  0  0  0
    1.4518    6.2266    1.0746 H   0  0  0  0  0  0  0  0  0  0  0  0
    3.1108    4.4004   -1.6188 H   0  0  0  0  0  0  0  0  0  0  0  0
    2.1124    2.4767   -2.8700 H   0  0  0  0  0  0  0  0  0  0  0  0
   -1.3354    2.6040   -0.2856 H   0  0  0  0  0  0  0  0  0  0  0  0
   -0.3265    4.5010    0.9722 H   0  0  0  0  0  0  0  0  0  0  0  0
   -0.4634   -0.6700   -2.0437 H   0  0  0  0  0  0  0  0  0  0  0  0
   -1.6729    0.4676   -1.3312 H   0  0  0  0  0  0  0  0  0  0  0  0
    0.2217    5.0728    3.6709 H   0  0  0  0  0  0  0  0  0  0  0  0
    3.3298    6.6661    4.0452 H   0  0  0  0  0  0  0  0  0  0  0  0
    2.1281    7.1734    2.8368 H   0  0  0  0  0  0  0  0  0  0  0  0
    2.8224    6.7870    7.8340 H   0  0  0  0  0  0  0  0  0  0  0  0
    3.6765    7.0870    6.3116 H   0  0  0  0  0  0  0  0  0  0  0  0
    1.3100    8.6991    7.4662 H   0  0  0  0  0  0  0  0  0  0  0  0
    2.9750    9.2559    7.2961 H   0  0  0  0  0  0  0  0  0  0  0  0
    2.8204    9.1308    4.7976 H   0  0  0  0  0  0  0  0  0  0  0  0
    1.5152   10.1364    5.4288 H   0  0  0  0  0  0  0  0  0  0  0  0
    0.6183    8.4971    3.7302 H   0  0  0  0  0  0  0  0  0  0  0  0
   -0.0945    8.2248    5.3381 H   0  0  0  0  0  0  0  0  0  0  0  0
   -0.8168    5.9596    5.3274 H   0  0  0  0  0  0  0  0  0  0  0  0
   -3.2798    6.6210    8.5299 H   0  0  0  0  0  0  0  0  0  0  0  0
   -2.3551    7.7219    7.4935 H   0  0  0  0  0  0  0  0  0  0  0  0
   -1.5436    6.8409    8.7913 H   0  0  0  0  0  0  0  0  0  0  0  0
   -2.9558    4.6832    5.2905 H   0  0  0  0  0  0  0  0  0  0  0  0
   -3.2699    6.4235    5.4455 H   0  0  0  0  0  0  0  0  0  0  0  0
   -4.1076    5.2735    6.4881 H   0  0  0  0  0  0  0  0  0  0  0  0
   -1.6816    3.4371    7.1746 H   0  0  0  0  0  0  0  0  0  0  0  0
   -2.8359    4.0493    8.3722 H   0  0  0  0  0  0  0  0  0  0  0  0
   -1.1024    4.3341    8.5835 H   0  0  0  0  0  0  0  0  0  0  0  0
    3.9684   -0.1426   -0.5966 H   0  0  0  0  0  0  0  0  0  0  0  0
    3.8462    1.5694   -1.0712 H   0  0  0  0  0  0  0  0  0  0  0  0
    6.3463    2.6789   -0.1880 H   0  0  0  0  0  0  0  0  0  0  0  0
    7.6080    1.8593   -1.0222 H   0  0  0  0  0  0  0  0  0  0  0  0
  1  2  1  0  0  0  0
  1 45  1  0  0  0  0
  1 44  1  0  0  0  0
  2  3  1  0  0  0  0
  3  5  1  0  0  0  0
  3  4  2  0  0  0  0
  5 48  1  0  0  0  0
  6  8  1  0  0  0  0
  6  7  1  1  0  0  0
  6  5  1  0  0  0  0
  8 10  1  0  0  0  0
  9  8  2  0  0  0  0
 10 49  1  0  0  0  0
 10 11  1  0  0  0  0
 11 12  1  1  0  0  0
 11 22  1  0  0  0  0
 13 51  1  0  0  0  0
 13 11  1  0  0  0  0
 14 19  1  0  0  0  0
 14 13  1  0  0  0  0
 15 14  2  0  0  0  0
 16 17  2  0  0  0  0
 16 15  1  0  0  0  0
 17 18  1  0  0  0  0
 18 54  1  0  0  0  0
 18 19  2  0  0  0  0
 19 55  1  0  0  0  0
 20 17  1  0  0  0  0
 20 21  1  0  0  0  0
 21 57  1  0  0  0  0
 21  1  1  0  0  0  0
 22 25  1  0  0  0  0
 22 23  1  1  0  0  0
 24 22  1  0  0  0  0
 24 58  1  0  0  0  0
 25 59  1  0  0  0  0
 25 26  1  0  0  0  0
 26 32  1  0  0  0  0
 26 27  1  0  0  0  0
 27 28  1  6  0  0  0
 27 29  1  0  0  0  0
 27 33  1  0  0  0  0
 29 30  1  0  0  0  0
 29 61  1  0  0  0  0
 30 64  1  0  0  0  0
 30 63  1  0  0  0  0
 31 66  1  0  0  0  0
 31 30  1  0  0  0  0
 32 68  1  0  0  0  0
 32 31  1  0  0  0  0
 33 34  2  0  0  0  0
 35 33  1  0  0  0  0
 35 36  1  0  0  0  0
 36 39  1  0  0  0  0
 36 37  1  0  0  0  0
 37 70  1  0  0  0  0
 37 72  1  0  0  0  0
 38 75  1  0  0  0  0
 38 36  1  0  0  0  0
 39 77  1  0  0  0  0
 39 78  1  0  0  0  0
 40  6  1  0  0  0  0
 41 43  1  0  0  0  0
 41 40  1  0  0  0  0
 42 41  2  0  0  0  0
 43 81  1  0  0  0  0
 46  2  1  0  0  0  0
 47  2  1  0  0  0  0
 50 13  1  0  0  0  0
 52 15  1  0  0  0  0
 53 16  1  0  0  0  0
 56 21  1  0  0  0  0
 60 25  1  0  0  0  0
 62 29  1  0  0  0  0
 65 31  1  0  0  0  0
 67 32  1  0  0  0  0
 69 35  1  0  0  0  0
 71 37  1  0  0  0  0
 73 38  1  0  0  0  0
 74 38  1  0  0  0  0
 76 39  1  0  0  0  0
 79 40  1  0  0  0  0
 80 40  1  0  0  0  0
 82 43  1  0  0  0  0
M  END
$$$$
