82

C          0.00370        0.24270       -0.62990
C          1.52100        0.20500       -0.43610
C          1.86920       -0.14260        1.00120
O          1.13860       -0.82980        1.69290
N          3.03400        0.36670        1.54690
C          4.18000        1.05750        0.96390
H          5.01830        0.81860        1.64010
C          4.11570        2.59680        1.06090
O          5.02150        3.28270        0.57930
N          3.11480        3.13240        1.77510
C          3.08210        4.55090        2.10640
H          4.13150        4.85220        2.19200
C          2.41750        5.45670        1.01130
C          1.73240        4.66920       -0.07110
C          2.44080        4.26430       -1.21240
C          1.90030        3.33630       -2.09780
C          0.63240        2.78990       -1.85160
C         -0.13800        3.28750       -0.79260
C          0.42360        4.20330        0.09900
O          0.25550        1.73860       -2.62790
C         -0.46220        0.65670       -2.02940
C          2.44630        4.68350        3.49100
H          2.97510        3.96530        4.14930
O          1.08100        4.32210        3.35490
C          2.62000        6.07280        4.12060
N          4.02690        6.39580        4.31230
C          4.56710        7.42400        3.41740
H          4.03360        7.33550        2.45730
C          4.37810        8.85590        3.93810
C          4.87210        8.99790        5.37970
C          4.22330        7.93960        6.27680
C          4.47650        6.54400        5.69910
C          6.04090        7.14820        3.03060
O          6.75230        8.04510        2.59950
N          6.40590        5.84990        3.14650
C          7.67020        5.25540        2.67580
C          7.58940        3.75530        2.98340
C          7.80370        5.46830        1.15850
C          8.85240        5.89140        3.42330
C          4.60390        0.57160       -0.44440
C          6.11310        0.36460       -0.64070
O          6.54360       -0.69220       -1.07060
N          6.89460        1.42030       -0.30310
H         -0.42450        0.90620        0.13370
H         -0.41490       -0.75220       -0.41520
H          1.97540        1.16410       -0.70780
H          1.97820       -0.55220       -1.09550
H          3.16900        0.01020        2.48870
H          2.33670        2.54440        2.05590
H          3.20320        6.08370        0.56650
H          1.69540        6.13030        1.49290
H          3.45920        4.62670       -1.36810
H          2.47010        2.96130       -2.95030
H         -1.15130        2.91880       -0.62990
H         -0.14330        4.52060        0.97680
H         -0.32380       -0.17370       -2.73830
H         -1.54420        0.88340       -2.00260
H          0.67190        4.29200        4.22920
H          2.10440        6.82690        3.50210
H          2.08780        6.07140        5.08850
H          4.91310        9.54260        3.26810
H          3.30390        9.10620        3.88960
H          5.96920        8.87330        5.39860
H          4.66470       10.01200        5.75700
H          3.13510        8.12190        6.34390
H          4.61850        7.99340        7.30480
H          3.99470        5.76150        6.30580
H          5.56140        6.33940        5.73030
H          5.69110        5.24960        3.54750
H          8.52480        3.25760        2.68780
H          6.76690        3.28770        2.42170
H          7.43980        3.57940        4.06150
H          7.83520        6.54100        0.92530
H          6.94660        5.01350        0.63990
H          8.73040        5.00130        0.78900
H          8.87820        6.97390        3.24160
H          9.80140        5.44980        3.08140
H          8.76150        5.71870        4.50760
H          4.16850       -0.41450       -0.63190
H          4.23310        1.26220       -1.21750
H          6.46360        2.30910       -0.03940
H          7.89160        1.34010       -0.46300
