82
rmsd222.gzmat
C          0.00000        0.00000        0.00000
C          1.53400        0.00000        0.00000
C          2.01200        0.00000        1.42530
O          1.35530       -0.50180        2.32000
N          3.22460        0.54970        1.83720
C          4.26010        1.30010        1.13580
H          5.24310        1.01780        1.63570
C          4.11590        2.83130        1.36130
O          5.09670        3.54540        1.19630
N          2.94260        3.35270        1.81270
C          2.79910        4.80440        2.00790
H          3.82600        5.25730        2.10470
C          2.06690        5.49960        0.82480
C          1.40260        4.50960       -0.07560
C          2.09030        4.00450       -1.18350
C          1.56530        2.94100       -1.90430
C          0.33970        2.39770       -1.49460
C         -0.42600        2.98330       -0.48610
C          0.12270        4.04180        0.23020
O         -0.00990        1.25830       -2.15740
C         -0.60170        0.21420       -1.38760
C          2.04780        4.98620        3.35500
H          2.51090        4.34800        4.14350
O          0.74440        4.48650        3.14900
C          2.01730        6.47030        3.80110
N          1.05560        6.53780        4.92370
C          1.71070        6.35420        6.23510
H          2.51490        5.57580        6.13020
C          2.35570        7.61330        6.84340
C          1.45850        8.85110        6.74030
C          0.93680        9.02720        5.31160
C          0.20280        7.74400        4.89100
C          0.60860        5.79280        7.16430
O          0.02830        6.47120        7.98380
N          0.38490        4.44200        7.00840
C         -0.65510        3.71080        7.77390
C         -0.54220        2.22260        7.38510
C         -0.39870        3.87320        9.28000
C         -2.04980        4.24540        7.40650
C          4.39160        1.00920       -0.36160
C          5.81810        1.00770       -0.89810
O          6.16230        0.19710       -1.73620
N          6.70700        1.93630       -0.41690
H         -0.36910        0.77150        0.70870
H         -0.37540       -0.95760        0.42260
H          1.91410        0.87030       -0.57020
H          1.91730       -0.90330       -0.52340
H          3.41260        0.43590        2.83870
H          2.08750        2.81100        1.87170
H          2.79620        6.11480        0.25970
H          1.31500        6.21490        1.21920
H          3.05690        4.42550       -1.46060
H          2.08820        2.51510       -2.75710
H         -1.41960        2.61300       -0.25420
H         -0.43180        4.48600        1.06030
H         -0.41730       -0.64930       -2.05940
H         -1.68800        0.40920       -1.33060
H          0.13060        4.89810        3.80630
H          3.03580        6.81970        4.06180
H          1.67440        7.11620        2.96470
H          2.59020        7.42030        7.91040
H          3.32220        7.80930        6.34240
H          0.60500        8.74710        7.44570
H          2.01390        9.74970        7.06440
H          1.76650        9.24730        4.61760
H          0.25300        9.89330        5.25570
H         -0.23720        7.84600        3.87760
H         -0.64870        7.55630        5.59080
H          0.77270        3.95990        6.20850
H         -1.28140        1.62660        7.93120
H          0.44620        1.81700        7.62940
H         -0.72020        2.06060        6.31640
H         -0.50080        4.92500        9.58870
H          0.61240        3.55440        9.55250
H         -1.11140        3.29030        9.86910
H         -2.12520        5.31900        7.63340
H         -2.83200        3.73660        7.97720
H         -2.26800        4.11620        6.34290
H          3.98540       -0.00630       -0.59040
H          3.79370        1.72220       -0.97180
H          6.41620        2.68560        0.19350
H          7.63690        1.97200       -0.78400
