82

C         -0.37440        0.56650       -0.37080
C          1.10880        0.35700       -0.06190
C          1.33560        0.18760        1.43080
O          0.48620       -0.29460        2.15970
N          2.53010        0.62020        1.97810
C          3.78020        1.10080        1.39550
H          4.55360        0.83330        2.13510
C          3.89980        2.64040        1.32980
O          4.91580        3.16800        0.87430
N          2.90160        3.35840        1.86950
C          2.95860        4.81110        1.97820
H          3.99350        5.05650        2.26200
C          2.65750        5.55610        0.63220
C          1.93330        4.70850       -0.37950
C          2.65250        4.00930       -1.36070
C          2.03670        3.03760       -2.14500
C          0.68070        2.73910       -1.95060
C         -0.07870        3.52850       -1.07750
C          0.55340        4.49040       -0.28880
O          0.19570        1.63040       -2.57180
C         -0.70070        0.77710       -1.85310
C          2.06000        5.19430        3.15490
H          2.44000        4.62160        4.02680
O          0.73420        4.79180        2.86970
C          2.07340        6.67590        3.53260
N          1.13450        6.89220        4.63660
C          1.74580        6.70270        5.96550
H          2.42380        5.83550        5.88990
C          2.55710        7.91680        6.44170
C          1.73670        9.20670        6.36130
C          1.15000        9.38490        4.95810
C          0.35650        8.13810        4.56080
C          0.70930        6.27690        7.03340
O          0.90370        6.49910        8.22030
N         -0.35660        5.61020        6.53490
C         -1.45150        5.00290        7.31260
C         -2.18420        6.08980        8.11520
C         -2.40170        4.36610        6.29240
C         -0.88580        3.92810        8.25470
C          4.19350        0.42080        0.06650
C          5.67350        0.02940       -0.05300
O          5.98850       -1.09630       -0.40200
N          6.56270        1.00700        0.24560
H         -0.73650        1.41190        0.23060
H         -0.94610       -0.30610       -0.01980
H          1.70530        1.19490       -0.43640
H          1.48730       -0.54530       -0.57200
H          2.56420        0.40390        2.97030
H          2.03820        2.88970        2.12500
H          3.61720        5.88180        0.20870
H          2.07800        6.46540        0.84710
H          3.72710        4.17780       -1.45840
H          2.60320        2.43710       -2.85960
H         -1.14890        3.34910       -0.96700
H         -0.02300        5.03540        0.46020
H         -0.64320       -0.17910       -2.39500
H         -1.73920        1.14410       -1.95150
H          0.18980        5.29940        3.49470
H          3.10420        7.00210        3.76550
H          1.73460        7.27040        2.67230
H          2.88800        7.72670        7.47140
H          3.45960        8.01080        5.81400
H          0.91810        9.15690        7.09980
H          2.35860       10.07260        6.63860
H          1.96210        9.55580        4.22830
H          0.49320       10.26920        4.91160
H         -0.04930        8.22630        3.54100
H         -0.50750        8.03050        5.23880
H         -0.36740        5.52230        5.52560
H         -3.01500        5.64710        8.68610
H         -2.59850        6.85490        7.43950
H         -1.49300        6.57720        8.81530
H         -1.88310        3.59970        5.69330
H         -2.81360        5.12610        5.60830
H         -3.24470        3.88090        6.80530
H         -0.37170        3.14290        7.67830
H         -1.69840        3.45830        8.83000
H         -0.16910        4.37580        8.95600
H          3.65590       -0.52650       -0.03550
H          3.92600        1.05660       -0.79140
H          6.23450        1.95520        0.44720
H          7.54750        0.79620        0.13780
