rmsd219.gzmat
 OpenBabel08211713413D

 82 84  0  0  1  0  0  0  0  0999 V2000
    0.0000    0.0000    0.0000 C   0  0  0  0  0  0  0  0  0  0  0  0
    1.5333    0.0000    0.0000 C   0  0  0  0  0  0  0  0  0  0  0  0
    2.0250    0.0000    1.4206 C   0  0  0  0  0  0  0  0  0  0  0  0
    1.3713   -0.4795    2.3290 O   0  0  0  0  0  0  0  0  0  0  0  0
    3.2602    0.5206    1.7986 N   0  0  0  0  0  0  0  0  0  0  0  0
    4.2490    1.3059    1.0704 C   0  0  2  0  0  0  0  0  0  0  0  0
    5.2420    1.1180    1.5935 H   0  0  0  0  0  0  0  0  0  0  0  0
    3.9835    2.8306    1.2304 C   0  0  0  0  0  0  0  0  0  0  0  0
    4.9269    3.5959    1.3330 O   0  0  0  0  0  0  0  0  0  0  0  0
    2.6932    3.2626    1.3157 N   0  0  0  0  0  0  0  0  0  0  0  0
    2.3652    4.6836    1.5196 C   0  0  1  0  0  0  0  0  0  0  0  0
    3.2587    5.2205    1.9361 H   0  0  0  0  0  0  0  0  0  0  0  0
    1.9359    5.3761    0.1958 C   0  0  0  0  0  0  0  0  0  0  0  0
    1.2661    4.3881   -0.7005 C   0  0  0  0  0  0  0  0  0  0  0  0
    2.0085    3.7552   -1.7049 C   0  0  0  0  0  0  0  0  0  0  0  0
    1.5230    2.6040   -2.3085 C   0  0  0  0  0  0  0  0  0  0  0  0
    0.2853    2.1033   -1.8815 C   0  0  0  0  0  0  0  0  0  0  0  0
   -0.5506    2.8324   -1.0350 C   0  0  0  0  0  0  0  0  0  0  0  0
   -0.0498    3.9912   -0.4511 C   0  0  0  0  0  0  0  0  0  0  0  0
   -0.0088    0.8554   -2.3455 O   0  0  0  0  0  0  0  0  0  0  0  0
   -0.5989   -0.0420   -1.4057 C   0  0  0  0  0  0  0  0  0  0  0  0
    1.1991    4.7214    2.5468 C   0  0  2  0  0  0  0  0  0  0  0  0
    0.2823    4.2502    2.1221 H   0  0  0  0  0  0  0  0  0  0  0  0
    0.8915    6.0904    2.7114 O   0  0  0  0  0  0  0  0  0  0  0  0
    1.5871    4.0791    3.8980 C   0  0  0  0  0  0  0  0  0  0  0  0
    0.3326    3.9855    4.6748 N   0  0  0  0  0  0  0  0  0  0  0  0
   -0.4286    2.7571    4.3449 C   0  0  1  0  0  0  0  0  0  0  0  0
   -0.3394    2.5617    3.2407 H   0  0  0  0  0  0  0  0  0  0  0  0
    0.0091    1.4836    5.0855 C   0  0  0  0  0  0  0  0  0  0  0  0
    0.1779    1.7219    6.5873 C   0  0  0  0  0  0  0  0  0  0  0  0
    1.1041    2.9157    6.8339 C   0  0  0  0  0  0  0  0  0  0  0  0
    0.5262    4.1536    6.1291 C   0  0  0  0  0  0  0  0  0  0  0  0
   -1.9190    3.0649    4.6145 C   0  0  0  0  0  0  0  0  0  0  0  0
   -2.6385    2.3177    5.2424 O   0  0  0  0  0  0  0  0  0  0  0  0
   -2.3757    4.2052    3.9884 N   0  0  0  0  0  0  0  0  0  0  0  0
   -3.7615    4.7008    4.1451 C   0  0  0  0  0  0  0  0  0  0  0  0
   -3.8790    5.9970    3.3160 C   0  0  0  0  0  0  0  0  0  0  0  0
   -4.7420    3.6462    3.6071 C   0  0  0  0  0  0  0  0  0  0  0  0
   -4.0533    4.9995    5.6257 C   0  0  0  0  0  0  0  0  0  0  0  0
    4.4197    0.9581   -0.4093 C   0  0  0  0  0  0  0  0  0  0  0  0
    5.8591    1.0523   -0.9002 C   0  0  0  0  0  0  0  0  0  0  0  0
    6.3453    0.1795   -1.5902 O   0  0  0  0  0  0  0  0  0  0  0  0
    6.5819    2.1748   -0.5760 N   0  0  0  0  0  0  0  0  0  0  0  0
   -0.3740    0.8829    0.5581 H   0  0  0  0  0  0  0  0  0  0  0  0
   -0.3735   -0.8741    0.5817 H   0  0  0  0  0  0  0  0  0  0  0  0
    1.9130    0.8602   -0.5835 H   0  0  0  0  0  0  0  0  0  0  0  0
    1.9136   -0.9069   -0.5211 H   0  0  0  0  0  0  0  0  0  0  0  0
    3.4792    0.4053    2.7930 H   0  0  0  0  0  0  0  0  0  0  0  0
    1.9150    2.6498    1.1098 H   0  0  0  0  0  0  0  0  0  0  0  0
    2.8265    5.8244   -0.2877 H   0  0  0  0  0  0  0  0  0  0  0  0
    1.2744    6.2388    0.4320 H   0  0  0  0  0  0  0  0  0  0  0  0
    2.9873    4.1452   -1.9848 H   0  0  0  0  0  0  0  0  0  0  0  0
    2.0869    2.0750   -3.0728 H   0  0  0  0  0  0  0  0  0  0  0  0
   -1.5608    2.4924   -0.8255 H   0  0  0  0  0  0  0  0  0  0  0  0
   -0.6770    4.5726    0.2261 H   0  0  0  0  0  0  0  0  0  0  0  0
   -0.4073   -1.0094   -1.9132 H   0  0  0  0  0  0  0  0  0  0  0  0
   -1.6867    0.1529   -1.3876 H   0  0  0  0  0  0  0  0  0  0  0  0
    0.6002    6.2598    3.6336 H   0  0  0  0  0  0  0  0  0  0  0  0
    2.0916    3.1020    3.7551 H   0  0  0  0  0  0  0  0  0  0  0  0
    2.3245    4.7262    4.4200 H   0  0  0  0  0  0  0  0  0  0  0  0
   -0.7459    0.6857    4.9163 H   0  0  0  0  0  0  0  0  0  0  0  0
    0.9488    1.0982    4.6463 H   0  0  0  0  0  0  0  0  0  0  0  0
   -0.8164    1.9034    7.0471 H   0  0  0  0  0  0  0  0  0  0  0  0
    0.5747    0.8132    7.0750 H   0  0  0  0  0  0  0  0  0  0  0  0
    2.1210    2.6980    6.4620 H   0  0  0  0  0  0  0  0  0  0  0  0
    1.2081    3.1088    7.9163 H   0  0  0  0  0  0  0  0  0  0  0  0
    1.1647    5.0432    6.3086 H   0  0  0  0  0  0  0  0  0  0  0  0
   -0.4760    4.3946    6.5578 H   0  0  0  0  0  0  0  0  0  0  0  0
   -1.6940    4.8563    3.6148 H   0  0  0  0  0  0  0  0  0  0  0  0
   -4.8962    6.3986    3.3729 H   0  0  0  0  0  0  0  0  0  0  0  0
   -3.6569    5.8178    2.2583 H   0  0  0  0  0  0  0  0  0  0  0  0
   -3.2006    6.7762    3.6787 H   0  0  0  0  0  0  0  0  0  0  0  0
   -4.6887    2.7219    4.2039 H   0  0  0  0  0  0  0  0  0  0  0  0
   -4.5109    3.3741    2.5727 H   0  0  0  0  0  0  0  0  0  0  0  0
   -5.7731    4.0053    3.6466 H   0  0  0  0  0  0  0  0  0  0  0  0
   -3.9856    4.0800    6.2275 H   0  0  0  0  0  0  0  0  0  0  0  0
   -5.0598    5.4045    5.7588 H   0  0  0  0  0  0  0  0  0  0  0  0
   -3.3395    5.7161    6.0419 H   0  0  0  0  0  0  0  0  0  0  0  0
    4.0926   -0.0936   -0.5959 H   0  0  0  0  0  0  0  0  0  0  0  0
    3.7845    1.5924   -1.0649 H   0  0  0  0  0  0  0  0  0  0  0  0
    6.2225    2.8906    0.0322 H   0  0  0  0  0  0  0  0  0  0  0  0
    7.5309    2.2630   -0.8806 H   0  0  0  0  0  0  0  0  0  0  0  0
  1  2  1  0  0  0  0
  1 44  1  0  0  0  0
  1 45  1  0  0  0  0
  2  3  1  0  0  0  0
  3  5  1  0  0  0  0
  3  4  2  0  0  0  0
  5 48  1  0  0  0  0
  6  8  1  0  0  0  0
  6  7  1  1  0  0  0
  6  5  1  0  0  0  0
  8 10  1  0  0  0  0
  8  9  2  0  0  0  0
 10 11  1  0  0  0  0
 11 12  1  1  0  0  0
 11 22  1  0  0  0  0
 13 51  1  0  0  0  0
 13 11  1  0  0  0  0
 14 19  1  0  0  0  0
 14 13  1  0  0  0  0
 15 14  2  0  0  0  0
 16 17  2  0  0  0  0
 16 15  1  0  0  0  0
 17 18  1  0  0  0  0
 18 54  1  0  0  0  0
 18 19  2  0  0  0  0
 19 55  1  0  0  0  0
 20 17  1  0  0  0  0
 20 21  1  0  0  0  0
 21 57  1  0  0  0  0
 21  1  1  0  0  0  0
 22 23  1  6  0  0  0
 22 24  1  0  0  0  0
 22 25  1  0  0  0  0
 24 58  1  0  0  0  0
 25 60  1  0  0  0  0
 25 26  1  0  0  0  0
 26 32  1  0  0  0  0
 27 28  1  6  0  0  0
 27 33  1  0  0  0  0
 27 26  1  0  0  0  0
 27 29  1  0  0  0  0
 29 30  1  0  0  0  0
 30 31  1  0  0  0  0
 30 63  1  0  0  0  0
 30 64  1  0  0  0  0
 31 66  1  0  0  0  0
 32 67  1  0  0  0  0
 32 68  1  0  0  0  0
 32 31  1  0  0  0  0
 33 34  2  0  0  0  0
 35 36  1  0  0  0  0
 35 33  1  0  0  0  0
 36 39  1  0  0  0  0
 37 70  1  0  0  0  0
 37 72  1  0  0  0  0
 37 36  1  0  0  0  0
 38 75  1  0  0  0  0
 38 36  1  0  0  0  0
 38 73  1  0  0  0  0
 39 77  1  0  0  0  0
 39 78  1  0  0  0  0
 39 76  1  0  0  0  0
 40  6  1  0  0  0  0
 41 43  1  0  0  0  0
 41 40  1  0  0  0  0
 42 41  2  0  0  0  0
 43 81  1  0  0  0  0
 46  2  1  0  0  0  0
 47  2  1  0  0  0  0
 49 10  1  0  0  0  0
 50 13  1  0  0  0  0
 52 15  1  0  0  0  0
 53 16  1  0  0  0  0
 56 21  1  0  0  0  0
 59 25  1  0  0  0  0
 61 29  1  0  0  0  0
 62 29  1  0  0  0  0
 65 31  1  0  0  0  0
 69 35  1  0  0  0  0
 71 37  1  0  0  0  0
 74 38  1  0  0  0  0
 79 40  1  0  0  0  0
 80 40  1  0  0  0  0
 82 43  1  0  0  0  0
M  END
$$$$
