82
rmsd162.gzmat
C          0.00000        0.00000        0.00000
C          1.53280        0.00000        0.00000
C          2.06010        0.00000        1.39690
O          1.35640       -0.07210        2.38630
N          3.42900        0.10040        1.66650
C          4.56890        0.32370        0.78750
H          5.48140       -0.02240        1.38120
C          4.85790        1.82780        0.54760
O          5.94380        2.13420        0.07310
N          3.93780        2.75650        0.91080
C          4.25550        4.19060        0.88860
H          5.36960        4.32910        0.79020
C          3.56010        4.91220       -0.29660
C          2.31140        4.20520       -0.71200
C          2.33340        3.38580       -1.84520
C          1.25250        2.56400       -2.13890
C          0.15310        2.57620       -1.27770
C          0.06490        3.47000       -0.20790
C          1.15260        4.29270        0.06320
O         -0.91140        1.73170       -1.45920
C         -0.56590        0.34680       -1.37640
C          3.80330        4.81820        2.23860
H          2.69260        4.90700        2.28390
O          4.33830        6.12680        2.17190
C          4.30600        4.07580        3.49730
N          5.69150        3.58040        3.32930
C          6.68950        4.66300        3.47680
H          6.36950        5.52800        2.82960
C          6.88030        5.15200        4.92610
C          7.15910        3.98310        5.87760
C          6.09380        2.89230        5.73380
C          5.98330        2.46470        4.25980
C          8.04560        4.17410        2.92190
O          9.07590        4.33610        3.54900
N          8.02250        3.66130        1.64930
C          9.24400        3.12900        0.99980
C          8.86390        2.72450       -0.43910
C         10.33040        4.21570        0.95810
C          9.75020        1.89300        1.76870
C          4.57590       -0.49240       -0.51290
C          4.19890        0.23260       -1.79200
O          3.15230        0.01910       -2.37540
N          5.13920        1.07090       -2.34000
H         -0.38700        0.72260        0.75250
H         -0.37660       -0.98420        0.34020
H          1.92060        0.88230       -0.55890
H          1.90530       -0.87760       -0.57470
H          3.66950        0.07200        2.65990
H          3.04080        2.48890        1.29020
H          4.27610        4.98290       -1.14110
H          3.35740        5.96870       -0.01630
H          3.21130        3.36990       -2.48820
H          1.27550        1.89650       -2.99920
H         -0.83380        3.49560        0.40320
H          1.10230        4.99430        0.89350
H          0.11970        0.08280       -2.20100
H         -1.55340       -0.12080       -1.55390
H          4.14320        6.62860        2.98670
H          4.19170        4.74020        4.38190
H          3.63720        3.20380        3.68100
H          7.73110        5.86510        4.95960
H          5.99040        5.71400        5.25620
H          8.16560        3.56580        5.65740
H          7.20600        4.34380        6.92040
H          5.11920        3.25510        6.10490
H          6.35300        2.02020        6.36080
H          5.20770        1.68240        4.13570
H          6.94630        2.01090        3.92710
H          7.13490        3.37170        1.23930
H          9.74360        2.38620       -0.99230
H          8.42490        3.56630       -0.98580
H          8.13080        1.90870       -0.44640
H         10.68460        4.45970        1.97170
H          9.94730        5.14410        0.52230
H         11.19430        3.89130        0.37400
H          9.98770        2.15610        2.80940
H         10.65980        1.49300        1.31400
H          8.99900        1.09920        1.78800
H          5.58880       -0.93620       -0.65330
H          3.90360       -1.37520       -0.40180
H          5.93820        1.38130       -1.80920
H          4.93080        1.56880       -3.18270
