82

C         -0.49120        0.73360        0.75290
C          0.99950        0.48890        0.50560
C          1.77880        0.36740        1.80340
O          1.25130        0.00460        2.84380
N          3.12500        0.68230        1.80960
C          4.02000        1.27690        0.81850
H          5.03330        1.07780        1.20230
C          3.95000        2.82820        0.75940
O          4.70020        3.46240        0.02060
N          3.05030        3.38880        1.58280
C          2.71510        4.80480        1.73380
H          3.56640        5.33730        2.19360
C          2.38580        5.51350        0.38760
C          1.39190        4.71500       -0.41510
C          1.82970        3.87570       -1.45120
C          1.01760        2.85380       -1.93910
C         -0.24310        2.63710       -1.36810
C         -0.76630        3.58700       -0.48280
C          0.04970        4.61730       -0.01460
O         -0.86030        1.45040       -1.62860
C         -1.36530        0.71390       -0.50580
C          1.52120        4.80280        2.69780
H          0.80000        4.07690        2.27340
O          0.93060        6.08360        2.73400
C          1.81650        4.33810        4.12860
N          0.53130        4.06210        4.76480
C          0.06540        2.67980        4.55530
H          0.44680        2.34200        3.57880
C          0.56990        1.68590        5.60600
C          0.32320        2.18780        7.02910
C          0.90950        3.59100        7.20600
C          0.33790        4.52910        6.14010
C         -1.46700        2.61510        4.37220
O         -2.11920        1.64110        4.71750
N         -1.96840        3.69140        3.71550
C         -3.36640        3.88390        3.29930
C         -3.41270        5.21280        2.53650
C         -3.79600        2.73280        2.37510
C         -4.27730        3.94410        4.53640
C          3.94070        0.63570       -0.58910
C          5.28520        0.39120       -1.28880
O          5.53190       -0.69080       -1.79390
N          6.13560        1.44650       -1.30190
H         -0.60970        1.69040        1.28330
H         -0.87910       -0.03070        1.44310
H          1.42320        1.28760       -0.11100
H          1.15290       -0.44650       -0.06080
H          3.53550        0.49310        2.71970
H          2.50890        2.72870        2.12710
H          3.32250        5.63070       -0.17150
H          2.00610        6.51140        0.64720
H          2.85570        3.96660       -1.81330
H          1.38220        2.14010       -2.68100
H         -1.78210        3.47250       -0.10150
H         -0.33400        5.31570        0.73190
H         -1.46230       -0.31490       -0.88450
H         -2.38130        1.06230       -0.24570
H          0.31470        6.06730        3.48240
H          2.49890        3.46740        4.14890
H          2.33120        5.15540        4.65770
H          0.08140        0.72060        5.42330
H          1.65020        1.53100        5.44550
H         -0.76390        2.21600        7.21880
H          0.75380        1.48750        7.76240
H          2.01040        3.55370        7.11380
H          0.68790        3.99420        8.20820
H          0.76530        5.54080        6.22400
H         -0.75060        4.63030        6.30460
H         -1.31090        4.45530        3.60110
H         -4.43660        5.42470        2.19600
H         -2.75820        5.18340        1.65050
H         -3.09100        6.04970        3.17830
H         -3.72290        1.77270        2.90180
H         -3.14590        2.69300        1.48770
H         -4.83350        2.87980        2.03810
H         -4.20350        3.00720        5.10480
H         -5.32600        4.09590        4.23700
H         -3.98090        4.77800        5.19240
H          3.48670       -0.35690       -0.50290
H          3.30580        1.23960       -1.25420
H          5.84140        2.35570       -0.93610
H          7.01560        1.33450       -1.79100
