82
rmsd225.gzmat
C          0.00000        0.00000        0.00000
C          1.53340        0.00000        0.00000
C          2.02220        0.00000        1.42120
O          1.35240       -0.44580        2.33470
N          3.26870        0.49680        1.79470
C          4.28890        1.22550        1.04980
H          5.27710        1.00150        1.56810
C          4.09800        2.76300        1.19080
O          5.07360        3.49500        1.17570
N          2.84410        3.25090        1.41160
C          2.60740        4.68840        1.62600
H          3.55800        5.17380        1.97540
C          2.13080        5.40970        0.33590
C          1.42340        4.44470       -0.55600
C          2.12240        3.82590       -1.59940
C          1.59520        2.70410       -2.22220
C          0.35890        2.21450       -1.77610
C         -0.42970        2.92820       -0.87350
C          0.11280        4.05780       -0.26910
O          0.02480        0.99680       -2.28990
C         -0.60140        0.07130       -1.40370
C          1.52770        4.78470        2.74240
H          0.55900        4.35240        2.40270
O          1.26790        6.15940        2.92060
C          2.02470        4.12160        4.05000
N          0.96130        4.34840        5.04710
C         -0.09390        3.31140        4.97850
H         -0.26380        3.03360        3.90140
C          0.19320        2.02050        5.76040
C          0.69090        2.30430        7.17940
C          1.87990        3.26760        7.14270
C          1.46000        4.55740        6.42020
C         -1.38840        3.99740        5.47210
O         -2.07600        3.54400        6.36090
N         -1.71720        5.12160        4.74390
C         -2.84490        6.00890        5.10460
C         -2.94340        7.08410        4.00270
C         -4.14890        5.20020        5.16080
C         -2.56650        6.67530        6.46470
C          4.43240        0.84840       -0.42620
C          5.87650        0.85760       -0.91440
O          6.34940       -0.09340       -1.50250
N          6.61470        1.99720       -0.70890
H         -0.37350        0.83560        0.62710
H         -0.37000       -0.91600        0.51380
H          1.91510        0.86630       -0.57400
H          1.91500       -0.90270       -0.52640
H          3.48420        0.38780        2.79020
H          2.02470        2.66960        1.29420
H          3.00460        5.86530       -0.17190
H          1.48430        6.27140        0.61350
H          3.10140        4.20230       -1.89690
H          2.12700        2.18920       -3.01870
H         -1.43810        2.60240       -0.63890
H         -0.47730        4.62640        0.45090
H         -0.44910       -0.87120       -1.96950
H         -1.68020        0.30910       -1.37060
H          1.32290        6.40160        3.87060
H          2.25840        3.04890        3.88890
H          2.97680        4.59300        4.37540
H         -0.73170        1.40810        5.80710
H          0.93440        1.41050        5.20960
H         -0.13590        2.73790        7.78070
H          0.97090        1.36090        7.68190
H          2.74070        2.80040        6.63270
H          2.21770        3.50270        8.16780
H          2.29670        5.28500        6.39480
H          0.63210        5.04960        6.98620
H         -1.00280        5.52260        4.13940
H         -3.75710        7.78350        4.21980
H         -3.14900        6.63270        3.02550
H         -2.02150        7.66860        3.91740
H         -4.10740        4.44190        5.95860
H         -4.33210        4.66670        4.22260
H         -5.00940        5.84180        5.36460
H         -2.47890        5.91480        7.25420
H         -3.37720        7.35170        6.74810
H         -1.63530        7.24870        6.45180
H          4.05190       -0.18720       -0.59860
H          3.82790        1.50710       -1.08530
H          6.26980        2.76480       -0.15770
H          7.56880        2.03710       -1.00700
