rmsd106.gzmat
 OpenBabel08211713413D

 82 84  0  0  1  0  0  0  0  0999 V2000
    0.0000    0.0000    0.0000 C   0  0  0  0  0  0  0  0  0  0  0  0
    1.5332    0.0000    0.0000 C   0  0  0  0  0  0  0  0  0  0  0  0
    2.0215    0.0000    1.4213 C   0  0  0  0  0  0  0  0  0  0  0  0
    1.3508   -0.4478    2.3329 O   0  0  0  0  0  0  0  0  0  0  0  0
    3.2690    0.4911    1.8007 N   0  0  0  0  0  0  0  0  0  0  0  0
    4.3092    1.2004    1.0657 C   0  0  2  0  0  0  0  0  0  0  0  0
    5.2953    0.8997    1.5476 H   0  0  0  0  0  0  0  0  0  0  0  0
    4.1953    2.7346    1.2780 C   0  0  0  0  0  0  0  0  0  0  0  0
    5.2251    3.3994    1.2926 O   0  0  0  0  0  0  0  0  0  0  0  0
    2.9848    3.3158    1.4772 N   0  0  0  0  0  0  0  0  0  0  0  0
    2.8890    4.7760    1.6394 C   0  0  1  0  0  0  0  0  0  0  0  0
    3.9396    5.1918    1.7043 H   0  0  0  0  0  0  0  0  0  0  0  0
    2.1725    5.4696    0.4477 C   0  0  0  0  0  0  0  0  0  0  0  0
    1.4733    4.4717   -0.4150 C   0  0  0  0  0  0  0  0  0  0  0  0
    2.1368    3.9075   -1.5097 C   0  0  0  0  0  0  0  0  0  0  0  0
    1.5994    2.8032   -2.1561 C   0  0  0  0  0  0  0  0  0  0  0  0
    0.3857    2.2818   -1.6863 C   0  0  0  0  0  0  0  0  0  0  0  0
   -0.3670    2.9341   -0.7092 C   0  0  0  0  0  0  0  0  0  0  0  0
    0.1931    4.0337   -0.0688 C   0  0  0  0  0  0  0  0  0  0  0  0
    0.0399    1.0886   -2.2470 O   0  0  0  0  0  0  0  0  0  0  0  0
   -0.5991    0.1361   -1.4003 C   0  0  0  0  0  0  0  0  0  0  0  0
    2.1905    5.0455    2.9968 C   0  0  2  0  0  0  0  0  0  0  0  0
    2.4317    4.2460    3.7328 H   0  0  0  0  0  0  0  0  0  0  0  0
    0.8014    5.0274    2.7367 O   0  0  0  0  0  0  0  0  0  0  0  0
    2.5875    6.4359    3.5507 C   0  0  0  0  0  0  0  0  0  0  0  0
    4.0314    6.3447    3.8615 N   0  0  0  0  0  0  0  0  0  0  0  0
    4.8039    7.4769    3.3103 C   0  0  1  0  0  0  0  0  0  0  0  0
    4.4867    7.6404    2.2456 H   0  0  0  0  0  0  0  0  0  0  0  0
    4.6296    8.7858    4.1042 C   0  0  0  0  0  0  0  0  0  0  0  0
    4.9251    8.5690    5.5924 C   0  0  0  0  0  0  0  0  0  0  0  0
    4.0824    7.4191    6.1527 C   0  0  0  0  0  0  0  0  0  0  0  0
    4.2917    6.1522    5.3037 C   0  0  0  0  0  0  0  0  0  0  0  0
    6.3033    7.0980    3.2670 C   0  0  0  0  0  0  0  0  0  0  0  0
    7.1545    7.9269    3.5344 O   0  0  0  0  0  0  0  0  0  0  0  0
    6.6119    5.8290    2.8595 N   0  0  0  0  0  0  0  0  0  0  0  0
    8.0106    5.3373    2.8196 C   0  0  0  0  0  0  0  0  0  0  0  0
    7.9688    3.8589    2.3864 C   0  0  0  0  0  0  0  0  0  0  0  0
    8.8180    6.1566    1.7984 C   0  0  0  0  0  0  0  0  0  0  0  0
    8.6465    5.4478    4.2169 C   0  0  0  0  0  0  0  0  0  0  0  0
    4.4039    0.8931   -0.4302 C   0  0  0  0  0  0  0  0  0  0  0  0
    5.8250    0.9075   -0.9802 C   0  0  0  0  0  0  0  0  0  0  0  0
    6.2475   -0.0159   -1.6466 O   0  0  0  0  0  0  0  0  0  0  0  0
    6.5970    2.0221   -0.7591 N   0  0  0  0  0  0  0  0  0  0  0  0
   -0.3720    0.8063    0.6659 H   0  0  0  0  0  0  0  0  0  0  0  0
   -0.3737   -0.9349    0.4731 H   0  0  0  0  0  0  0  0  0  0  0  0
    1.9137    0.8705   -0.5698 H   0  0  0  0  0  0  0  0  0  0  0  0
    1.9136   -0.9026   -0.5270 H   0  0  0  0  0  0  0  0  0  0  0  0
    3.4752    0.3837    2.7994 H   0  0  0  0  0  0  0  0  0  0  0  0
    2.1164    2.7997    1.4540 H   0  0  0  0  0  0  0  0  0  0  0  0
    2.9168    6.0460   -0.1379 H   0  0  0  0  0  0  0  0  0  0  0  0
    1.4536    6.2244    0.8332 H   0  0  0  0  0  0  0  0  0  0  0  0
    3.0948    4.3141   -1.8339 H   0  0  0  0  0  0  0  0  0  0  0  0
    2.1048    2.3294   -2.9939 H   0  0  0  0  0  0  0  0  0  0  0  0
   -1.3581    2.5818   -0.4423 H   0  0  0  0  0  0  0  0  0  0  0  0
   -0.3514    4.5361    0.7344 H   0  0  0  0  0  0  0  0  0  0  0  0
   -0.4575   -0.7830   -2.0050 H   0  0  0  0  0  0  0  0  0  0  0  0
   -1.6748    0.3851   -1.3562 H   0  0  0  0  0  0  0  0  0  0  0  0
    0.2879    5.0149    3.5668 H   0  0  0  0  0  0  0  0  0  0  0  0
    2.3655    7.2204    2.7983 H   0  0  0  0  0  0  0  0  0  0  0  0
    1.9636    6.6875    4.4316 H   0  0  0  0  0  0  0  0  0  0  0  0
    5.3172    9.5569    3.6982 H   0  0  0  0  0  0  0  0  0  0  0  0
    3.6050    9.1731    3.9678 H   0  0  0  0  0  0  0  0  0  0  0  0
    6.0067    8.3535    5.7246 H   0  0  0  0  0  0  0  0  0  0  0  0
    4.7343    9.4988    6.1576 H   0  0  0  0  0  0  0  0  0  0  0  0
    3.0149    7.7013    6.1696 H   0  0  0  0  0  0  0  0  0  0  0  0
    4.3609    7.2177    7.2028 H   0  0  0  0  0  0  0  0  0  0  0  0
    3.6562    5.3206    5.6727 H   0  0  0  0  0  0  0  0  0  0  0  0
    5.3476    5.8045    5.3988 H   0  0  0  0  0  0  0  0  0  0  0  0
    5.8865    5.1487    2.6486 H   0  0  0  0  0  0  0  0  0  0  0  0
    8.9715    3.4229    2.3931 H   0  0  0  0  0  0  0  0  0  0  0  0
    7.5614    3.7547    1.3740 H   0  0  0  0  0  0  0  0  0  0  0  0
    7.3369    3.2592    3.0517 H   0  0  0  0  0  0  0  0  0  0  0  0
    8.8823    7.2112    2.1075 H   0  0  0  0  0  0  0  0  0  0  0  0
    8.3497    6.1377    0.8098 H   0  0  0  0  0  0  0  0  0  0  0  0
    9.8379    5.7765    1.7029 H   0  0  0  0  0  0  0  0  0  0  0  0
    8.6686    6.4953    4.5541 H   0  0  0  0  0  0  0  0  0  0  0  0
    9.6775    5.0848    4.2107 H   0  0  0  0  0  0  0  0  0  0  0  0
    8.0858    4.8761    4.9607 H   0  0  0  0  0  0  0  0  0  0  0  0
    4.0057   -0.1307   -0.6345 H   0  0  0  0  0  0  0  0  0  0  0  0
    3.7834    1.5873   -1.0384 H   0  0  0  0  0  0  0  0  0  0  0  0
    6.3044    2.7587   -0.1376 H   0  0  0  0  0  0  0  0  0  0  0  0
    7.5362    2.0524   -1.1025 H   0  0  0  0  0  0  0  0  0  0  0  0
  1  2  1  0  0  0  0
  1 45  1  0  0  0  0
  1 44  1  0  0  0  0
  2  3  1  0  0  0  0
  3  5  1  0  0  0  0
  3  4  2  0  0  0  0
  5 48  1  0  0  0  0
  6  8  1  0  0  0  0
  6  7  1  1  0  0  0
  6  5  1  0  0  0  0
  8  9  2  0  0  0  0
  8 10  1  0  0  0  0
 10 11  1  0  0  0  0
 11 12  1  1  0  0  0
 11 22  1  0  0  0  0
 13 51  1  0  0  0  0
 13 11  1  0  0  0  0
 14 19  1  0  0  0  0
 14 13  1  0  0  0  0
 15 14  2  0  0  0  0
 16 17  2  0  0  0  0
 16 15  1  0  0  0  0
 17 18  1  0  0  0  0
 18 54  1  0  0  0  0
 18 19  2  0  0  0  0
 19 55  1  0  0  0  0
 20 17  1  0  0  0  0
 20 21  1  0  0  0  0
 21 57  1  0  0  0  0
 21  1  1  0  0  0  0
 22 25  1  0  0  0  0
 22 23  1  1  0  0  0
 24 22  1  0  0  0  0
 24 58  1  0  0  0  0
 25 26  1  0  0  0  0
 25 60  1  0  0  0  0
 26 32  1  0  0  0  0
 27 28  1  6  0  0  0
 27 26  1  0  0  0  0
 27 29  1  0  0  0  0
 29 30  1  0  0  0  0
 30 63  1  0  0  0  0
 30 31  1  0  0  0  0
 30 64  1  0  0  0  0
 31 65  1  0  0  0  0
 31 66  1  0  0  0  0
 32 68  1  0  0  0  0
 32 67  1  0  0  0  0
 32 31  1  0  0  0  0
 33 27  1  0  0  0  0
 33 34  2  0  0  0  0
 35 33  1  0  0  0  0
 36 35  1  0  0  0  0
 36 39  1  0  0  0  0
 37 70  1  0  0  0  0
 37 36  1  0  0  0  0
 37 72  1  0  0  0  0
 38 73  1  0  0  0  0
 38 36  1  0  0  0  0
 39 76  1  0  0  0  0
 39 78  1  0  0  0  0
 40  6  1  0  0  0  0
 41 43  1  0  0  0  0
 41 40  1  0  0  0  0
 42 41  2  0  0  0  0
 43 81  1  0  0  0  0
 46  2  1  0  0  0  0
 47  2  1  0  0  0  0
 49 10  1  0  0  0  0
 50 13  1  0  0  0  0
 52 15  1  0  0  0  0
 53 16  1  0  0  0  0
 56 21  1  0  0  0  0
 59 25  1  0  0  0  0
 61 29  1  0  0  0  0
 62 29  1  0  0  0  0
 69 35  1  0  0  0  0
 71 37  1  0  0  0  0
 74 38  1  0  0  0  0
 75 38  1  0  0  0  0
 77 39  1  0  0  0  0
 79 40  1  0  0  0  0
 80 40  1  0  0  0  0
 82 43  1  0  0  0  0
M  END
$$$$
