82
rmsd103.gzmat
C          0.00000        0.00000        0.00000
C          1.53320        0.00000        0.00000
C          2.02160        0.00000        1.42160
O          1.34270       -0.42800        2.33730
N          3.28390        0.45770        1.79160
C          4.29920        1.20830        1.06170
H          5.29030        0.95190        1.55850
C          4.11420        2.73920        1.27000
O          5.09740        3.45250        1.37490
N          2.84940        3.23370        1.39110
C          2.60270        4.66150        1.64700
H          3.55430        5.15360        1.98970
C          2.08660        5.39880        0.37950
C          1.37370        4.44070       -0.51620
C          2.06700        3.84990       -1.58010
C          1.54930        2.72970       -2.21330
C          0.32570        2.21590       -1.75980
C         -0.46200        2.90330       -0.83590
C          0.07340        4.02890       -0.21760
O          0.00100        1.00210       -2.28660
C         -0.60170        0.05840       -1.40260
C          1.54510        4.74870        2.78430
H          0.53950        4.43790        2.42420
O          1.48190        6.12650        3.09150
C          1.98330        3.94720        4.03000
N          0.95090        4.10710        5.08000
C         -0.24830        3.27680        4.81020
H         -0.52340        3.39270        3.72530
C         -0.07670        1.77790        5.11360
C          0.49460        1.54770        6.51470
C          1.78290        2.35330        6.70710
C          1.50460        3.83960        6.42860
C         -1.45580        3.83020        5.60040
O         -2.40750        3.11930        5.85670
N         -1.42290        5.16890        5.90830
C         -2.50880        5.85700        6.64140
C         -2.08650        7.33220        6.80560
C         -3.81110        5.77380        5.82920
C         -2.69770        5.21270        8.02520
C          4.42200        0.89700       -0.43010
C          5.84730        0.95650       -0.96560
O          6.25680        0.11850       -1.74370
N          6.64940        2.00090       -0.57580
H         -0.37270        0.84080        0.62130
H         -0.37320       -0.91060        0.52110
H          1.91480        0.86470       -0.57690
H          1.91480       -0.90380       -0.52460
H          3.49550        0.34760        2.78810
H          2.03570        2.66490        1.19680
H          2.94200        5.87730       -0.13860
H          1.43610        6.24590        0.68900
H          3.03490        4.24870       -1.88510
H          2.07770        2.23420       -3.02460
H         -1.46350        2.55910       -0.59570
H         -0.51670        4.57300        0.52050
H         -0.42740       -0.87770       -1.97210
H         -1.68610        0.26950       -1.36860
H          1.01130        6.23710        3.94860
H          2.17750        2.88560        3.77340
H          2.94740        4.36420        4.40050
H         -1.06100        1.26920        5.02170
H          0.57290        1.30590        4.35100
H         -0.25690        1.83600        7.27680
H          0.68510        0.46970        6.67230
H          2.57530        1.97530        6.03700
H          2.16710        2.22780        7.73520
H          2.42600        4.44450        6.56230
H          0.76720        4.22520        7.17000
H         -0.57980        5.69360        5.71920
H         -2.86430        7.89670        7.33150
H         -1.93190        7.81850        5.83660
H         -1.16490        7.42940        7.38850
H         -4.13200        4.72650        5.71400
H         -3.68640        6.18590        4.82350
H         -4.62200        6.31490        6.32320
H         -2.99180        4.15630        7.92480
H         -3.48220        5.71920        8.59390
H         -1.77670        5.23970        8.61380
H          4.05550       -0.13810       -0.63630
H          3.79130        1.57010       -1.05120
H          6.34540        2.70330        0.07710
H          7.58710        2.06490       -0.91830
