rmsd64.gzmat
 OpenBabel08211713373D

 45 48  0  0  0  0  0  0  0  0999 V2000
    0.0000    0.0000    0.0000 S   0  0  0  0  0  0  0  0  0  0  0  0
    1.4395    0.0000    0.0000 O   0  0  0  0  0  0  0  0  0  0  0  0
   -0.7660    0.0000   -1.2201 O   0  0  0  0  0  0  0  0  0  0  0  0
   -0.4100    1.4367    0.9181 N   0  0  0  0  0  0  0  0  0  0  0  0
   -1.6919    1.8345    1.2645 C   0  0  0  0  0  0  0  0  0  0  0  0
   -1.9306    2.5892    2.4418 C   0  0  0  0  0  0  0  0  0  0  0  0
   -3.2459    2.9665    2.7703 C   0  0  0  0  0  0  0  0  0  0  0  0
   -4.3158    2.6125    1.9677 C   0  0  0  0  0  0  0  0  0  0  0  0
   -4.0749    1.8821    0.7907 C   0  0  0  0  0  0  0  0  0  0  0  0
   -2.7959    1.5051    0.4399 C   0  0  0  0  0  0  0  0  0  0  0  0
   -5.7087    3.0028    2.3239 C   0  0  0  0  0  0  0  0  0  0  0  0
   -0.8750    2.9871    3.3354 C   0  0  0  0  0  0  0  0  0  0  0  0
   -1.2853    3.7037    4.4798 O   0  0  0  0  0  0  0  0  0  0  0  0
   -0.1193    3.9782    5.1636 C   0  0  0  0  0  0  0  0  0  0  0  0
    0.9700    3.4233    4.4325 C   0  0  0  0  0  0  0  0  0  0  0  0
    0.4330    2.8082    3.2877 N   0  0  0  0  0  0  0  0  0  0  0  0
    2.2693    3.5649    4.9028 C   0  0  0  0  0  0  0  0  0  0  0  0
    2.4345    4.2628    6.0982 C   0  0  0  0  0  0  0  0  0  0  0  0
    1.3478    4.8014    6.8030 C   0  0  0  0  0  0  0  0  0  0  0  0
    0.0347    4.6709    6.3480 C   0  0  0  0  0  0  0  0  0  0  0  0
   -0.6031   -1.2764    1.0339 C   0  0  0  0  0  0  0  0  0  0  0  0
   -1.7809   -1.9451    0.7000 C   0  0  0  0  0  0  0  0  0  0  0  0
   -2.2779   -2.9398    1.5360 C   0  0  0  0  0  0  0  0  0  0  0  0
   -1.5965   -3.2750    2.7107 C   0  0  0  0  0  0  0  0  0  0  0  0
   -0.4132   -2.6069    3.0381 C   0  0  0  0  0  0  0  0  0  0  0  0
    0.0826   -1.6113    2.2008 C   0  0  0  0  0  0  0  0  0  0  0  0
   -2.1423   -4.3293    3.6091 C   0  0  0  0  0  0  0  0  0  0  0  0
    0.3660    1.8797    1.4371 H   0  0  0  0  0  0  0  0  0  0  0  0
   -3.4224    3.5481    3.6788 H   0  0  0  0  0  0  0  0  0  0  0  0
   -4.9135    1.6219    0.1439 H   0  0  0  0  0  0  0  0  0  0  0  0
   -2.6383    0.9834   -0.5089 H   0  0  0  0  0  0  0  0  0  0  0  0
   -5.7634    3.5614    3.2685 H   0  0  0  0  0  0  0  0  0  0  0  0
   -6.3570    2.1220    2.4364 H   0  0  0  0  0  0  0  0  0  0  0  0
   -6.1555    3.6427    1.5486 H   0  0  0  0  0  0  0  0  0  0  0  0
    3.1110    3.1498    4.3539 H   0  0  0  0  0  0  0  0  0  0  0  0
    3.4394    4.3974    6.4975 H   0  0  0  0  0  0  0  0  0  0  0  0
    1.5355    5.3399    7.7318 H   0  0  0  0  0  0  0  0  0  0  0  0
   -0.8092    5.0892    6.8862 H   0  0  0  0  0  0  0  0  0  0  0  0
   -2.3270   -1.7001   -0.2193 H   0  0  0  0  0  0  0  0  0  0  0  0
   -3.1987   -3.4565    1.2771 H   0  0  0  0  0  0  0  0  0  0  0  0
    0.1209   -2.8618    3.9507 H   0  0  0  0  0  0  0  0  0  0  0  0
    1.0144   -1.1022    2.4755 H   0  0  0  0  0  0  0  0  0  0  0  0
   -2.9977   -3.9458    4.1888 H   0  0  0  0  0  0  0  0  0  0  0  0
   -1.4045   -4.6969    4.3356 H   0  0  0  0  0  0  0  0  0  0  0  0
   -2.5016   -5.2051    3.0491 H   0  0  0  0  0  0  0  0  0  0  0  0
  1  4  1  0  0  0  0
  1 21  1  0  0  0  0
  2  1  2  0  0  0  0
  3  1  2  0  0  0  0
  4  5  1  0  0  0  0
  4 28  1  0  0  0  0
  5  6  2  0  0  0  0
  6  7  1  0  0  0  0
  6 12  1  0  0  0  0
  7 29  1  0  0  0  0
  8 11  1  0  0  0  0
  8  7  2  0  0  0  0
  9  8  1  0  0  0  0
 10  9  2  0  0  0  0
 10  5  1  0  0  0  0
 11 33  1  0  0  0  0
 11 32  1  0  0  0  0
 12 13  1  0  0  0  0
 13 14  1  0  0  0  0
 14 20  2  0  0  0  0
 15 17  1  0  0  0  0
 15 14  1  0  0  0  0
 16 12  2  0  0  0  0
 16 15  2  0  0  0  0
 17 18  2  0  0  0  0
 18 36  1  0  0  0  0
 18 19  1  0  0  0  0
 19 37  1  0  0  0  0
 20 19  1  0  0  0  0
 20 38  1  0  0  0  0
 21 26  1  0  0  0  0
 22 21  2  0  0  0  0
 22 23  1  0  0  0  0
 23 24  2  0  0  0  0
 24 25  1  0  0  0  0
 24 27  1  0  0  0  0
 25 41  1  0  0  0  0
 26 42  1  0  0  0  0
 26 25  2  0  0  0  0
 27 43  1  0  0  0  0
 27 44  1  0  0  0  0
 30  9  1  0  0  0  0
 31 10  1  0  0  0  0
 34 11  1  0  0  0  0
 35 17  1  0  0  0  0
 39 22  1  0  0  0  0
 40 23  1  0  0  0  0
 45 27  1  0  0  0  0
M  RAD  1  19   2
M  END
$$$$
