45
rmsd123.gzmat
S          0.00000        0.00000        0.00000
O          1.44040        0.00000        0.00000
O         -0.76470        0.00000       -1.21950
N         -0.56650        1.43900        0.82450
C         -0.12620        1.93710        2.03730
C         -0.89100        2.90160        2.74580
C         -0.44290        3.35950        3.99880
C          0.73480        2.89450        4.55550
C          1.50500        1.96160        3.83960
C          1.09320        1.49620        2.60900
C          1.20300        3.38130        5.88340
C         -2.12260        3.44680        2.23860
O         -2.74140        4.41000        3.06390
C         -3.87630        4.78990        2.37900
C         -3.93030        4.05530        1.16020
N         -2.79760        3.22180        1.12540
C         -4.98120        4.25530        0.27390
C         -5.94960        5.18790        0.64250
C         -5.87770        5.89990        1.84910
C         -4.82960        5.71630        2.75250
C         -0.55180       -1.28370        1.05370
C         -1.91340       -1.57100        1.15150
C         -2.35170       -2.58610        1.99600
C         -1.42940       -3.32820        2.74160
C         -0.06590       -3.03890        2.63830
C          0.37040       -2.01950        1.79690
C         -1.90650       -4.41330        3.64250
H         -1.37350        1.91990        0.39170
H         -1.03970        4.09790        4.54110
H          2.44660        1.61100        4.26360
H          1.74610        0.81210        2.06170
H          0.45010        3.99420        6.39790
H          2.10620        4.00230        5.78360
H          1.45040        2.54890        6.55700
H         -5.03510        3.70670       -0.66310
H         -6.78870        5.37280       -0.02780
H         -6.66230        6.61840        2.08580
H         -4.76650        6.26640        3.68540
H         -2.65300       -1.00910        0.56910
H         -3.41470       -2.80250        2.07850
H          0.65680       -3.60970        3.21610
H          1.44540       -1.81100        1.72850
H         -1.08970       -5.02850        4.04390
H         -2.59660       -5.09850        3.12690
H         -2.45090       -4.00010        4.50680
