45

S          0.42770        0.41260       -0.15950
O          1.69710       -0.22470        0.18530
O         -0.05790        0.51320       -1.53230
N          0.49860        2.02750        0.40820
C          0.85080        2.21530        1.76320
C         -0.11300        2.54990        2.74760
C          0.28480        2.68310        4.09070
C          1.60570        2.47740        4.48780
C          2.54360        2.12750        3.49890
C          2.17760        2.00420        2.16320
C          2.02680        2.63300        5.92640
C         -1.51860        2.68220        2.39330
O         -2.44840        2.54500        3.39520
C         -3.66140        2.62230        2.76910
C         -3.41460        2.82320        1.39860
N         -2.03970        2.86230        1.21100
C         -4.48270        2.90610        0.49950
C         -5.77120        2.77850        1.02330
C         -5.99360        2.57940        2.40050
C         -4.93320        2.49790        3.31120
C         -0.86100       -0.29120        0.85910
C         -2.18450       -0.22310        0.41500
C         -3.21010       -0.57120        1.28840
C         -2.93450       -0.98070        2.60510
C         -1.59580       -1.06300        3.01450
C         -0.55310       -0.72150        2.15070
C         -4.06420       -1.30590        3.54600
H         -0.39820        2.47360        0.17550
H         -0.47190        2.94180        4.83320
H          3.58530        1.95670        3.78380
H          2.90420        1.72460        1.40140
H          1.16040        2.77920        6.58750
H          2.69530        3.50130        6.05250
H          2.57990        1.74750        6.27860
H         -4.30480        3.05640       -0.56640
H         -6.63070        2.83500        0.35170
H         -7.01810        2.48660        2.76720
H         -5.09240        2.34190        4.37890
H         -2.39320        0.12570       -0.59710
H         -4.24800       -0.50000        0.95340
H         -1.36370       -1.38680        4.03200
H          0.48750       -0.77410        2.47240
H         -3.69510       -1.59050        4.54160
H         -4.67770       -2.13610        3.15900
H         -4.73270       -0.43720        3.66160
