45
rmsd124.gzmat
S          0.00000        0.00000        0.00000
O          1.44030        0.00000        0.00000
O         -0.76610        0.00000       -1.21880
N         -0.56200        1.43790        0.83050
C         -0.14740        1.89340        2.06980
C         -0.95270        2.78810        2.82260
C         -0.51900        3.21440        4.09180
C          0.68220        2.78070        4.62380
C          1.48870        1.91190        3.86820
C          1.09220        1.48100        2.62000
C          1.14100        3.23640        5.96580
C         -2.21220        3.29250        2.34320
O         -2.89910        4.14640        3.23240
C         -4.04560        4.51270        2.55930
C         -4.04010        3.87540        1.28550
N         -2.85940        3.11470        1.20520
C         -5.08780        4.08560        0.39780
C         -6.11210        4.93200        0.81970
C         -6.09880        5.54820        2.07990
C         -5.05620        5.35090        2.98640
C         -0.55400       -1.27880        1.05790
C         -1.90840       -1.61010        1.10360
C         -2.35130       -2.61070        1.96310
C         -1.44190       -3.28810        2.78220
C         -0.08450       -2.95940        2.72610
C          0.35690       -1.95870        1.86520
C         -1.92060       -4.36220        3.69490
H         -1.37740        1.91510        0.41070
H         -1.14470        3.90280        4.66630
H          2.44650        1.58590        4.27530
H          1.77170        0.85050        2.04090
H          0.36840        3.79600        6.51060
H          2.01560        3.89920        5.88080
H          1.43070        2.39050        6.60470
H         -5.09710        3.60900       -0.57930
H         -6.95030        5.12390        0.15000
H         -6.92540        6.20230        2.35700
H         -5.03880        5.82670        3.96110
H         -2.63870       -1.09350        0.46920
H         -3.40760       -2.86670        1.99840
H          0.62900       -3.48550        3.35540
H          1.42680       -1.71940        1.83260
H         -1.21880       -4.56960        4.51450
H         -2.06110       -5.30820        3.14760
H         -2.88720       -4.11310        4.15770
