
     RDKit          3D

 45 48  0  0  0  0  0  0  0  0999 V2000
   -0.0274    0.4108   -0.2282 S   0  0  0  0  0  0  0  0  0  0  0  0
    1.4044    0.5663   -0.4669 O   0  0  0  0  0  0  0  0  0  0  0  0
   -0.9371   -0.1621   -1.2186 O   0  0  0  0  0  0  0  0  0  0  0  0
   -0.5927    1.9861    0.1298 N   0  0  0  0  0  0  0  0  0  0  0  0
   -1.9450    2.1091    0.5200 C   0  0  0  0  0  0  0  0  0  0  0  0
   -2.3172    2.3191    1.8718 C   0  0  0  0  0  0  0  0  0  0  0  0
   -3.6804    2.3896    2.2126 C   0  0  0  0  0  0  0  0  0  0  0  0
   -4.6839    2.2408    1.2555 C   0  0  0  0  0  0  0  0  0  0  0  0
   -4.2943    2.0144   -0.0776 C   0  0  0  0  0  0  0  0  0  0  0  0
   -2.9534    1.9550   -0.4412 C   0  0  0  0  0  0  0  0  0  0  0  0
   -6.1421    2.3263    1.6266 C   0  0  0  0  0  0  0  0  0  0  0  0
   -1.3053    2.3860    2.9158 C   0  0  0  0  0  0  0  0  0  0  0  0
   -1.6939    2.1139    4.2055 O   0  0  0  0  0  0  0  0  0  0  0  0
   -0.5423    2.1589    4.9415 C   0  0  0  0  0  0  0  0  0  0  0  0
    0.5074    2.4770    4.0601 C   0  0  0  0  0  0  0  0  0  0  0  0
   -0.0285    2.6207    2.7879 N   0  0  0  0  0  0  0  0  0  0  0  0
    1.8212    2.5523    4.5341 C   0  0  0  0  0  0  0  0  0  0  0  0
    2.0268    2.2986    5.8921 C   0  0  0  0  0  0  0  0  0  0  0  0
    0.9587    1.9840    6.7559 C   0  0  0  0  0  0  0  0  0  0  0  0
   -0.3608    1.9084    6.2945 C   0  0  0  0  0  0  0  0  0  0  0  0
   -0.2671   -0.4395    1.3256 C   0  0  0  0  0  0  0  0  0  0  0  0
   -1.5317   -0.9427    1.6408 C   0  0  0  0  0  0  0  0  0  0  0  0
   -1.7703   -1.4035    2.9355 C   0  0  0  0  0  0  0  0  0  0  0  0
   -0.7674   -1.3648    3.9172 C   0  0  0  0  0  0  0  0  0  0  0  0
    0.5031   -0.8838    3.5599 C   0  0  0  0  0  0  0  0  0  0  0  0
    0.7590   -0.4173    2.2725 C   0  0  0  0  0  0  0  0  0  0  0  0
   -1.0581   -1.7847    5.3333 C   0  0  0  0  0  0  0  0  0  0  0  0
    0.0489    2.3944    0.8216 H   0  0  0  0  0  0  0  0  0  0  0  0
   -3.9468    2.5528    3.2583 H   0  0  0  0  0  0  0  0  0  0  0  0
   -5.0611    1.8908   -0.8471 H   0  0  0  0  0  0  0  0  0  0  0  0
   -2.6546    1.7705   -1.4723 H   0  0  0  0  0  0  0  0  0  0  0  0
   -6.2785    2.3966    2.7153 H   0  0  0  0  0  0  0  0  0  0  0  0
   -6.6969    1.4439    1.2690 H   0  0  0  0  0  0  0  0  0  0  0  0
   -6.6167    3.2114    1.1705 H   0  0  0  0  0  0  0  0  0  0  0  0
    2.6448    2.7923    3.8600 H   0  0  0  0  0  0  0  0  0  0  0  0
    3.0394    2.3453    6.2986 H   0  0  0  0  0  0  0  0  0  0  0  0
    1.1648    1.7947    7.8116 H   0  0  0  0  0  0  0  0  0  0  0  0
   -1.1950    1.6650    6.9538 H   0  0  0  0  0  0  0  0  0  0  0  0
   -2.3133   -0.9618    0.8805 H   0  0  0  0  0  0  0  0  0  0  0  0
   -2.7602   -1.7888    3.1925 H   0  0  0  0  0  0  0  0  0  0  0  0
    1.2971   -0.8523    4.3100 H   0  0  0  0  0  0  0  0  0  0  0  0
    1.7344   -0.0142    1.9976 H   0  0  0  0  0  0  0  0  0  0  0  0
   -1.4272   -0.9233    5.9163 H   0  0  0  0  0  0  0  0  0  0  0  0
   -0.1546   -2.1552    5.8396 H   0  0  0  0  0  0  0  0  0  0  0  0
   -1.8294   -2.5679    5.3759 H   0  0  0  0  0  0  0  0  0  0  0  0
  1  2  2  0
  1  3  2  0
  1  4  1  0
  1 21  1  0
  4  5  1  0
  4 28  1  0
  5  6  1  0
  5 10  2  0
  6  7  2  0
  6 12  1  0
  7  8  1  0
  7 29  1  0
  8  9  2  0
  8 11  1  0
  9 10  1  0
  9 30  1  0
 10 31  1  0
 11 32  1  0
 11 33  1  0
 11 34  1  0
 12 13  1  0
 12 16  2  0
 13 14  1  0
 14 15  2  0
 14 20  1  0
 15 16  1  0
 15 17  1  0
 17 18  2  0
 17 35  1  0
 18 19  1  0
 18 36  1  0
 19 20  2  0
 19 37  1  0
 20 38  1  0
 21 22  2  0
 21 26  1  0
 22 23  1  0
 22 39  1  0
 23 24  2  0
 23 40  1  0
 24 25  1  0
 24 27  1  0
 25 26  2  0
 25 41  1  0
 26 42  1  0
 27 43  1  0
 27 44  1  0
 27 45  1  0
M  END

