rmsd119.gzmat
 OpenBabel08211713373D

 45 48  0  0  0  0  0  0  0  0999 V2000
    0.0000    0.0000    0.0000 S   0  0  0  0  0  0  0  0  0  0  0  0
    1.4399    0.0000    0.0000 O   0  0  0  0  0  0  0  0  0  0  0  0
   -0.7665    0.0000   -1.2182 O   0  0  0  0  0  0  0  0  0  0  0  0
   -0.5612    1.4422    0.8239 N   0  0  0  0  0  0  0  0  0  0  0  0
   -0.1208    1.9409    2.0360 C   0  0  0  0  0  0  0  0  0  0  0  0
   -0.8294    2.9826    2.6916 C   0  0  0  0  0  0  0  0  0  0  0  0
   -0.4027    3.4255    3.9573 C   0  0  0  0  0  0  0  0  0  0  0  0
    0.7036    2.8729    4.5774 C   0  0  0  0  0  0  0  0  0  0  0  0
    1.4294    1.8718    3.9094 C   0  0  0  0  0  0  0  0  0  0  0  0
    1.0376    1.4199    2.6669 C   0  0  0  0  0  0  0  0  0  0  0  0
    1.1450    3.3400    5.9214 C   0  0  0  0  0  0  0  0  0  0  0  0
   -1.9824    3.6232    2.1169 C   0  0  0  0  0  0  0  0  0  0  0  0
   -2.4841    4.7243    2.8430 O   0  0  0  0  0  0  0  0  0  0  0  0
   -3.5617    5.1733    2.1091 C   0  0  0  0  0  0  0  0  0  0  0  0
   -3.6993    4.3417    0.9610 C   0  0  0  0  0  0  0  0  0  0  0  0
   -2.6730    3.3814    1.0171 N   0  0  0  0  0  0  0  0  0  0  0  0
   -4.7178    4.5807    0.0471 C   0  0  0  0  0  0  0  0  0  0  0  0
   -5.5690    5.6516    0.3166 C   0  0  0  0  0  0  0  0  0  0  0  0
   -5.4129    6.4607    1.4517 C   0  0  0  0  0  0  0  0  0  0  0  0
   -4.3963    6.2386    2.3822 C   0  0  0  0  0  0  0  0  0  0  0  0
   -0.5497   -1.2802    1.0587 C   0  0  0  0  0  0  0  0  0  0  0  0
   -1.9106   -1.5666    1.1638 C   0  0  0  0  0  0  0  0  0  0  0  0
   -2.3464   -2.5694    2.0250 C   0  0  0  0  0  0  0  0  0  0  0  0
   -1.4234   -3.2931    2.7861 C   0  0  0  0  0  0  0  0  0  0  0  0
   -0.0592   -3.0090    2.6705 C   0  0  0  0  0  0  0  0  0  0  0  0
    0.3752   -2.0089    1.8062 C   0  0  0  0  0  0  0  0  0  0  0  0
   -1.8911   -4.3470    3.7276 C   0  0  0  0  0  0  0  0  0  0  0  0
   -1.3403    1.9477    0.3682 H   0  0  0  0  0  0  0  0  0  0  0  0
   -0.9591    4.2219    4.4589 H   0  0  0  0  0  0  0  0  0  0  0  0
    2.3201    1.4559    4.3819 H   0  0  0  0  0  0  0  0  0  0  0  0
    1.6600    0.6811    2.1591 H   0  0  0  0  0  0  0  0  0  0  0  0
    0.3718    3.9245    6.4393 H   0  0  0  0  0  0  0  0  0  0  0  0
    2.0352    3.9826    5.8434 H   0  0  0  0  0  0  0  0  0  0  0  0
    1.4040    2.5010    6.5815 H   0  0  0  0  0  0  0  0  0  0  0  0
   -4.8358    3.9571   -0.8356 H   0  0  0  0  0  0  0  0  0  0  0  0
   -6.3808    5.8691   -0.3773 H   0  0  0  0  0  0  0  0  0  0  0  0
   -6.1050    7.2877    1.6106 H   0  0  0  0  0  0  0  0  0  0  0  0
   -4.2679    6.8621    3.2603 H   0  0  0  0  0  0  0  0  0  0  0  0
   -2.6521   -1.0128    0.5761 H   0  0  0  0  0  0  0  0  0  0  0  0
   -3.4082   -2.7889    2.1072 H   0  0  0  0  0  0  0  0  0  0  0  0
    0.6633   -3.5680    3.2595 H   0  0  0  0  0  0  0  0  0  0  0  0
    1.4507   -1.8082    1.7231 H   0  0  0  0  0  0  0  0  0  0  0  0
   -1.1587   -5.1574    3.8513 H   0  0  0  0  0  0  0  0  0  0  0  0
   -2.8322   -4.8152    3.4056 H   0  0  0  0  0  0  0  0  0  0  0  0
   -2.0712   -3.9228    4.7291 H   0  0  0  0  0  0  0  0  0  0  0  0
  1  4  1  0  0  0  0
  1 21  1  0  0  0  0
  2  1  2  0  0  0  0
  3  1  2  0  0  0  0
  4  5  1  0  0  0  0
  5 10  2  0  0  0  0
  5  6  1  0  0  0  0
  6  7  2  0  0  0  0
  7 29  1  0  0  0  0
  7  8  1  0  0  0  0
  8 11  1  0  0  0  0
  9 30  1  0  0  0  0
  9  8  2  0  0  0  0
 10  9  1  0  0  0  0
 11 32  1  0  0  0  0
 11 34  1  0  0  0  0
 12  6  1  0  0  0  0
 12 13  1  0  0  0  0
 14 20  2  0  0  0  0
 14 13  1  0  0  0  0
 15 16  2  0  0  0  0
 15 14  1  0  0  0  0
 16 12  2  0  0  0  0
 17 18  2  0  0  0  0
 17 15  1  0  0  0  0
 18 19  1  0  0  0  0
 19 37  1  0  0  0  0
 19 20  1  0  0  0  0
 20 38  1  0  0  0  0
 21 22  2  0  0  0  0
 21 26  1  0  0  0  0
 22 23  1  0  0  0  0
 23 40  1  0  0  0  0
 23 24  2  0  0  0  0
 24 27  1  0  0  0  0
 25 24  1  0  0  0  0
 25 41  1  0  0  0  0
 26 25  2  0  0  0  0
 27 43  1  0  0  0  0
 27 45  1  0  0  0  0
 28  4  1  0  0  0  0
 31 10  1  0  0  0  0
 33 11  1  0  0  0  0
 35 17  1  0  0  0  0
 36 18  1  0  0  0  0
 39 22  1  0  0  0  0
 42 26  1  0  0  0  0
 44 27  1  0  0  0  0
M  RAD  1  19   2
M  END
$$$$
