
     RDKit          3D

 48 49  0  0  0  0  0  0  0  0999 V2000
   -0.5033   -0.3655    0.0318 C   0  0  0  0  0  0  0  0  0  0  0  0
    0.6898   -0.4814   -0.0980 O   0  0  0  0  0  0  0  0  0  0  0  0
   -1.3698   -0.4640   -0.9863 O   0  0  0  0  0  0  0  0  0  0  0  0
   -1.2183   -0.1551    1.3788 C   0  0  0  0  0  0  0  0  0  0  0  0
   -1.8317   -1.5044    1.7740 C   0  0  0  0  0  0  0  0  0  0  0  0
   -0.2455    0.3361    2.4493 C   0  0  0  0  0  0  0  0  0  0  0  0
   -2.3428    0.7157    1.2436 O   0  0  0  0  0  0  0  0  0  0  0  0
   -2.2499    1.9781    0.7493 C   0  0  0  0  0  0  0  0  0  0  0  0
   -1.0974    2.5660    0.2075 C   0  0  0  0  0  0  0  0  0  0  0  0
   -1.1524    3.8750   -0.2824 C   0  0  0  0  0  0  0  0  0  0  0  0
   -2.3318    4.6289   -0.2505 C   0  0  0  0  0  0  0  0  0  0  0  0
   -3.4771    4.0225    0.2962 C   0  0  0  0  0  0  0  0  0  0  0  0
   -3.4411    2.7225    0.7870 C   0  0  0  0  0  0  0  0  0  0  0  0
   -2.3562    6.0630   -0.7084 C   0  0  0  0  0  0  0  0  0  0  0  0
   -2.0891    7.1409    0.3599 C   0  0  0  0  0  0  0  0  0  0  0  0
   -2.1850    8.3213    0.0781 O   0  0  0  0  0  0  0  0  0  0  0  0
   -1.7382    6.6533    1.5903 N   0  0  0  0  0  0  0  0  0  0  0  0
   -1.4211    7.3545    2.7667 C   0  0  0  0  0  0  0  0  0  0  0  0
   -1.1036    6.5863    3.9029 C   0  0  0  0  0  0  0  0  0  0  0  0
   -0.7760    7.1964    5.1130 C   0  0  0  0  0  0  0  0  0  0  0  0
   -0.7687    8.5999    5.1778 C   0  0  0  0  0  0  0  0  0  0  0  0
   -1.0815    9.3789    4.0605 C   0  0  0  0  0  0  0  0  0  0  0  0
   -1.4095    8.7517    2.8479 C   0  0  0  0  0  0  0  0  0  0  0  0
   -1.0736   10.8857    4.1337 C   0  0  0  0  0  0  0  0  0  0  0  0
   -0.4352    6.3755    6.3316 C   0  0  0  0  0  0  0  0  0  0  0  0
   -0.8453   -0.6138   -1.7917 H   0  0  0  0  0  0  0  0  0  0  0  0
   -2.5448   -1.8312    1.0054 H   0  0  0  0  0  0  0  0  0  0  0  0
   -2.3663   -1.3894    2.7278 H   0  0  0  0  0  0  0  0  0  0  0  0
   -1.0464   -2.2649    1.8913 H   0  0  0  0  0  0  0  0  0  0  0  0
    0.1745    1.3208    2.2084 H   0  0  0  0  0  0  0  0  0  0  0  0
    0.5893   -0.3696    2.5496 H   0  0  0  0  0  0  0  0  0  0  0  0
   -0.7770    0.4080    3.4089 H   0  0  0  0  0  0  0  0  0  0  0  0
   -0.1513    2.0301    0.1580 H   0  0  0  0  0  0  0  0  0  0  0  0
   -0.2433    4.3181   -0.6980 H   0  0  0  0  0  0  0  0  0  0  0  0
   -4.4138    4.5847    0.3393 H   0  0  0  0  0  0  0  0  0  0  0  0
   -4.3304    2.2484    1.2058 H   0  0  0  0  0  0  0  0  0  0  0  0
   -3.3297    6.3258   -1.1503 H   0  0  0  0  0  0  0  0  0  0  0  0
   -1.6080    6.2388   -1.4978 H   0  0  0  0  0  0  0  0  0  0  0  0
   -1.7101    5.6422    1.6660 H   0  0  0  0  0  0  0  0  0  0  0  0
   -1.1155    5.4942    3.8321 H   0  0  0  0  0  0  0  0  0  0  0  0
   -0.5135    9.0908    6.1214 H   0  0  0  0  0  0  0  0  0  0  0  0
   -1.6570    9.3353    1.9642 H   0  0  0  0  0  0  0  0  0  0  0  0
   -2.0651   11.2992    3.8860 H   0  0  0  0  0  0  0  0  0  0  0  0
   -0.3601   11.3137    3.4105 H   0  0  0  0  0  0  0  0  0  0  0  0
   -0.7971   11.2425    5.1366 H   0  0  0  0  0  0  0  0  0  0  0  0
   -1.1250    6.5935    7.1637 H   0  0  0  0  0  0  0  0  0  0  0  0
    0.5824    6.6011    6.6914 H   0  0  0  0  0  0  0  0  0  0  0  0
   -0.4880    5.2969    6.1233 H   0  0  0  0  0  0  0  0  0  0  0  0
  1  2  2  0
  1  3  1  0
  1  4  1  0
  3 26  1  0
  4  5  1  0
  4  6  1  0
  4  7  1  0
  5 27  1  0
  5 28  1  0
  5 29  1  0
  6 30  1  0
  6 31  1  0
  6 32  1  0
  7  8  1  0
  8  9  2  0
  8 13  1  0
  9 10  1  0
  9 33  1  0
 10 11  2  0
 10 34  1  0
 11 12  1  0
 11 14  1  0
 12 13  2  0
 12 35  1  0
 13 36  1  0
 14 15  1  0
 14 37  1  0
 14 38  1  0
 15 16  2  0
 15 17  1  0
 17 18  1  0
 17 39  1  0
 18 19  2  0
 18 23  1  0
 19 20  1  0
 19 40  1  0
 20 21  2  0
 20 25  1  0
 21 22  1  0
 21 41  1  0
 22 23  2  0
 22 24  1  0
 23 42  1  0
 24 43  1  0
 24 44  1  0
 24 45  1  0
 25 46  1  0
 25 47  1  0
 25 48  1  0
M  END

