48
rmsd203.gzmat
C          0.00000        0.00000        0.00000
O          1.19940        0.00000        0.00000
O         -0.69080        0.00000       -1.17080
C         -0.97970        0.03660        1.17820
C         -1.44640        1.47040        1.37320
C         -2.12620       -0.94570        0.95370
O         -0.30410       -0.51370        2.30140
C          0.32770        0.35880        3.15540
C         -0.30980        0.61430        4.37260
C          0.35270        1.38270        5.32200
C          1.63070        1.88390        5.05390
C          2.24890        1.61590        3.83030
C          1.60050        0.84600        2.86940
C          2.33950        2.68940        6.09220
C          2.71360        1.88720        7.33070
O          2.73250        2.40030        8.42560
N          3.05640        0.55890        7.10490
C          3.41720       -0.37830        8.10030
C          3.56180       -1.71430        7.67960
C          3.93380       -2.68710        8.60260
C          4.15850       -2.34200        9.93840
C          4.00770       -1.01870       10.34950
C          3.63910       -0.02950        9.43400
C          4.22850       -0.63890       11.77530
C          4.11040       -4.10250        8.16440
H         -0.11290       -0.01860       -1.97270
H         -0.60850        2.16880        1.50680
H         -2.08610        1.56190        2.26190
H         -2.03040        1.82040        0.51010
H         -1.76020       -1.98170        0.90870
H         -2.65580       -0.73710        0.01410
H         -2.85200       -0.89900        1.77530
H         -1.29770        0.20340        4.56560
H         -0.12260        1.58920        6.28130
H          3.24430        2.00650        3.62030
H          2.08070        0.61280        1.91690
H          1.70600        3.54900        6.41770
H          3.26350        3.16530        5.69520
H          2.97300        0.19190        6.15690
H          3.38160       -1.98760        6.64530
H          4.44850       -3.10550       10.65290
H          3.52610        1.00060        9.77330
H          3.27670       -0.36460       12.25680
H          4.89480        0.23280       11.86100
H          4.67310       -1.44800       12.36820
H          3.75690       -4.81550        8.92210
H          5.17430       -4.32040        7.98290
H          3.57030       -4.32650        7.23500
