rmsd209.gzmat
 OpenBabel08211713363D

 48 49  0  0  0  0  0  0  0  0999 V2000
    0.0000    0.0000    0.0000 C   0  0  0  0  0  0  0  0  0  0  0  0
    1.1990    0.0000    0.0000 O   0  0  0  0  0  0  0  0  0  0  0  0
   -0.6901    0.0000   -1.1719 O   0  0  0  0  0  0  0  0  0  0  0  0
   -0.9880    0.0139    1.1703 C   0  0  0  0  0  0  0  0  0  0  0  0
   -1.7692    1.3184    1.1400 C   0  0  0  0  0  0  0  0  0  0  0  0
   -1.8813   -1.2238    1.0971 C   0  0  0  0  0  0  0  0  0  0  0  0
   -0.2792   -0.1957    2.3815 O   0  0  0  0  0  0  0  0  0  0  0  0
    0.4991    0.8331    2.8601 C   0  0  0  0  0  0  0  0  0  0  0  0
   -0.0788    1.7943    3.6911 C   0  0  0  0  0  0  0  0  0  0  0  0
    0.7454    2.7474    4.2789 C   0  0  0  0  0  0  0  0  0  0  0  0
    2.1247    2.7234    4.0500 C   0  0  0  0  0  0  0  0  0  0  0  0
    2.6849    1.7418    3.2288 C   0  0  0  0  0  0  0  0  0  0  0  0
    1.8732    0.7860    2.6265 C   0  0  0  0  0  0  0  0  0  0  0  0
    2.9983    3.7421    4.7065 C   0  0  0  0  0  0  0  0  0  0  0  0
    2.9602    3.6575    6.2257 C   0  0  0  0  0  0  0  0  0  0  0  0
    2.9561    4.6502    6.9151 O   0  0  0  0  0  0  0  0  0  0  0  0
    2.9585    2.3663    6.7440 N   0  0  0  0  0  0  0  0  0  0  0  0
    2.8629    2.0255    8.1123 C   0  0  0  0  0  0  0  0  0  0  0  0
    2.7515    2.9731    9.1315 C   0  0  0  0  0  0  0  0  0  0  0  0
    2.6434    2.5452   10.4571 C   0  0  0  0  0  0  0  0  0  0  0  0
    2.6542    1.1862   10.7649 C   0  0  0  0  0  0  0  0  0  0  0  0
    2.7729    0.2405    9.7422 C   0  0  0  0  0  0  0  0  0  0  0  0
    2.8750    0.6504    8.4167 C   0  0  0  0  0  0  0  0  0  0  0  0
    2.7742   -1.2132   10.0793 C   0  0  0  0  0  0  0  0  0  0  0  0
    2.5128    3.5659   11.5373 C   0  0  0  0  0  0  0  0  0  0  0  0
   -0.1105   -0.0019   -1.9728 H   0  0  0  0  0  0  0  0  0  0  0  0
   -1.1166    2.1986    1.2151 H   0  0  0  0  0  0  0  0  0  0  0  0
   -2.4859    1.3698    1.9702 H   0  0  0  0  0  0  0  0  0  0  0  0
   -2.3406    1.4150    0.2047 H   0  0  0  0  0  0  0  0  0  0  0  0
   -1.2929   -2.1479    1.1888 H   0  0  0  0  0  0  0  0  0  0  0  0
   -2.4314   -1.2620    0.1476 H   0  0  0  0  0  0  0  0  0  0  0  0
   -2.6107   -1.2306    1.9182 H   0  0  0  0  0  0  0  0  0  0  0  0
   -1.1481    1.7814    3.8845 H   0  0  0  0  0  0  0  0  0  0  0  0
    0.3143    3.5093    4.9294 H   0  0  0  0  0  0  0  0  0  0  0  0
    3.7594    1.7205    3.0494 H   0  0  0  0  0  0  0  0  0  0  0  0
    2.2927    0.0120    1.9808 H   0  0  0  0  0  0  0  0  0  0  0  0
    2.6836    4.7708    4.4079 H   0  0  0  0  0  0  0  0  0  0  0  0
    4.0559    3.6688    4.3722 H   0  0  0  0  0  0  0  0  0  0  0  0
    2.9471    1.5854    6.0882 H   0  0  0  0  0  0  0  0  0  0  0  0
    2.7469    4.0411    8.9109 H   0  0  0  0  0  0  0  0  0  0  0  0
    2.5696    0.8594   11.7963 H   0  0  0  0  0  0  0  0  0  0  0  0
    2.9634   -0.0869    7.6258 H   0  0  0  0  0  0  0  0  0  0  0  0
    3.1595   -1.8374    9.2624 H   0  0  0  0  0  0  0  0  0  0  0  0
    1.7535   -1.5609   10.3008 H   0  0  0  0  0  0  0  0  0  0  0  0
    3.3894   -1.4259   10.9649 H   0  0  0  0  0  0  0  0  0  0  0  0
    2.3965    3.1207   12.5333 H   0  0  0  0  0  0  0  0  0  0  0  0
    1.6406    4.2149   11.3656 H   0  0  0  0  0  0  0  0  0  0  0  0
    3.3982    4.2191   11.5722 H   0  0  0  0  0  0  0  0  0  0  0  0
  1  4  1  0  0  0  0
  2  1  2  0  0  0  0
  3  1  1  0  0  0  0
  4  7  1  0  0  0  0
  5  4  1  0  0  0  0
  5 27  1  0  0  0  0
  5 28  1  0  0  0  0
  6  4  1  0  0  0  0
  6 30  1  0  0  0  0
  6 32  1  0  0  0  0
  7  8  1  0  0  0  0
  8  9  1  0  0  0  0
  9 33  1  0  0  0  0
  9 10  2  0  0  0  0
 10 34  1  0  0  0  0
 11 10  1  0  0  0  0
 11 14  1  0  0  0  0
 12 11  2  0  0  0  0
 13  8  2  0  0  0  0
 13 12  1  0  0  0  0
 14 15  1  0  0  0  0
 15 17  1  0  0  0  0
 15 16  2  0  0  0  0
 17 18  1  0  0  0  0
 18 23  2  0  0  0  0
 18 19  1  0  0  0  0
 19 20  2  0  0  0  0
 20 21  1  0  0  0  0
 20 25  1  0  0  0  0
 21 41  1  0  0  0  0
 22 24  1  0  0  0  0
 22 21  2  0  0  0  0
 23 22  1  0  0  0  0
 24 44  1  0  0  0  0
 24 45  1  0  0  0  0
 25 48  1  0  0  0  0
 25 46  1  0  0  0  0
 26  3  1  0  0  0  0
 29  5  1  0  0  0  0
 31  6  1  0  0  0  0
 35 12  1  0  0  0  0
 36 13  1  0  0  0  0
 37 14  1  0  0  0  0
 38 14  1  0  0  0  0
 39 17  1  0  0  0  0
 40 19  1  0  0  0  0
 42 23  1  0  0  0  0
 43 24  1  0  0  0  0
 47 25  1  0  0  0  0
M  END
$$$$
