48
rmsd209.gzmat
C          0.00000        0.00000        0.00000
O          1.19900        0.00000        0.00000
O         -0.69010        0.00000       -1.17190
C         -0.98800        0.01390        1.17030
C         -1.76920        1.31840        1.14000
C         -1.88130       -1.22380        1.09710
O         -0.27920       -0.19570        2.38150
C          0.49910        0.83310        2.86010
C         -0.07880        1.79430        3.69110
C          0.74540        2.74740        4.27890
C          2.12470        2.72340        4.05000
C          2.68490        1.74180        3.22880
C          1.87320        0.78600        2.62650
C          2.99830        3.74210        4.70650
C          2.96020        3.65750        6.22570
O          2.95610        4.65020        6.91510
N          2.95850        2.36630        6.74400
C          2.86290        2.02550        8.11230
C          2.75150        2.97310        9.13150
C          2.64340        2.54520       10.45710
C          2.65420        1.18620       10.76490
C          2.77290        0.24050        9.74220
C          2.87500        0.65040        8.41670
C          2.77420       -1.21320       10.07930
C          2.51280        3.56590       11.53730
H         -0.11050       -0.00190       -1.97280
H         -1.11660        2.19860        1.21510
H         -2.48590        1.36980        1.97020
H         -2.34060        1.41500        0.20470
H         -1.29290       -2.14790        1.18880
H         -2.43140       -1.26200        0.14760
H         -2.61070       -1.23060        1.91820
H         -1.14810        1.78140        3.88450
H          0.31430        3.50930        4.92940
H          3.75940        1.72050        3.04940
H          2.29270        0.01200        1.98080
H          2.68360        4.77080        4.40790
H          4.05590        3.66880        4.37220
H          2.94710        1.58540        6.08820
H          2.74690        4.04110        8.91090
H          2.56960        0.85940       11.79630
H          2.96340       -0.08690        7.62580
H          3.15950       -1.83740        9.26240
H          1.75350       -1.56090       10.30080
H          3.38940       -1.42590       10.96490
H          2.39650        3.12070       12.53330
H          1.64060        4.21490       11.36560
H          3.39820        4.21910       11.57220
