rmsd232.gzmat
 OpenBabel08211713363D

 48 49  0  0  0  0  0  0  0  0999 V2000
    0.0000    0.0000    0.0000 C   0  0  0  0  0  0  0  0  0  0  0  0
    1.2027    0.0000    0.0000 O   0  0  0  0  0  0  0  0  0  0  0  0
   -0.7044    0.0000   -1.1521 O   0  0  0  0  0  0  0  0  0  0  0  0
   -0.9166   -0.0431    1.2228 C   0  0  0  0  0  0  0  0  0  0  0  0
   -1.2930   -1.5062    1.4696 C   0  0  0  0  0  0  0  0  0  0  0  0
   -0.2312    0.5906    2.4228 C   0  0  0  0  0  0  0  0  0  0  0  0
   -2.1809    0.5541    0.9757 O   0  0  0  0  0  0  0  0  0  0  0  0
   -2.2871    1.8482    0.5748 C   0  0  0  0  0  0  0  0  0  0  0  0
   -3.6313    2.2599    0.5125 C   0  0  0  0  0  0  0  0  0  0  0  0
   -3.9169    3.5554    0.1178 C   0  0  0  0  0  0  0  0  0  0  0  0
   -2.8817    4.4409   -0.2143 C   0  0  0  0  0  0  0  0  0  0  0  0
   -1.5578    4.0131   -0.1523 C   0  0  0  0  0  0  0  0  0  0  0  0
   -1.2470    2.7116    0.2406 C   0  0  0  0  0  0  0  0  0  0  0  0
   -3.2069    5.8355   -0.6333 C   0  0  0  0  0  0  0  0  0  0  0  0
   -3.8268    5.9425   -2.0184 C   0  0  0  0  0  0  0  0  0  0  0  0
   -4.5783    6.8492   -2.2960 O   0  0  0  0  0  0  0  0  0  0  0  0
   -3.4439    4.9697   -2.9355 N   0  0  0  0  0  0  0  0  0  0  0  0
   -3.8944    4.8867   -4.2732 C   0  0  0  0  0  0  0  0  0  0  0  0
   -3.6157    3.6905   -4.9593 C   0  0  0  0  0  0  0  0  0  0  0  0
   -4.0046    3.5559   -6.2898 C   0  0  0  0  0  0  0  0  0  0  0  0
   -4.6720    4.5977   -6.9379 C   0  0  0  0  0  0  0  0  0  0  0  0
   -4.9465    5.7804   -6.2515 C   0  0  0  0  0  0  0  0  0  0  0  0
   -4.5588    5.9324   -4.9189 C   0  0  0  0  0  0  0  0  0  0  0  0
   -5.6596    6.9029   -6.9283 C   0  0  0  0  0  0  0  0  0  0  0  0
   -3.7080    2.2852   -7.0139 C   0  0  0  0  0  0  0  0  0  0  0  0
   -0.1321    0.0000   -1.9631 H   0  0  0  0  0  0  0  0  0  0  0  0
   -1.8185   -1.9351    0.6034 H   0  0  0  0  0  0  0  0  0  0  0  0
   -1.9733   -1.5956    2.3282 H   0  0  0  0  0  0  0  0  0  0  0  0
   -0.4075   -2.1196    1.6750 H   0  0  0  0  0  0  0  0  0  0  0  0
   -0.0573    1.6665    2.2933 H   0  0  0  0  0  0  0  0  0  0  0  0
    0.7488    0.1288    2.6146 H   0  0  0  0  0  0  0  0  0  0  0  0
   -0.8411    0.4756    3.3291 H   0  0  0  0  0  0  0  0  0  0  0  0
   -4.4194    1.5574    0.7733 H   0  0  0  0  0  0  0  0  0  0  0  0
   -4.9546    3.8891    0.0611 H   0  0  0  0  0  0  0  0  0  0  0  0
   -0.7475    4.6963   -0.4097 H   0  0  0  0  0  0  0  0  0  0  0  0
   -0.2073    2.4026    0.2738 H   0  0  0  0  0  0  0  0  0  0  0  0
   -2.3103    6.4949   -0.6101 H   0  0  0  0  0  0  0  0  0  0  0  0
   -3.9112    6.3059    0.0944 H   0  0  0  0  0  0  0  0  0  0  0  0
   -2.8582    4.2007   -2.6122 H   0  0  0  0  0  0  0  0  0  0  0  0
   -3.1064    2.8735   -4.4591 H   0  0  0  0  0  0  0  0  0  0  0  0
   -4.9762    4.4860   -7.9735 H   0  0  0  0  0  0  0  0  0  0  0  0
   -4.7802    6.8647   -4.3979 H   0  0  0  0  0  0  0  0  0  0  0  0
   -5.1086    7.8494   -6.8210 H   0  0  0  0  0  0  0  0  0  0  0  0
   -6.6548    7.0587   -6.4832 H   0  0  0  0  0  0  0  0  0  0  0  0
   -5.8049    6.7317   -8.0020 H   0  0  0  0  0  0  0  0  0  0  0  0
   -3.8507    2.3734   -8.0989 H   0  0  0  0  0  0  0  0  0  0  0  0
   -4.3648    1.4738   -6.6652 H   0  0  0  0  0  0  0  0  0  0  0  0
   -2.6711    1.9596   -6.8504 H   0  0  0  0  0  0  0  0  0  0  0  0
  1  4  1  0  0  0  0
  2  1  2  0  0  0  0
  3  1  1  0  0  0  0
  4  5  1  0  0  0  0
  4  6  1  0  0  0  0
  5 29  1  0  0  0  0
  5 28  1  0  0  0  0
  6 31  1  0  0  0  0
  6 32  1  0  0  0  0
  7  4  1  0  0  0  0
  8  7  1  0  0  0  0
  9  8  1  0  0  0  0
  9 33  1  0  0  0  0
 10  9  2  0  0  0  0
 11 12  2  0  0  0  0
 11 10  1  0  0  0  0
 12 13  1  0  0  0  0
 13 36  1  0  0  0  0
 13  8  2  0  0  0  0
 14 37  1  0  0  0  0
 14 11  1  0  0  0  0
 14 38  1  0  0  0  0
 15 14  1  0  0  0  0
 16 15  2  0  0  0  0
 17 39  1  0  0  0  0
 17 15  1  0  0  0  0
 18 17  1  0  0  0  0
 19 40  1  0  0  0  0
 19 18  2  0  0  0  0
 20 19  1  0  0  0  0
 21 20  2  0  0  0  0
 21 22  1  0  0  0  0
 22 23  2  0  0  0  0
 23 42  1  0  0  0  0
 23 18  1  0  0  0  0
 24 43  1  0  0  0  0
 24 44  1  0  0  0  0
 24 22  1  0  0  0  0
 25 48  1  0  0  0  0
 25 47  1  0  0  0  0
 25 20  1  0  0  0  0
 26  3  1  0  0  0  0
 27  5  1  0  0  0  0
 30  6  1  0  0  0  0
 34 10  1  0  0  0  0
 35 12  1  0  0  0  0
 41 21  1  0  0  0  0
 45 24  1  0  0  0  0
 46 25  1  0  0  0  0
M  END
$$$$
