
     RDKit          3D

 48 49  0  0  0  0  0  0  0  0999 V2000
    0.4592   -0.8966    0.4281 C   0  0  0  0  0  0  0  0  0  0  0  0
    1.4529   -1.2800    0.9880 O   0  0  0  0  0  0  0  0  0  0  0  0
    0.2596   -1.0717   -0.8941 O   0  0  0  0  0  0  0  0  0  0  0  0
   -0.7383   -0.1798    1.0790 C   0  0  0  0  0  0  0  0  0  0  0  0
   -0.9594    1.1823    0.4119 C   0  0  0  0  0  0  0  0  0  0  0  0
   -1.9745   -1.0755    0.9403 C   0  0  0  0  0  0  0  0  0  0  0  0
   -0.5229   -0.0709    2.4863 O   0  0  0  0  0  0  0  0  0  0  0  0
    0.1481    0.9996    3.0228 C   0  0  0  0  0  0  0  0  0  0  0  0
   -0.5946    1.9618    3.7184 C   0  0  0  0  0  0  0  0  0  0  0  0
    0.0482    3.0378    4.3289 C   0  0  0  0  0  0  0  0  0  0  0  0
    1.4429    3.1827    4.2553 C   0  0  0  0  0  0  0  0  0  0  0  0
    2.1723    2.2049    3.5602 C   0  0  0  0  0  0  0  0  0  0  0  0
    1.5416    1.1176    2.9517 C   0  0  0  0  0  0  0  0  0  0  0  0
    2.1401    4.3060    4.9763 C   0  0  0  0  0  0  0  0  0  0  0  0
    2.5021    4.0639    6.4546 C   0  0  0  0  0  0  0  0  0  0  0  0
    2.9139    4.9802    7.1421 O   0  0  0  0  0  0  0  0  0  0  0  0
    2.3402    2.7733    6.8808 N   0  0  0  0  0  0  0  0  0  0  0  0
    2.5968    2.2173    8.1470 C   0  0  0  0  0  0  0  0  0  0  0  0
    3.0936    2.9591    9.2247 C   0  0  0  0  0  0  0  0  0  0  0  0
    3.3240    2.3304   10.4588 C   0  0  0  0  0  0  0  0  0  0  0  0
    3.0543    0.9663   10.5992 C   0  0  0  0  0  0  0  0  0  0  0  0
    2.5554    0.2077    9.5269 C   0  0  0  0  0  0  0  0  0  0  0  0
    2.3308    0.8442    8.3070 C   0  0  0  0  0  0  0  0  0  0  0  0
    2.2739   -1.2639    9.7003 C   0  0  0  0  0  0  0  0  0  0  0  0
    3.8595    3.1419   11.6123 C   0  0  0  0  0  0  0  0  0  0  0  0
    1.0412   -1.5385   -1.2373 H   0  0  0  0  0  0  0  0  0  0  0  0
   -0.0697    1.8223    0.4959 H   0  0  0  0  0  0  0  0  0  0  0  0
   -1.8004    1.6973    0.8985 H   0  0  0  0  0  0  0  0  0  0  0  0
   -1.1909    1.0436   -0.6520 H   0  0  0  0  0  0  0  0  0  0  0  0
   -1.8090   -2.0232    1.4729 H   0  0  0  0  0  0  0  0  0  0  0  0
   -2.1912   -1.2864   -0.1150 H   0  0  0  0  0  0  0  0  0  0  0  0
   -2.8356   -0.5675    1.3977 H   0  0  0  0  0  0  0  0  0  0  0  0
   -1.6784    1.8447    3.7757 H   0  0  0  0  0  0  0  0  0  0  0  0
   -0.5412    3.7791    4.8751 H   0  0  0  0  0  0  0  0  0  0  0  0
    3.2611    2.2902    3.5027 H   0  0  0  0  0  0  0  0  0  0  0  0
    2.1096    0.3487    2.4300 H   0  0  0  0  0  0  0  0  0  0  0  0
    1.5330    5.2238    4.9728 H   0  0  0  0  0  0  0  0  0  0  0  0
    3.0881    4.5648    4.4775 H   0  0  0  0  0  0  0  0  0  0  0  0
    1.9749    2.1264    6.1901 H   0  0  0  0  0  0  0  0  0  0  0  0
    3.2949    4.0194    9.0902 H   0  0  0  0  0  0  0  0  0  0  0  0
    3.2345    0.4787   11.5616 H   0  0  0  0  0  0  0  0  0  0  0  0
    1.9425    0.2706    7.4598 H   0  0  0  0  0  0  0  0  0  0  0  0
    1.8707   -1.7121    8.7804 H   0  0  0  0  0  0  0  0  0  0  0  0
    1.5450   -1.4369   10.5092 H   0  0  0  0  0  0  0  0  0  0  0  0
    3.1902   -1.8145    9.9710 H   0  0  0  0  0  0  0  0  0  0  0  0
    3.9922    2.5274   12.5146 H   0  0  0  0  0  0  0  0  0  0  0  0
    3.1787    3.9723   11.8623 H   0  0  0  0  0  0  0  0  0  0  0  0
    4.8335    3.5931   11.3608 H   0  0  0  0  0  0  0  0  0  0  0  0
  1  2  2  0
  1  3  1  0
  1  4  1  0
  3 26  1  0
  4  5  1  0
  4  6  1  0
  4  7  1  0
  5 27  1  0
  5 28  1  0
  5 29  1  0
  6 30  1  0
  6 31  1  0
  6 32  1  0
  7  8  1  0
  8  9  2  0
  8 13  1  0
  9 10  1  0
  9 33  1  0
 10 11  2  0
 10 34  1  0
 11 12  1  0
 11 14  1  0
 12 13  2  0
 12 35  1  0
 13 36  1  0
 14 15  1  0
 14 37  1  0
 14 38  1  0
 15 16  2  0
 15 17  1  0
 17 18  1  0
 17 39  1  0
 18 19  2  0
 18 23  1  0
 19 20  1  0
 19 40  1  0
 20 21  2  0
 20 25  1  0
 21 22  1  0
 21 41  1  0
 22 23  2  0
 22 24  1  0
 23 42  1  0
 24 43  1  0
 24 44  1  0
 24 45  1  0
 25 46  1  0
 25 47  1  0
 25 48  1  0
M  END

