rmsd111.gzmat
 OpenBabel08211713363D

 48 49  0  0  0  0  0  0  0  0999 V2000
    0.0000    0.0000    0.0000 C   0  0  0  0  0  0  0  0  0  0  0  0
    1.2028    0.0000    0.0000 O   0  0  0  0  0  0  0  0  0  0  0  0
   -0.7060    0.0000   -1.1507 O   0  0  0  0  0  0  0  0  0  0  0  0
   -0.9183   -0.0491    1.2221 C   0  0  0  0  0  0  0  0  0  0  0  0
   -1.3269   -1.5088    1.4348 C   0  0  0  0  0  0  0  0  0  0  0  0
   -0.2235    0.5471    2.4361 C   0  0  0  0  0  0  0  0  0  0  0  0
   -2.1698    0.5781    0.9812 O   0  0  0  0  0  0  0  0  0  0  0  0
   -2.2489    1.8929    0.6463 C   0  0  0  0  0  0  0  0  0  0  0  0
   -1.1919    2.7384    0.3130 C   0  0  0  0  0  0  0  0  0  0  0  0
   -1.4754    4.0565   -0.0360 C   0  0  0  0  0  0  0  0  0  0  0  0
   -2.7894    4.5267   -0.0385 C   0  0  0  0  0  0  0  0  0  0  0  0
   -3.8388    3.6620    0.2925 C   0  0  0  0  0  0  0  0  0  0  0  0
   -3.5800    2.3445    0.6368 C   0  0  0  0  0  0  0  0  0  0  0  0
   -3.0678    5.9508   -0.3910 C   0  0  0  0  0  0  0  0  0  0  0  0
   -2.3720    6.9367    0.5362 C   0  0  0  0  0  0  0  0  0  0  0  0
   -1.8820    7.9610    0.1224 O   0  0  0  0  0  0  0  0  0  0  0  0
   -2.3692    6.5781    1.8816 N   0  0  0  0  0  0  0  0  0  0  0  0
   -1.7417    7.2909    2.9276 C   0  0  0  0  0  0  0  0  0  0  0  0
   -1.8083    6.7119    4.2081 C   0  0  0  0  0  0  0  0  0  0  0  0
   -1.2094    7.3593    5.2870 C   0  0  0  0  0  0  0  0  0  0  0  0
   -0.5436    8.5709    5.0983 C   0  0  0  0  0  0  0  0  0  0  0  0
   -0.4811    9.1402    3.8249 C   0  0  0  0  0  0  0  0  0  0  0  0
   -1.0794    8.5071    2.7355 C   0  0  0  0  0  0  0  0  0  0  0  0
    0.2476   10.4268    3.6252 C   0  0  0  0  0  0  0  0  0  0  0  0
   -1.2829    6.7421    6.6439 C   0  0  0  0  0  0  0  0  0  0  0  0
   -0.1358    0.0219   -1.9630 H   0  0  0  0  0  0  0  0  0  0  0  0
   -1.8281   -1.9149    0.5432 H   0  0  0  0  0  0  0  0  0  0  0  0
   -2.0403   -1.6000    2.2656 H   0  0  0  0  0  0  0  0  0  0  0  0
   -0.4602   -2.1401    1.6636 H   0  0  0  0  0  0  0  0  0  0  0  0
   -0.0188    1.6204    2.3246 H   0  0  0  0  0  0  0  0  0  0  0  0
    0.7437    0.0578    2.6252 H   0  0  0  0  0  0  0  0  0  0  0  0
   -0.8412    0.4339    3.3376 H   0  0  0  0  0  0  0  0  0  0  0  0
   -0.1604    2.3982    0.3085 H   0  0  0  0  0  0  0  0  0  0  0  0
   -0.6562    4.7280   -0.3026 H   0  0  0  0  0  0  0  0  0  0  0  0
   -4.8679    4.0205    0.2793 H   0  0  0  0  0  0  0  0  0  0  0  0
   -4.3815    1.6546    0.8896 H   0  0  0  0  0  0  0  0  0  0  0  0
   -4.1557    6.1772   -0.3966 H   0  0  0  0  0  0  0  0  0  0  0  0
   -2.7335    6.1616   -1.4355 H   0  0  0  0  0  0  0  0  0  0  0  0
   -2.7887    5.6856    2.1398 H   0  0  0  0  0  0  0  0  0  0  0  0
   -2.3212    5.7689    4.3619 H   0  0  0  0  0  0  0  0  0  0  0  0
   -0.0741    9.0713    5.9389 H   0  0  0  0  0  0  0  0  0  0  0  0
   -1.0232    8.9654    1.7471 H   0  0  0  0  0  0  0  0  0  0  0  0
   -0.0721   10.9524    2.7141 H   0  0  0  0  0  0  0  0  0  0  0  0
    1.3297   10.2462    3.5300 H   0  0  0  0  0  0  0  0  0  0  0  0
    0.1033   11.1190    4.4658 H   0  0  0  0  0  0  0  0  0  0  0  0
   -0.8802    7.3963    7.4284 H   0  0  0  0  0  0  0  0  0  0  0  0
   -0.7119    5.8025    6.6810 H   0  0  0  0  0  0  0  0  0  0  0  0
   -2.3203    6.5065    6.9222 H   0  0  0  0  0  0  0  0  0  0  0  0
  1  4  1  0  0  0  0
  2  1  2  0  0  0  0
  3  1  1  0  0  0  0
  4  5  1  0  0  0  0
  4  6  1  0  0  0  0
  5 29  1  0  0  0  0
  5 28  1  0  0  0  0
  6 31  1  0  0  0  0
  6 32  1  0  0  0  0
  7  4  1  0  0  0  0
  8  7  1  0  0  0  0
  9  8  2  0  0  0  0
 10  9  1  0  0  0  0
 11 10  2  0  0  0  0
 11 12  1  0  0  0  0
 12 13  2  0  0  0  0
 13  8  1  0  0  0  0
 13 36  1  0  0  0  0
 14 11  1  0  0  0  0
 14 15  1  0  0  0  0
 15 17  1  0  0  0  0
 16 15  2  0  0  0  0
 17 39  1  0  0  0  0
 17 18  1  0  0  0  0
 18 19  1  0  0  0  0
 19 40  1  0  0  0  0
 19 20  2  0  0  0  0
 20 25  1  0  0  0  0
 21 20  1  0  0  0  0
 21 41  1  0  0  0  0
 22 21  2  0  0  0  0
 23 18  2  0  0  0  0
 23 22  1  0  0  0  0
 24 22  1  0  0  0  0
 24 45  1  0  0  0  0
 25 47  1  0  0  0  0
 25 48  1  0  0  0  0
 25 46  1  0  0  0  0
 26  3  1  0  0  0  0
 27  5  1  0  0  0  0
 30  6  1  0  0  0  0
 33  9  1  0  0  0  0
 34 10  1  0  0  0  0
 35 12  1  0  0  0  0
 37 14  1  0  0  0  0
 38 14  1  0  0  0  0
 42 23  1  0  0  0  0
 43 24  1  0  0  0  0
 44 24  1  0  0  0  0
M  END
$$$$
