
     RDKit          3D

 48 49  0  0  0  0  0  0  0  0999 V2000
    0.8318    0.3477    0.3117 C   0  0  0  0  0  0  0  0  0  0  0  0
    1.9580    0.3958    0.7328 O   0  0  0  0  0  0  0  0  0  0  0  0
    0.5451    0.4448   -1.0025 O   0  0  0  0  0  0  0  0  0  0  0  0
   -0.4514    0.1913    1.1485 C   0  0  0  0  0  0  0  0  0  0  0  0
   -1.3017    1.4550    0.9762 C   0  0  0  0  0  0  0  0  0  0  0  0
   -1.2169   -1.0601    0.7043 C   0  0  0  0  0  0  0  0  0  0  0  0
   -0.1167    0.1634    2.5363 O   0  0  0  0  0  0  0  0  0  0  0  0
    0.1929   -1.0136    3.1708 C   0  0  0  0  0  0  0  0  0  0  0  0
    1.4303   -1.6477    3.0052 C   0  0  0  0  0  0  0  0  0  0  0  0
    1.7049   -2.8178    3.7163 C   0  0  0  0  0  0  0  0  0  0  0  0
    0.7720   -3.3723    4.6071 C   0  0  0  0  0  0  0  0  0  0  0  0
   -0.4564   -2.7124    4.7716 C   0  0  0  0  0  0  0  0  0  0  0  0
   -0.7466   -1.5487    4.0608 C   0  0  0  0  0  0  0  0  0  0  0  0
    1.1103   -4.5884    5.4283 C   0  0  0  0  0  0  0  0  0  0  0  0
    1.7348   -4.3398    6.8151 C   0  0  0  0  0  0  0  0  0  0  0  0
    1.8931   -5.2654    7.5897 O   0  0  0  0  0  0  0  0  0  0  0  0
    2.0911   -3.0411    7.0596 N   0  0  0  0  0  0  0  0  0  0  0  0
    2.6950   -2.4860    8.2021 C   0  0  0  0  0  0  0  0  0  0  0  0
    2.9449   -1.1007    8.1830 C   0  0  0  0  0  0  0  0  0  0  0  0
    3.5406   -0.4645    9.2712 C   0  0  0  0  0  0  0  0  0  0  0  0
    3.8884   -1.2357   10.3930 C   0  0  0  0  0  0  0  0  0  0  0  0
    3.6479   -2.6119   10.4297 C   0  0  0  0  0  0  0  0  0  0  0  0
    3.0474   -3.2402    9.3270 C   0  0  0  0  0  0  0  0  0  0  0  0
    4.0230   -3.4370   11.6357 C   0  0  0  0  0  0  0  0  0  0  0  0
    3.8099    1.0194    9.2533 C   0  0  0  0  0  0  0  0  0  0  0  0
    1.3925    0.5537   -1.4680 H   0  0  0  0  0  0  0  0  0  0  0  0
   -0.7500    2.3289    1.3522 H   0  0  0  0  0  0  0  0  0  0  0  0
   -2.2231    1.3477    1.5663 H   0  0  0  0  0  0  0  0  0  0  0  0
   -1.5585    1.6157   -0.0789 H   0  0  0  0  0  0  0  0  0  0  0  0
   -0.6051   -1.9670    0.8109 H   0  0  0  0  0  0  0  0  0  0  0  0
   -1.5152   -0.9614   -0.3475 H   0  0  0  0  0  0  0  0  0  0  0  0
   -2.1178   -1.1786    1.3237 H   0  0  0  0  0  0  0  0  0  0  0  0
    2.1626   -1.2067    2.3303 H   0  0  0  0  0  0  0  0  0  0  0  0
    2.6740   -3.3071    3.5837 H   0  0  0  0  0  0  0  0  0  0  0  0
   -1.1949   -3.1172    5.4688 H   0  0  0  0  0  0  0  0  0  0  0  0
   -1.6999   -1.0320    4.1876 H   0  0  0  0  0  0  0  0  0  0  0  0
    1.8233   -5.2376    4.8947 H   0  0  0  0  0  0  0  0  0  0  0  0
    0.2191   -5.2056    5.6177 H   0  0  0  0  0  0  0  0  0  0  0  0
    1.8829   -2.3823    6.3168 H   0  0  0  0  0  0  0  0  0  0  0  0
    2.6669   -0.5175    7.2997 H   0  0  0  0  0  0  0  0  0  0  0  0
    4.3564   -0.7484   11.2532 H   0  0  0  0  0  0  0  0  0  0  0  0
    2.8493   -4.3096    9.3311 H   0  0  0  0  0  0  0  0  0  0  0  0
    4.7386   -4.2310   11.3655 H   0  0  0  0  0  0  0  0  0  0  0  0
    3.1388   -3.9373   12.0640 H   0  0  0  0  0  0  0  0  0  0  0  0
    4.4801   -2.8208   12.4236 H   0  0  0  0  0  0  0  0  0  0  0  0
    4.8852    1.2298    9.3769 H   0  0  0  0  0  0  0  0  0  0  0  0
    3.2865    1.5285   10.0796 H   0  0  0  0  0  0  0  0  0  0  0  0
    3.4819    1.4810    8.3105 H   0  0  0  0  0  0  0  0  0  0  0  0
  1  2  2  0
  1  3  1  0
  1  4  1  0
  3 26  1  0
  4  5  1  0
  4  6  1  0
  4  7  1  0
  5 27  1  0
  5 28  1  0
  5 29  1  0
  6 30  1  0
  6 31  1  0
  6 32  1  0
  7  8  1  0
  8  9  2  0
  8 13  1  0
  9 10  1  0
  9 33  1  0
 10 11  2  0
 10 34  1  0
 11 12  1  0
 11 14  1  0
 12 13  2  0
 12 35  1  0
 13 36  1  0
 14 15  1  0
 14 37  1  0
 14 38  1  0
 15 16  2  0
 15 17  1  0
 17 18  1  0
 17 39  1  0
 18 19  2  0
 18 23  1  0
 19 20  1  0
 19 40  1  0
 20 21  2  0
 20 25  1  0
 21 22  1  0
 21 41  1  0
 22 23  2  0
 22 24  1  0
 23 42  1  0
 24 43  1  0
 24 44  1  0
 24 45  1  0
 25 46  1  0
 25 47  1  0
 25 48  1  0
M  END

