48

C         -0.17880        0.26610       -0.51320
O          1.00480        0.44380       -0.65570
O         -1.04080        0.18650       -1.53860
C         -0.86850        0.03510        0.84380
C         -1.13770       -1.47120        0.95430
C          0.00780        0.51810        1.99830
O         -2.16740        0.62820        0.88080
C         -2.39330        1.94020        0.60930
C         -3.73150        2.35150        0.72480
C         -4.09410        3.66240        0.43580
C         -3.14010        4.61060        0.02590
C         -1.80790        4.18980       -0.07030
C         -1.42500        2.87630        0.21640
C         -3.55040        5.99440       -0.40140
C         -3.88250        6.18000       -1.89570
O         -4.20260        7.27340       -2.32410
N         -3.78310        5.04000       -2.64790
C         -4.00540        4.85750       -4.02320
C         -3.82280        3.55720       -4.53170
C         -4.02000        3.28210       -5.88410
C         -4.40590        4.33190       -6.73460
C         -4.59190        5.62870       -6.24750
C         -4.39040        5.89220       -4.88330
C         -5.00770        6.75300       -7.16330
C         -3.82430        1.89040       -6.43190
H         -0.52290        0.31800       -2.35160
H         -1.78380       -1.79840        0.12850
H         -1.64880       -1.67450        1.90620
H         -0.19390       -2.03420        0.92530
H          0.17500        1.60210        1.96750
H          0.98760        0.02470        1.95770
H         -0.48520        0.26890        2.94860
H         -4.47170        1.61250        1.03600
H         -5.14360        3.95760        0.51880
H         -1.04190        4.90240       -0.38810
H         -0.37410        2.60790        0.12550
H         -2.76250        6.73210       -0.18280
H         -4.44450        6.33380        0.14500
H         -3.50510        4.20700       -2.14030
H         -3.52330        2.75340       -3.85170
H         -4.56420        4.12890       -7.79770
H         -4.52920        6.89240       -4.47880
H         -4.26400        7.56670       -7.15420
H         -5.96540        7.19310       -6.84000
H         -5.12420        6.40990       -8.20160
H         -3.02890        1.87120       -7.19550
H         -4.74280        1.52070       -6.91690
H         -3.55080        1.17680       -5.64070
