48

C          0.83180        0.34770        0.31170
O          1.95800        0.39580        0.73280
O          0.54510        0.44480       -1.00250
C         -0.45140        0.19130        1.14850
C         -1.30170        1.45500        0.97620
C         -1.21690       -1.06010        0.70430
O         -0.11670        0.16340        2.53630
C          0.19290       -1.01360        3.17080
C          1.43030       -1.64770        3.00520
C          1.70490       -2.81780        3.71630
C          0.77200       -3.37230        4.60710
C         -0.45640       -2.71240        4.77160
C         -0.74660       -1.54870        4.06080
C          1.11030       -4.58840        5.42830
C          1.73480       -4.33980        6.81510
O          1.89310       -5.26540        7.58970
N          2.09110       -3.04110        7.05960
C          2.69500       -2.48600        8.20210
C          2.94490       -1.10070        8.18300
C          3.54060       -0.46450        9.27120
C          3.88840       -1.23570       10.39300
C          3.64790       -2.61190       10.42970
C          3.04740       -3.24020        9.32700
C          4.02300       -3.43700       11.63570
C          3.80990        1.01940        9.25330
H          1.39250        0.55370       -1.46800
H         -0.75000        2.32890        1.35220
H         -2.22310        1.34770        1.56630
H         -1.55850        1.61570       -0.07890
H         -0.60510       -1.96700        0.81090
H         -1.51520       -0.96140       -0.34750
H         -2.11780       -1.17860        1.32370
H          2.16260       -1.20670        2.33030
H          2.67400       -3.30710        3.58370
H         -1.19490       -3.11720        5.46880
H         -1.69990       -1.03200        4.18760
H          1.82330       -5.23760        4.89470
H          0.21910       -5.20560        5.61770
H          1.88290       -2.38230        6.31680
H          2.66690       -0.51750        7.29970
H          4.35640       -0.74840       11.25320
H          2.84930       -4.30960        9.33110
H          4.73860       -4.23100       11.36550
H          3.13880       -3.93730       12.06400
H          4.48010       -2.82080       12.42360
H          4.88520        1.22980        9.37690
H          3.28650        1.52850       10.07960
H          3.48190        1.48100        8.31050
