48
rmsd117.gzmat
C          0.00000        0.00000        0.00000
O          1.19980        0.00000        0.00000
O         -0.68890        0.00000       -1.17040
C         -0.97330        0.04690        1.18400
C         -1.26120        1.50580        1.50160
C         -2.23210       -0.76630        0.89530
O         -0.36570       -0.67480        2.24730
C          0.38130        0.03490        3.15740
C         -0.23310        0.36670        4.36760
C          0.53660        0.95440        5.36470
C          1.89640        1.20150        5.15010
C          2.48990        0.86000        3.93240
C          1.73380        0.27150        2.92350
C          2.71520        1.81620        6.23680
C          2.90190        0.90520        7.44220
O          2.97560        1.35620        8.56180
N          3.01690       -0.45030        7.15580
C          3.20540       -1.48180        8.10400
C          3.36090       -2.78360        7.58960
C          3.56260       -3.84670        8.46420
C          3.60450       -3.62520        9.84390
C          3.44230       -2.33530       10.34690
C          3.24100       -1.25750        9.48170
C          3.46710       -2.09480       11.81930
C          3.73730       -5.23240        7.93830
H         -0.10860       -0.02260       -1.97130
H         -0.34320        2.08020        1.69220
H         -1.89050        1.59930        2.39780
H         -1.79290        1.99860        0.67540
H         -1.99170       -1.82560        0.72330
H         -2.75350       -0.39660        0.00220
H         -2.92770       -0.72880        1.74290
H         -1.28760        0.15130        4.52080
H          0.08030        1.21560        6.31970
H          3.54930        1.05210        3.76370
H          2.18640       -0.00900        1.96990
H          2.24420        2.76440        6.59080
H          3.72120        2.12770        5.87760
H          2.91660       -0.74940        6.18610
H          3.32810       -2.95960        6.51920
H          3.76200       -4.45900       10.52030
H          3.11510       -0.25500        9.89260
H          2.44400       -2.08600       12.22640
H          3.92210       -1.12520       12.06950
H          4.02890       -2.86560       12.36280
H          2.92720       -5.89190        8.28400
H          4.68420       -5.67290        8.28350
H          3.74350       -5.27480        6.84130
