
     RDKit          3D

 48 49  0  0  0  0  0  0  0  0999 V2000
   -0.1788    0.2661   -0.5132 C   0  0  0  0  0  0  0  0  0  0  0  0
    1.0048    0.4438   -0.6557 O   0  0  0  0  0  0  0  0  0  0  0  0
   -1.0408    0.1865   -1.5386 O   0  0  0  0  0  0  0  0  0  0  0  0
   -0.8685    0.0351    0.8438 C   0  0  0  0  0  0  0  0  0  0  0  0
   -1.1377   -1.4712    0.9543 C   0  0  0  0  0  0  0  0  0  0  0  0
    0.0078    0.5181    1.9983 C   0  0  0  0  0  0  0  0  0  0  0  0
   -2.1674    0.6282    0.8808 O   0  0  0  0  0  0  0  0  0  0  0  0
   -2.3933    1.9402    0.6093 C   0  0  0  0  0  0  0  0  0  0  0  0
   -3.7315    2.3515    0.7248 C   0  0  0  0  0  0  0  0  0  0  0  0
   -4.0941    3.6624    0.4358 C   0  0  0  0  0  0  0  0  0  0  0  0
   -3.1401    4.6106    0.0259 C   0  0  0  0  0  0  0  0  0  0  0  0
   -1.8079    4.1898   -0.0703 C   0  0  0  0  0  0  0  0  0  0  0  0
   -1.4250    2.8763    0.2164 C   0  0  0  0  0  0  0  0  0  0  0  0
   -3.5504    5.9944   -0.4014 C   0  0  0  0  0  0  0  0  0  0  0  0
   -3.8825    6.1800   -1.8957 C   0  0  0  0  0  0  0  0  0  0  0  0
   -4.2026    7.2734   -2.3241 O   0  0  0  0  0  0  0  0  0  0  0  0
   -3.7831    5.0400   -2.6479 N   0  0  0  0  0  0  0  0  0  0  0  0
   -4.0054    4.8575   -4.0232 C   0  0  0  0  0  0  0  0  0  0  0  0
   -3.8228    3.5572   -4.5317 C   0  0  0  0  0  0  0  0  0  0  0  0
   -4.0200    3.2821   -5.8841 C   0  0  0  0  0  0  0  0  0  0  0  0
   -4.4059    4.3319   -6.7346 C   0  0  0  0  0  0  0  0  0  0  0  0
   -4.5919    5.6287   -6.2475 C   0  0  0  0  0  0  0  0  0  0  0  0
   -4.3904    5.8922   -4.8833 C   0  0  0  0  0  0  0  0  0  0  0  0
   -5.0077    6.7530   -7.1633 C   0  0  0  0  0  0  0  0  0  0  0  0
   -3.8243    1.8904   -6.4319 C   0  0  0  0  0  0  0  0  0  0  0  0
   -0.5229    0.3180   -2.3516 H   0  0  0  0  0  0  0  0  0  0  0  0
   -1.7838   -1.7984    0.1285 H   0  0  0  0  0  0  0  0  0  0  0  0
   -1.6488   -1.6745    1.9062 H   0  0  0  0  0  0  0  0  0  0  0  0
   -0.1939   -2.0342    0.9253 H   0  0  0  0  0  0  0  0  0  0  0  0
    0.1750    1.6021    1.9675 H   0  0  0  0  0  0  0  0  0  0  0  0
    0.9876    0.0247    1.9577 H   0  0  0  0  0  0  0  0  0  0  0  0
   -0.4852    0.2689    2.9486 H   0  0  0  0  0  0  0  0  0  0  0  0
   -4.4717    1.6125    1.0360 H   0  0  0  0  0  0  0  0  0  0  0  0
   -5.1436    3.9576    0.5188 H   0  0  0  0  0  0  0  0  0  0  0  0
   -1.0419    4.9024   -0.3881 H   0  0  0  0  0  0  0  0  0  0  0  0
   -0.3741    2.6079    0.1255 H   0  0  0  0  0  0  0  0  0  0  0  0
   -2.7625    6.7321   -0.1828 H   0  0  0  0  0  0  0  0  0  0  0  0
   -4.4445    6.3338    0.1450 H   0  0  0  0  0  0  0  0  0  0  0  0
   -3.5051    4.2070   -2.1403 H   0  0  0  0  0  0  0  0  0  0  0  0
   -3.5233    2.7534   -3.8517 H   0  0  0  0  0  0  0  0  0  0  0  0
   -4.5642    4.1289   -7.7977 H   0  0  0  0  0  0  0  0  0  0  0  0
   -4.5292    6.8924   -4.4788 H   0  0  0  0  0  0  0  0  0  0  0  0
   -4.2640    7.5667   -7.1542 H   0  0  0  0  0  0  0  0  0  0  0  0
   -5.9654    7.1931   -6.8400 H   0  0  0  0  0  0  0  0  0  0  0  0
   -5.1242    6.4099   -8.2016 H   0  0  0  0  0  0  0  0  0  0  0  0
   -3.0289    1.8712   -7.1955 H   0  0  0  0  0  0  0  0  0  0  0  0
   -4.7428    1.5207   -6.9169 H   0  0  0  0  0  0  0  0  0  0  0  0
   -3.5508    1.1768   -5.6407 H   0  0  0  0  0  0  0  0  0  0  0  0
  1  2  2  0
  1  3  1  0
  1  4  1  0
  3 26  1  0
  4  5  1  0
  4  6  1  0
  4  7  1  0
  5 27  1  0
  5 28  1  0
  5 29  1  0
  6 30  1  0
  6 31  1  0
  6 32  1  0
  7  8  1  0
  8  9  2  0
  8 13  1  0
  9 10  1  0
  9 33  1  0
 10 11  2  0
 10 34  1  0
 11 12  1  0
 11 14  1  0
 12 13  2  0
 12 35  1  0
 13 36  1  0
 14 15  1  0
 14 37  1  0
 14 38  1  0
 15 16  2  0
 15 17  1  0
 17 18  1  0
 17 39  1  0
 18 19  2  0
 18 23  1  0
 19 20  1  0
 19 40  1  0
 20 21  2  0
 20 25  1  0
 21 22  1  0
 21 41  1  0
 22 23  2  0
 22 24  1  0
 23 42  1  0
 24 43  1  0
 24 44  1  0
 24 45  1  0
 25 46  1  0
 25 47  1  0
 25 48  1  0
M  END

