48
rmsd75.gzmat
N          0.00000        0.00000        0.00000
C          1.31020        0.00000        0.00000
C          2.15710        0.00000        1.17380
C          1.65630       -0.08750        2.50690
N          0.29980       -0.13840        2.75750
S         -0.47030       -0.90790        4.13680
O          0.11440       -0.39400        5.34900
O         -1.87400       -0.77100        3.84850
C          0.04290       -2.56650        3.92910
C          0.95710       -3.12940        4.81920
C          1.42490       -4.42350        4.61350
C          0.97860       -5.16390        3.51410
C          0.04170       -4.60560        2.63900
C         -0.42710       -3.31240        2.84800
C          1.49190       -6.54190        3.28510
C          2.57090       -0.12070        3.58270
C          3.93110       -0.08110        3.32680
C          4.44640        0.01120        2.01300
C          3.55480        0.05970        0.96840
O          4.90210       -0.11630        4.26430
C          4.50040       -0.18830        5.62860
O          2.03510       -0.01450       -1.15230
C          1.43020       -0.02540       -2.41980
O          2.21060       -0.03150       -3.32710
C         -0.01970       -0.03130       -2.42920
C         -0.73830       -0.04810       -3.63170
C         -2.12280       -0.05180       -3.59980
C         -2.80240       -0.04030       -2.37030
C         -2.11070       -0.02170       -1.17230
C         -0.70190       -0.01670       -1.19720
H         -0.32250        0.08450        1.95770
H          1.32020       -2.56370        5.68520
H          2.14260       -4.85790        5.30550
H         -0.31760       -5.18120        1.78850
H         -1.16150       -2.89540        2.14920
H          1.39130       -6.86420        2.23860
H          0.94290       -7.27330        3.89980
H          2.55640       -6.63880        3.54480
H          2.20690       -0.11950        4.60940
H          5.52020        0.04760        1.85710
H          3.93950        0.14010       -0.05750
H          5.46410       -0.19040        6.15470
H          3.95030       -1.11440        5.82290
H          3.90940        0.69090        5.90870
H         -0.19580       -0.05680       -4.58110
H         -2.69290       -0.06090       -4.52680
H         -3.89390       -0.04450       -2.36550
H         -2.62740       -0.00570       -0.21250
