
     RDKit          3D

 48 51  0  0  0  0  0  0  0  0999 V2000
    0.5587   -0.2623    0.6816 N   0  0  0  0  0  0  0  0  0  0  0  0
    1.8189   -0.5185    0.8074 C   0  0  0  0  0  0  0  0  0  0  0  0
    2.6338   -0.0393    1.9210 C   0  0  0  0  0  0  0  0  0  0  0  0
    2.0493    0.3635    3.1525 C   0  0  0  0  0  0  0  0  0  0  0  0
    0.6516    0.3978    3.3359 N   0  0  0  0  0  0  0  0  0  0  0  0
   -0.0603   -0.8416    4.2799 S   0  0  0  0  0  0  0  0  0  0  0  0
    0.7191   -0.9555    5.5119 O   0  0  0  0  0  0  0  0  0  0  0  0
   -1.4896   -0.5449    4.2783 O   0  0  0  0  0  0  0  0  0  0  0  0
    0.2190   -2.2913    3.2730 C   0  0  0  0  0  0  0  0  0  0  0  0
    1.4962   -2.8597    3.2222 C   0  0  0  0  0  0  0  0  0  0  0  0
    1.7570   -3.8463    2.2726 C   0  0  0  0  0  0  0  0  0  0  0  0
    0.7610   -4.2833    1.3814 C   0  0  0  0  0  0  0  0  0  0  0  0
   -0.5204   -3.7205    1.4855 C   0  0  0  0  0  0  0  0  0  0  0  0
   -0.7967   -2.7219    2.4186 C   0  0  0  0  0  0  0  0  0  0  0  0
    1.0783   -5.3070    0.3234 C   0  0  0  0  0  0  0  0  0  0  0  0
    2.8622    0.6805    4.2465 C   0  0  0  0  0  0  0  0  0  0  0  0
    4.2552    0.6074    4.1398 C   0  0  0  0  0  0  0  0  0  0  0  0
    4.8449    0.2371    2.9134 C   0  0  0  0  0  0  0  0  0  0  0  0
    4.0428   -0.0839    1.8346 C   0  0  0  0  0  0  0  0  0  0  0  0
    5.0995    0.8803    5.1511 O   0  0  0  0  0  0  0  0  0  0  0  0
    4.5672    1.2087    6.4215 C   0  0  0  0  0  0  0  0  0  0  0  0
    2.5117   -1.3129   -0.0548 O   0  0  0  0  0  0  0  0  0  0  0  0
    1.9012   -2.0318   -1.0785 C   0  0  0  0  0  0  0  0  0  0  0  0
    2.5824   -2.7707   -1.7351 O   0  0  0  0  0  0  0  0  0  0  0  0
    0.4623   -1.7978   -1.2034 C   0  0  0  0  0  0  0  0  0  0  0  0
   -0.2889   -2.4866   -2.1675 C   0  0  0  0  0  0  0  0  0  0  0  0
   -1.6601   -2.2750   -2.2524 C   0  0  0  0  0  0  0  0  0  0  0  0
   -2.2835   -1.3687   -1.3750 C   0  0  0  0  0  0  0  0  0  0  0  0
   -1.5474   -0.6812   -0.4172 C   0  0  0  0  0  0  0  0  0  0  0  0
   -0.1604   -0.8932   -0.3146 C   0  0  0  0  0  0  0  0  0  0  0  0
    0.1648    0.4100    2.4282 H   0  0  0  0  0  0  0  0  0  0  0  0
    2.2728   -2.5213    3.9089 H   0  0  0  0  0  0  0  0  0  0  0  0
    2.7587   -4.2790    2.2118 H   0  0  0  0  0  0  0  0  0  0  0  0
   -1.3082   -4.0490    0.8036 H   0  0  0  0  0  0  0  0  0  0  0  0
   -1.7812   -2.2570    2.4785 H   0  0  0  0  0  0  0  0  0  0  0  0
    1.7312   -4.8738   -0.4526 H   0  0  0  0  0  0  0  0  0  0  0  0
    0.1660   -5.6722   -0.1694 H   0  0  0  0  0  0  0  0  0  0  0  0
    1.6103   -6.1716    0.7504 H   0  0  0  0  0  0  0  0  0  0  0  0
    2.3665    0.9568    5.1724 H   0  0  0  0  0  0  0  0  0  0  0  0
    5.9330    0.2013    2.8468 H   0  0  0  0  0  0  0  0  0  0  0  0
    4.4980   -0.3965    0.8949 H   0  0  0  0  0  0  0  0  0  0  0  0
    5.4260    1.3459    7.0905 H   0  0  0  0  0  0  0  0  0  0  0  0
    3.9244    0.4005    6.8098 H   0  0  0  0  0  0  0  0  0  0  0  0
    3.9831    2.1443    6.3846 H   0  0  0  0  0  0  0  0  0  0  0  0
    0.2272   -3.1817   -2.8319 H   0  0  0  0  0  0  0  0  0  0  0  0
   -2.2528   -2.8075   -2.9988 H   0  0  0  0  0  0  0  0  0  0  0  0
   -3.3616   -1.2052   -1.4442 H   0  0  0  0  0  0  0  0  0  0  0  0
   -2.0216    0.0139    0.2775 H   0  0  0  0  0  0  0  0  0  0  0  0
  1  2  2  0
  1 30  1  0
  2  3  1  0
  2 22  1  0
  3  4  1  0
  3 19  2  0
  4  5  1  0
  4 16  2  0
  6  5  1  0
  5 31  1  0
  6  7  2  0
  6  8  2  0
  6  9  1  0
  9 10  2  0
  9 14  1  0
 10 11  1  0
 10 32  1  0
 11 12  2  0
 11 33  1  0
 12 13  1  0
 12 15  1  0
 13 14  2  0
 13 34  1  0
 14 35  1  0
 15 36  1  0
 15 37  1  0
 15 38  1  0
 16 17  1  0
 16 39  1  0
 17 18  2  0
 17 20  1  0
 18 19  1  0
 18 40  1  0
 19 41  1  0
 20 21  1  0
 21 42  1  0
 21 43  1  0
 21 44  1  0
 22 23  1  0
 23 24  2  0
 23 25  1  0
 25 26  1  0
 25 30  2  0
 26 27  2  0
 26 45  1  0
 27 28  1  0
 27 46  1  0
 28 29  2  0
 28 47  1  0
 29 30  1  0
 29 48  1  0
M  END

