rmsd133.gzmat
 OpenBabel08211713393D

 48 51  0  0  1  0  0  0  0  0999 V2000
    0.0000    0.0000    0.0000 N   0  0  0  0  0  0  0  0  0  0  0  0
    1.3099    0.0000    0.0000 C   0  0  0  0  0  0  0  0  0  0  0  0
    2.1567    0.0000    1.1745 C   0  0  0  0  0  0  0  0  0  0  0  0
    1.6519    0.0232    2.5078 C   0  0  0  0  0  0  0  0  0  0  0  0
    0.2940    0.0743    2.7617 N   0  0  0  0  0  0  0  0  0  0  0  0
   -0.5088   -0.6919    4.1257 S   0  0  0  0  0  0  0  0  0  0  0  0
    0.1519   -0.2803    5.3376 O   0  0  0  0  0  0  0  0  0  0  0  0
   -1.9058   -0.4336    3.8902 O   0  0  0  0  0  0  0  0  0  0  0  0
   -0.1495   -2.3744    3.8185 C   0  0  0  0  0  0  0  0  0  0  0  0
    0.9950   -2.9555    4.3647 C   0  0  0  0  0  0  0  0  0  0  0  0
    1.3205   -4.2732    4.0602 C   0  0  0  0  0  0  0  0  0  0  0  0
    0.4961   -5.0218    3.2136 C   0  0  0  0  0  0  0  0  0  0  0  0
   -0.6631   -4.4430    2.6880 C   0  0  0  0  0  0  0  0  0  0  0  0
   -0.9834   -3.1221    2.9877 C   0  0  0  0  0  0  0  0  0  0  0  0
    0.8466   -6.4306    2.8854 C   0  0  0  0  0  0  0  0  0  0  0  0
    2.5628    0.0026    3.5867 C   0  0  0  0  0  0  0  0  0  0  0  0
    3.9226   -0.0696    3.3348 C   0  0  0  0  0  0  0  0  0  0  0  0
    4.4411   -0.1082    2.0200 C   0  0  0  0  0  0  0  0  0  0  0  0
    3.5546   -0.0580    0.9707 C   0  0  0  0  0  0  0  0  0  0  0  0
    4.8885   -0.1097    4.2775 O   0  0  0  0  0  0  0  0  0  0  0  0
    4.4844   -0.0208    5.6400 C   0  0  0  0  0  0  0  0  0  0  0  0
    2.0358   -0.0125   -1.1514 O   0  0  0  0  0  0  0  0  0  0  0  0
    1.4319   -0.0117   -2.4194 C   0  0  0  0  0  0  0  0  0  0  0  0
    2.2130   -0.0166   -3.3262 O   0  0  0  0  0  0  0  0  0  0  0  0
   -0.0180   -0.0090   -2.4291 C   0  0  1  0  0  0  0  0  0  0  0  0
   -0.7363   -0.0051   -3.6318 C   0  0  0  0  0  0  0  0  0  0  0  0
   -2.1208   -0.0096   -3.6002 C   0  0  0  0  0  0  0  0  0  0  0  0
   -2.8012   -0.0206   -2.3709 C   0  0  0  0  0  0  0  0  0  0  0  0
   -2.1096   -0.0205   -1.1728 C   0  0  0  0  0  0  0  0  0  0  0  0
   -0.7011   -0.0104   -1.1978 C   0  0  0  0  0  0  0  0  0  0  0  0
   -0.3132    0.2880    1.9489 H   0  0  0  0  0  0  0  0  0  0  0  0
    1.6517   -2.3864    5.0325 H   0  0  0  0  0  0  0  0  0  0  0  0
    2.2198   -4.7204    4.4773 H   0  0  0  0  0  0  0  0  0  0  0  0
   -1.3141   -5.0246    2.0390 H   0  0  0  0  0  0  0  0  0  0  0  0
   -1.8938   -2.6843    2.5604 H   0  0  0  0  0  0  0  0  0  0  0  0
    0.4161   -6.7624    1.9295 H   0  0  0  0  0  0  0  0  0  0  0  0
    0.4749   -7.1192    3.6609 H   0  0  0  0  0  0  0  0  0  0  0  0
    1.9331   -6.5864    2.8141 H   0  0  0  0  0  0  0  0  0  0  0  0
    2.1978    0.1022    4.6097 H   0  0  0  0  0  0  0  0  0  0  0  0
    5.5140   -0.1656    1.8658 H   0  0  0  0  0  0  0  0  0  0  0  0
    3.9429   -0.0720   -0.0571 H   0  0  0  0  0  0  0  0  0  0  0  0
    5.4440   -0.0686    6.1704 H   0  0  0  0  0  0  0  0  0  0  0  0
    3.8468   -0.8666    5.9152 H   0  0  0  0  0  0  0  0  0  0  0  0
    3.9817    0.9327    5.8355 H   0  0  0  0  0  0  0  0  0  0  0  0
   -0.1936    0.0025   -4.5811 H   0  0  0  0  0  0  0  0  0  0  0  0
   -2.6901   -0.0035   -4.5275 H   0  0  0  0  0  0  0  0  0  0  0  0
   -3.8927   -0.0270   -2.3670 H   0  0  0  0  0  0  0  0  0  0  0  0
   -2.6248   -0.0256   -0.2121 H   0  0  0  0  0  0  0  0  0  0  0  0
  1  2  2  0  0  0  0
  2  3  1  0  0  0  0
  3  4  1  0  0  0  0
  4  5  1  0  0  0  0
  4 16  2  0  0  0  0
  5  6  1  0  0  0  0
  6  7  2  0  0  0  0
  8  6  2  0  0  0  0
  9  6  1  0  0  0  0
  9 10  2  0  0  0  0
 10 32  1  0  0  0  0
 11 10  1  0  0  0  0
 11 33  1  0  0  0  0
 12 11  2  0  0  0  0
 13 14  2  0  0  0  0
 13 12  1  0  0  0  0
 14  9  1  0  0  0  0
 15 12  1  0  0  0  0
 15 37  1  0  0  0  0
 16 39  1  0  0  0  0
 17 16  1  0  0  0  0
 17 20  1  0  0  0  0
 18 17  2  0  0  0  0
 19  3  2  0  0  0  0
 19 18  1  0  0  0  0
 20 21  1  0  0  0  0
 21 44  1  0  0  0  0
 21 43  1  0  0  0  0
 21 42  1  0  0  0  0
 22  2  1  0  0  0  0
 23 22  1  0  0  0  0
 24 23  2  0  0  0  0
 25 26  1  6  0  0  0
 25 23  1  0  0  0  0
 25 30  1  0  0  0  0
 26 27  2  0  0  0  0
 27 28  1  0  0  0  0
 28 47  1  0  0  0  0
 28 29  2  0  0  0  0
 29 48  1  0  0  0  0
 30 29  1  0  0  0  0
 30  1  2  0  0  0  0
 31  5  1  0  0  0  0
 34 13  1  0  0  0  0
 35 14  1  0  0  0  0
 36 15  1  0  0  0  0
 38 15  1  0  0  0  0
 40 18  1  0  0  0  0
 41 19  1  0  0  0  0
 45 26  1  0  0  0  0
 46 27  1  0  0  0  0
M  RAD  1  25   2
M  END
$$$$
