rmsd79.gzmat
 OpenBabel08211713393D

 48 51  0  0  1  0  0  0  0  0999 V2000
    0.0000    0.0000    0.0000 N   0  0  0  0  0  0  0  0  0  0  0  0
    1.3099    0.0000    0.0000 C   0  0  0  0  0  0  0  0  0  0  0  0
    2.1577    0.0000    1.1730 C   0  0  0  0  0  0  0  0  0  0  0  0
    1.6604   -0.0846    2.5093 C   0  0  0  0  0  0  0  0  0  0  0  0
    0.3084   -0.0563    2.7642 N   0  0  0  0  0  0  0  0  0  0  0  0
   -0.4858   -0.0401    4.3310 S   0  0  0  0  0  0  0  0  0  0  0  0
   -1.8724    0.1211    3.9799 O   0  0  0  0  0  0  0  0  0  0  0  0
   -0.0190   -1.1646    5.0986 O   0  0  0  0  0  0  0  0  0  0  0  0
    0.1458    1.4135    5.0765 C   0  0  0  0  0  0  0  0  0  0  0  0
    0.0027    2.6533    4.4564 C   0  0  0  0  0  0  0  0  0  0  0  0
    0.5482    3.7929    5.0428 C   0  0  0  0  0  0  0  0  0  0  0  0
    1.2351    3.6996    6.2557 C   0  0  0  0  0  0  0  0  0  0  0  0
    1.3626    2.4550    6.8834 C   0  0  0  0  0  0  0  0  0  0  0  0
    0.8183    1.3187    6.2958 C   0  0  0  0  0  0  0  0  0  0  0  0
    1.8292    4.9082    6.8895 C   0  0  0  0  0  0  0  0  0  0  0  0
    2.5853   -0.1525    3.5777 C   0  0  0  0  0  0  0  0  0  0  0  0
    3.9419   -0.0525    3.3187 C   0  0  0  0  0  0  0  0  0  0  0  0
    4.4499    0.0728    2.0053 C   0  0  0  0  0  0  0  0  0  0  0  0
    3.5537    0.0802    0.9634 C   0  0  0  0  0  0  0  0  0  0  0  0
    4.9158   -0.0612    4.2540 O   0  0  0  0  0  0  0  0  0  0  0  0
    4.5221   -0.1833    5.6166 C   0  0  0  0  0  0  0  0  0  0  0  0
    2.0337   -0.0020   -1.1529 O   0  0  0  0  0  0  0  0  0  0  0  0
    1.4284   -0.0247   -2.4204 C   0  0  0  0  0  0  0  0  0  0  0  0
    2.2090   -0.0271   -3.3274 O   0  0  0  0  0  0  0  0  0  0  0  0
   -0.0213   -0.0376   -2.4287 C   0  0  2  0  0  0  0  0  0  0  0  0
   -0.7413   -0.0657   -3.6300 C   0  0  0  0  0  0  0  0  0  0  0  0
   -2.1256   -0.0686   -3.5973 C   0  0  0  0  0  0  0  0  0  0  0  0
   -2.8045   -0.0487   -2.3674 C   0  0  0  0  0  0  0  0  0  0  0  0
   -2.1113   -0.0272   -1.1703 C   0  0  0  0  0  0  0  0  0  0  0  0
   -0.7027   -0.0207   -1.1966 C   0  0  0  0  0  0  0  0  0  0  0  0
   -0.3202   -0.0871    1.9359 H   0  0  0  0  0  0  0  0  0  0  0  0
   -0.5320    2.7527    3.5052 H   0  0  0  0  0  0  0  0  0  0  0  0
    0.4407    4.7576    4.5515 H   0  0  0  0  0  0  0  0  0  0  0  0
    1.8862    2.3796    7.8333 H   0  0  0  0  0  0  0  0  0  0  0  0
    0.9265    0.3526    6.8052 H   0  0  0  0  0  0  0  0  0  0  0  0
    2.8988    4.7668    7.1092 H   0  0  0  0  0  0  0  0  0  0  0  0
    1.3343    5.1425    7.8454 H   0  0  0  0  0  0  0  0  0  0  0  0
    1.7501    5.8071    6.2621 H   0  0  0  0  0  0  0  0  0  0  0  0
    2.2427   -0.3227    4.5924 H   0  0  0  0  0  0  0  0  0  0  0  0
    5.5207    0.1481    1.8461 H   0  0  0  0  0  0  0  0  0  0  0  0
    3.9346    0.1537   -0.0649 H   0  0  0  0  0  0  0  0  0  0  0  0
    5.4874   -0.1616    6.1395 H   0  0  0  0  0  0  0  0  0  0  0  0
    4.0106   -1.1366    5.7901 H   0  0  0  0  0  0  0  0  0  0  0  0
    3.8998    0.6647    5.9190 H   0  0  0  0  0  0  0  0  0  0  0  0
   -0.2001   -0.0856   -4.5794 H   0  0  0  0  0  0  0  0  0  0  0  0
   -2.6957   -0.0883   -4.5238 H   0  0  0  0  0  0  0  0  0  0  0  0
   -3.8958   -0.0524   -2.3624 H   0  0  0  0  0  0  0  0  0  0  0  0
   -2.6242   -0.0182   -0.2084 H   0  0  0  0  0  0  0  0  0  0  0  0
  1  2  2  0  0  0  0
  2  3  1  0  0  0  0
  3  4  1  0  0  0  0
  4  5  1  0  0  0  0
  4 16  2  0  0  0  0
  5  6  1  0  0  0  0
  6  9  1  0  0  0  0
  6  8  2  0  0  0  0
  7  6  2  0  0  0  0
  9 14  2  0  0  0  0
 10 11  2  0  0  0  0
 10  9  1  0  0  0  0
 11 12  1  0  0  0  0
 12 13  2  0  0  0  0
 12 15  1  0  0  0  0
 13 34  1  0  0  0  0
 14 35  1  0  0  0  0
 14 13  1  0  0  0  0
 15 36  1  0  0  0  0
 15 37  1  0  0  0  0
 16 39  1  0  0  0  0
 17 16  1  0  0  0  0
 17 20  1  0  0  0  0
 18 17  2  0  0  0  0
 19  3  2  0  0  0  0
 19 18  1  0  0  0  0
 20 21  1  0  0  0  0
 21 43  1  0  0  0  0
 21 44  1  0  0  0  0
 21 42  1  0  0  0  0
 22  2  1  0  0  0  0
 23 22  1  0  0  0  0
 24 23  2  0  0  0  0
 25 26  1  6  0  0  0
 25 23  1  0  0  0  0
 25 30  1  0  0  0  0
 26 27  2  0  0  0  0
 27 28  1  0  0  0  0
 28 47  1  0  0  0  0
 28 29  2  0  0  0  0
 29 48  1  0  0  0  0
 30 29  1  0  0  0  0
 30  1  2  0  0  0  0
 31  5  1  0  0  0  0
 32 10  1  0  0  0  0
 33 11  1  0  0  0  0
 38 15  1  0  0  0  0
 40 18  1  0  0  0  0
 41 19  1  0  0  0  0
 45 26  1  0  0  0  0
 46 27  1  0  0  0  0
M  RAD  1  25   2
M  END
$$$$
