rmsd7.gzmat
 OpenBabel08211713393D

 48 51  0  0  1  0  0  0  0  0999 V2000
    0.0000    0.0000    0.0000 N   0  0  0  0  0  0  0  0  0  0  0  0
    1.3100    0.0000    0.0000 C   0  0  0  0  0  0  0  0  0  0  0  0
    2.1582    0.0000    1.1731 C   0  0  0  0  0  0  0  0  0  0  0  0
    1.6602    0.1256    2.5036 C   0  0  0  0  0  0  0  0  0  0  0  0
    0.3038    0.2003    2.7531 N   0  0  0  0  0  0  0  0  0  0  0  0
   -0.4503    1.0714    4.0797 S   0  0  0  0  0  0  0  0  0  0  0  0
   -1.8585    0.9215    3.8185 O   0  0  0  0  0  0  0  0  0  0  0  0
    0.1495    0.6428    5.3172 O   0  0  0  0  0  0  0  0  0  0  0  0
    0.0588    2.7094    3.7426 C   0  0  0  0  0  0  0  0  0  0  0  0
   -0.5672    3.4384    2.7306 C   0  0  0  0  0  0  0  0  0  0  0  0
   -0.1251    4.7206    2.4219 C   0  0  0  0  0  0  0  0  0  0  0  0
    0.9449    5.2848    3.1252 C   0  0  0  0  0  0  0  0  0  0  0  0
    1.5603    4.5561    4.1471 C   0  0  0  0  0  0  0  0  0  0  0  0
    1.1159    3.2736    4.4556 C   0  0  0  0  0  0  0  0  0  0  0  0
    1.4270    6.6481    2.7721 C   0  0  0  0  0  0  0  0  0  0  0  0
    2.5757    0.1700    3.5781 C   0  0  0  0  0  0  0  0  0  0  0  0
    3.9350    0.1007    3.3228 C   0  0  0  0  0  0  0  0  0  0  0  0
    4.4470   -0.0342    2.0114 C   0  0  0  0  0  0  0  0  0  0  0  0
    3.5539   -0.0927    0.9684 C   0  0  0  0  0  0  0  0  0  0  0  0
    4.9079    0.1431    4.2580 O   0  0  0  0  0  0  0  0  0  0  0  0
    4.5108    0.2699    5.6198 C   0  0  0  0  0  0  0  0  0  0  0  0
    2.0355    0.0173   -1.1519 O   0  0  0  0  0  0  0  0  0  0  0  0
    1.4307    0.0415   -2.4190 C   0  0  0  0  0  0  0  0  0  0  0  0
    2.2108    0.0513   -3.3268 O   0  0  0  0  0  0  0  0  0  0  0  0
   -0.0192    0.0529   -2.4279 C   0  0  1  0  0  0  0  0  0  0  0  0
   -0.7376    0.0872   -3.6298 C   0  0  0  0  0  0  0  0  0  0  0  0
   -2.1220    0.0892   -3.5982 C   0  0  0  0  0  0  0  0  0  0  0  0
   -2.8023    0.0583   -2.3695 C   0  0  0  0  0  0  0  0  0  0  0  0
   -2.1104    0.0297   -1.1717 C   0  0  0  0  0  0  0  0  0  0  0  0
   -0.7019    0.0261   -1.1970 C   0  0  0  0  0  0  0  0  0  0  0  0
   -0.3204   -0.0458    1.9615 H   0  0  0  0  0  0  0  0  0  0  0  0
   -1.4079    3.0158    2.1675 H   0  0  0  0  0  0  0  0  0  0  0  0
   -0.6089    5.2852    1.6279 H   0  0  0  0  0  0  0  0  0  0  0  0
    2.3905    4.9892    4.6995 H   0  0  0  0  0  0  0  0  0  0  0  0
    1.6089    2.7200    5.2627 H   0  0  0  0  0  0  0  0  0  0  0  0
    1.9802    6.6346    1.8182 H   0  0  0  0  0  0  0  0  0  0  0  0
    2.1040    7.0738    3.5256 H   0  0  0  0  0  0  0  0  0  0  0  0
    0.5976    7.3607    2.6500 H   0  0  0  0  0  0  0  0  0  0  0  0
    2.2114    0.1966    4.6049 H   0  0  0  0  0  0  0  0  0  0  0  0
    5.5196   -0.0942    1.8558 H   0  0  0  0  0  0  0  0  0  0  0  0
    3.9353   -0.2084   -0.0557 H   0  0  0  0  0  0  0  0  0  0  0  0
    5.4759    0.2765    6.1430 H   0  0  0  0  0  0  0  0  0  0  0  0
    3.9086   -0.5903    5.9328 H   0  0  0  0  0  0  0  0  0  0  0  0
    3.9743    1.2098    5.7833 H   0  0  0  0  0  0  0  0  0  0  0  0
   -0.1953    0.1124   -4.5786 H   0  0  0  0  0  0  0  0  0  0  0  0
   -2.6913    0.1133   -4.5248 H   0  0  0  0  0  0  0  0  0  0  0  0
   -3.8939    0.0566   -2.3658 H   0  0  0  0  0  0  0  0  0  0  0  0
   -2.6256    0.0070   -0.2112 H   0  0  0  0  0  0  0  0  0  0  0  0
  1  2  2  0  0  0  0
  2  3  1  0  0  0  0
  3  4  1  0  0  0  0
  4  5  1  0  0  0  0
  4 16  2  0  0  0  0
  5  6  1  0  0  0  0
  6  8  2  0  0  0  0
  7  6  2  0  0  0  0
  9  6  1  0  0  0  0
  9 14  2  0  0  0  0
 10  9  1  0  0  0  0
 11 10  2  0  0  0  0
 11 12  1  0  0  0  0
 12 13  2  0  0  0  0
 13 14  1  0  0  0  0
 13 34  1  0  0  0  0
 14 35  1  0  0  0  0
 15 12  1  0  0  0  0
 15 37  1  0  0  0  0
 16 39  1  0  0  0  0
 17 16  1  0  0  0  0
 17 20  1  0  0  0  0
 18 17  2  0  0  0  0
 19  3  2  0  0  0  0
 19 18  1  0  0  0  0
 20 21  1  0  0  0  0
 21 44  1  0  0  0  0
 21 43  1  0  0  0  0
 21 42  1  0  0  0  0
 22  2  1  0  0  0  0
 23 22  1  0  0  0  0
 24 23  2  0  0  0  0
 25 26  1  6  0  0  0
 25 23  1  0  0  0  0
 25 30  1  0  0  0  0
 26 27  2  0  0  0  0
 27 28  1  0  0  0  0
 28 47  1  0  0  0  0
 28 29  2  0  0  0  0
 29 48  1  0  0  0  0
 30 29  1  0  0  0  0
 30  1  2  0  0  0  0
 31  5  1  0  0  0  0
 32 10  1  0  0  0  0
 33 11  1  0  0  0  0
 36 15  1  0  0  0  0
 38 15  1  0  0  0  0
 40 18  1  0  0  0  0
 41 19  1  0  0  0  0
 45 26  1  0  0  0  0
 46 27  1  0  0  0  0
M  RAD  1  25   2
M  END
$$$$
