rmsd103.gzmat
 OpenBabel08211713393D

 48 51  0  0  1  0  0  0  0  0999 V2000
    0.0000    0.0000    0.0000 N   0  0  0  0  0  0  0  0  0  0  0  0
    1.3100    0.0000    0.0000 C   0  0  0  0  0  0  0  0  0  0  0  0
    2.1548    0.0000    1.1752 C   0  0  0  0  0  0  0  0  0  0  0  0
    1.6506    0.0965    2.5063 C   0  0  0  0  0  0  0  0  0  0  0  0
    0.2953    0.1645    2.7542 N   0  0  0  0  0  0  0  0  0  0  0  0
   -0.4609    0.9246    4.1463 S   0  0  0  0  0  0  0  0  0  0  0  0
   -1.8606    0.9008    3.8102 O   0  0  0  0  0  0  0  0  0  0  0  0
    0.0480    0.3129    5.3468 O   0  0  0  0  0  0  0  0  0  0  0  0
    0.1744    2.5505    4.0392 C   0  0  0  0  0  0  0  0  0  0  0  0
   -0.2352    3.3946    3.0076 C   0  0  0  0  0  0  0  0  0  0  0  0
    0.3226    4.6638    2.8821 C   0  0  0  0  0  0  0  0  0  0  0  0
    1.2888    5.0997    3.7931 C   0  0  0  0  0  0  0  0  0  0  0  0
    1.6819    4.2572    4.8389 C   0  0  0  0  0  0  0  0  0  0  0  0
    1.1246    2.9889    4.9616 C   0  0  0  0  0  0  0  0  0  0  0  0
    1.8953    6.4531    3.6684 C   0  0  0  0  0  0  0  0  0  0  0  0
    2.5627    0.1305    3.5849 C   0  0  0  0  0  0  0  0  0  0  0  0
    3.9235    0.0940    3.3317 C   0  0  0  0  0  0  0  0  0  0  0  0
    4.4417   -0.0090    2.0201 C   0  0  0  0  0  0  0  0  0  0  0  0
    3.5527   -0.0636    0.9734 C   0  0  0  0  0  0  0  0  0  0  0  0
    4.8917    0.1436    4.2716 O   0  0  0  0  0  0  0  0  0  0  0  0
    4.4857    0.2604    5.6313 C   0  0  0  0  0  0  0  0  0  0  0  0
    2.0352    0.0175   -1.1519 O   0  0  0  0  0  0  0  0  0  0  0  0
    1.4298    0.0430   -2.4193 C   0  0  0  0  0  0  0  0  0  0  0  0
    2.2096    0.0581   -3.3270 O   0  0  0  0  0  0  0  0  0  0  0  0
   -0.0199    0.0518   -2.4283 C   0  0  2  0  0  0  0  0  0  0  0  0
   -0.7394    0.0848   -3.6298 C   0  0  0  0  0  0  0  0  0  0  0  0
   -2.1238    0.0916   -3.5963 C   0  0  0  0  0  0  0  0  0  0  0  0
   -2.8031    0.0655   -2.3667 C   0  0  0  0  0  0  0  0  0  0  0  0
   -2.1102    0.0348   -1.1698 C   0  0  0  0  0  0  0  0  0  0  0  0
   -0.7021    0.0278   -1.1964 C   0  0  0  0  0  0  0  0  0  0  0  0
   -0.3303   -0.0490    1.9539 H   0  0  0  0  0  0  0  0  0  0  0  0
   -0.9942    3.0758    2.2836 H   0  0  0  0  0  0  0  0  0  0  0  0
    0.0075    5.3149    2.0697 H   0  0  0  0  0  0  0  0  0  0  0  0
    2.4276    4.5957    5.5539 H   0  0  0  0  0  0  0  0  0  0  0  0
    1.4443    2.3453    5.7893 H   0  0  0  0  0  0  0  0  0  0  0  0
    2.9932    6.4182    3.7429 H   0  0  0  0  0  0  0  0  0  0  0  0
    1.5410    7.1210    4.4698 H   0  0  0  0  0  0  0  0  0  0  0  0
    1.6587    6.9449    2.7144 H   0  0  0  0  0  0  0  0  0  0  0  0
    2.1974    0.1249    4.6102 H   0  0  0  0  0  0  0  0  0  0  0  0
    5.5155   -0.0473    1.8673 H   0  0  0  0  0  0  0  0  0  0  0  0
    3.9385   -0.1518   -0.0516 H   0  0  0  0  0  0  0  0  0  0  0  0
    5.4477    0.2767    6.1597 H   0  0  0  0  0  0  0  0  0  0  0  0
    3.8918   -0.6079    5.9378 H   0  0  0  0  0  0  0  0  0  0  0  0
    3.9386    1.1937    5.7945 H   0  0  0  0  0  0  0  0  0  0  0  0
   -0.1984    0.1049   -4.5800 H   0  0  0  0  0  0  0  0  0  0  0  0
   -2.6938    0.1168   -4.5226 H   0  0  0  0  0  0  0  0  0  0  0  0
   -3.8946    0.0697   -2.3613 H   0  0  0  0  0  0  0  0  0  0  0  0
   -2.6239    0.0152   -0.2085 H   0  0  0  0  0  0  0  0  0  0  0  0
  1  2  2  0  0  0  0
  2  3  1  0  0  0  0
  3  4  1  0  0  0  0
  4  5  1  0  0  0  0
  4 16  2  0  0  0  0
  5  6  1  0  0  0  0
  6  8  2  0  0  0  0
  7  6  2  0  0  0  0
  9  6  1  0  0  0  0
  9 14  2  0  0  0  0
 10  9  1  0  0  0  0
 11 10  2  0  0  0  0
 11 12  1  0  0  0  0
 12 13  2  0  0  0  0
 13 14  1  0  0  0  0
 13 34  1  0  0  0  0
 14 35  1  0  0  0  0
 15 36  1  0  0  0  0
 15 12  1  0  0  0  0
 15 37  1  0  0  0  0
 16 39  1  0  0  0  0
 17 16  1  0  0  0  0
 17 20  1  0  0  0  0
 18 17  2  0  0  0  0
 19  3  2  0  0  0  0
 19 18  1  0  0  0  0
 20 21  1  0  0  0  0
 21 44  1  0  0  0  0
 21 43  1  0  0  0  0
 21 42  1  0  0  0  0
 22  2  1  0  0  0  0
 23 22  1  0  0  0  0
 24 23  2  0  0  0  0
 25 26  1  1  0  0  0
 25 23  1  0  0  0  0
 25 30  1  0  0  0  0
 26 27  2  0  0  0  0
 27 28  1  0  0  0  0
 28 47  1  0  0  0  0
 28 29  2  0  0  0  0
 29 48  1  0  0  0  0
 30 29  1  0  0  0  0
 30  1  2  0  0  0  0
 31  5  1  0  0  0  0
 32 10  1  0  0  0  0
 33 11  1  0  0  0  0
 38 15  1  0  0  0  0
 40 18  1  0  0  0  0
 41 19  1  0  0  0  0
 45 26  1  0  0  0  0
 46 27  1  0  0  0  0
M  RAD  1  25   2
M  END
$$$$
