rmsd137.gzmat
 OpenBabel08211713393D

 48 51  0  0  1  0  0  0  0  0999 V2000
    0.0000    0.0000    0.0000 N   0  0  0  0  0  0  0  0  0  0  0  0
    1.3101    0.0000    0.0000 C   0  0  0  0  0  0  0  0  0  0  0  0
    2.1574    0.0000    1.1736 C   0  0  0  0  0  0  0  0  0  0  0  0
    1.6578   -0.0162    2.5114 C   0  0  0  0  0  0  0  0  0  0  0  0
    0.3077   -0.1101    2.7630 N   0  0  0  0  0  0  0  0  0  0  0  0
   -0.4620   -0.4787    4.2983 S   0  0  0  0  0  0  0  0  0  0  0  0
    0.0005    0.4598    5.2877 O   0  0  0  0  0  0  0  0  0  0  0  0
   -1.8520   -0.5886    3.9410 O   0  0  0  0  0  0  0  0  0  0  0  0
    0.2082   -2.0487    4.6838 C   0  0  0  0  0  0  0  0  0  0  0  0
    1.0399   -2.1879    5.7959 C   0  0  0  0  0  0  0  0  0  0  0  0
    1.6281   -3.4157    6.0780 C   0  0  0  0  0  0  0  0  0  0  0  0
    1.3805   -4.5187    5.2528 C   0  0  0  0  0  0  0  0  0  0  0  0
    0.5264   -4.3818    4.1553 C   0  0  0  0  0  0  0  0  0  0  0  0
   -0.0593   -3.1505    3.8729 C   0  0  0  0  0  0  0  0  0  0  0  0
    2.0261   -5.8253    5.5552 C   0  0  0  0  0  0  0  0  0  0  0  0
    2.5764    0.0390    3.5855 C   0  0  0  0  0  0  0  0  0  0  0  0
    3.9362    0.0441    3.3255 C   0  0  0  0  0  0  0  0  0  0  0  0
    4.4501    0.0253    2.0085 C   0  0  0  0  0  0  0  0  0  0  0  0
    3.5562    0.0174    0.9647 C   0  0  0  0  0  0  0  0  0  0  0  0
    4.9081    0.0745    4.2626 O   0  0  0  0  0  0  0  0  0  0  0  0
    4.5076    0.0879    5.6287 C   0  0  0  0  0  0  0  0  0  0  0  0
    2.0337    0.0048   -1.1534 O   0  0  0  0  0  0  0  0  0  0  0  0
    1.4279    0.0265   -2.4207 C   0  0  0  0  0  0  0  0  0  0  0  0
    2.2074    0.0280   -3.3289 O   0  0  0  0  0  0  0  0  0  0  0  0
   -0.0216    0.0410   -2.4287 C   0  0  2  0  0  0  0  0  0  0  0  0
   -0.7413    0.0724   -3.6303 C   0  0  0  0  0  0  0  0  0  0  0  0
   -2.1256    0.0836   -3.5972 C   0  0  0  0  0  0  0  0  0  0  0  0
   -2.8045    0.0659   -2.3673 C   0  0  0  0  0  0  0  0  0  0  0  0
   -2.1114    0.0365   -1.1703 C   0  0  0  0  0  0  0  0  0  0  0  0
   -0.7029    0.0246   -1.1964 C   0  0  0  0  0  0  0  0  0  0  0  0
   -0.3247   -0.0098    1.9446 H   0  0  0  0  0  0  0  0  0  0  0  0
    1.2391   -1.3367    6.4585 H   0  0  0  0  0  0  0  0  0  0  0  0
    2.2826   -3.5221    6.9397 H   0  0  0  0  0  0  0  0  0  0  0  0
    0.3203   -5.2380    3.5162 H   0  0  0  0  0  0  0  0  0  0  0  0
   -0.7253   -3.0677    3.0063 H   0  0  0  0  0  0  0  0  0  0  0  0
    3.1193   -5.7267    5.6428 H   0  0  0  0  0  0  0  0  0  0  0  0
    1.8378   -6.5871    4.7859 H   0  0  0  0  0  0  0  0  0  0  0  0
    1.6648   -6.2388    6.5098 H   0  0  0  0  0  0  0  0  0  0  0  0
    2.2219    0.1313    4.6082 H   0  0  0  0  0  0  0  0  0  0  0  0
    5.5238    0.0293    1.8494 H   0  0  0  0  0  0  0  0  0  0  0  0
    3.9407    0.0210   -0.0649 H   0  0  0  0  0  0  0  0  0  0  0  0
    5.4714    0.1391    6.1525 H   0  0  0  0  0  0  0  0  0  0  0  0
    3.9762   -0.8345    5.8831 H   0  0  0  0  0  0  0  0  0  0  0  0
    3.9011    0.9734    5.8516 H   0  0  0  0  0  0  0  0  0  0  0  0
   -0.2001    0.0892   -4.5802 H   0  0  0  0  0  0  0  0  0  0  0  0
   -2.6958    0.1079   -4.5233 H   0  0  0  0  0  0  0  0  0  0  0  0
   -3.8962    0.0777   -2.3619 H   0  0  0  0  0  0  0  0  0  0  0  0
   -2.6252    0.0262   -0.2090 H   0  0  0  0  0  0  0  0  0  0  0  0
  1  2  2  0  0  0  0
  2  3  1  0  0  0  0
  3  4  1  0  0  0  0
  4  5  1  0  0  0  0
  4 16  2  0  0  0  0
  5  6  1  0  0  0  0
  6  9  1  0  0  0  0
  6  7  2  0  0  0  0
  8  6  2  0  0  0  0
  9 10  2  0  0  0  0
 10 11  1  0  0  0  0
 10 32  1  0  0  0  0
 11 33  1  0  0  0  0
 12 15  1  0  0  0  0
 12 11  2  0  0  0  0
 13 12  1  0  0  0  0
 14 13  2  0  0  0  0
 14  9  1  0  0  0  0
 15 36  1  0  0  0  0
 15 38  1  0  0  0  0
 16 39  1  0  0  0  0
 17 16  1  0  0  0  0
 17 20  1  0  0  0  0
 18 17  2  0  0  0  0
 19  3  2  0  0  0  0
 19 18  1  0  0  0  0
 20 21  1  0  0  0  0
 21 44  1  0  0  0  0
 21 43  1  0  0  0  0
 21 42  1  0  0  0  0
 22  2  1  0  0  0  0
 23 22  1  0  0  0  0
 24 23  2  0  0  0  0
 25 26  1  1  0  0  0
 25 23  1  0  0  0  0
 25 30  1  0  0  0  0
 26 27  2  0  0  0  0
 27 28  1  0  0  0  0
 28 47  1  0  0  0  0
 28 29  2  0  0  0  0
 29 48  1  0  0  0  0
 30 29  1  0  0  0  0
 30  1  2  0  0  0  0
 31  5  1  0  0  0  0
 34 13  1  0  0  0  0
 35 14  1  0  0  0  0
 37 15  1  0  0  0  0
 40 18  1  0  0  0  0
 41 19  1  0  0  0  0
 45 26  1  0  0  0  0
 46 27  1  0  0  0  0
M  RAD  1  25   2
M  END
$$$$
