48
rmsd103.gzmat
N          0.00000        0.00000        0.00000
C          1.31000        0.00000        0.00000
C          2.15480        0.00000        1.17520
C          1.65060        0.09650        2.50630
N          0.29530        0.16450        2.75420
S         -0.46090        0.92460        4.14630
O         -1.86060        0.90080        3.81020
O          0.04800        0.31290        5.34680
C          0.17440        2.55050        4.03920
C         -0.23520        3.39460        3.00760
C          0.32260        4.66380        2.88210
C          1.28880        5.09970        3.79310
C          1.68190        4.25720        4.83890
C          1.12460        2.98890        4.96160
C          1.89530        6.45310        3.66840
C          2.56270        0.13050        3.58490
C          3.92350        0.09400        3.33170
C          4.44170       -0.00900        2.02010
C          3.55270       -0.06360        0.97340
O          4.89170        0.14360        4.27160
C          4.48570        0.26040        5.63130
O          2.03520        0.01750       -1.15190
C          1.42980        0.04300       -2.41930
O          2.20960        0.05810       -3.32700
C         -0.01990        0.05180       -2.42830
C         -0.73940        0.08480       -3.62980
C         -2.12380        0.09160       -3.59630
C         -2.80310        0.06550       -2.36670
C         -2.11020        0.03480       -1.16980
C         -0.70210        0.02780       -1.19640
H         -0.33030       -0.04900        1.95390
H         -0.99420        3.07580        2.28360
H          0.00750        5.31490        2.06970
H          2.42760        4.59570        5.55390
H          1.44430        2.34530        5.78930
H          2.99320        6.41820        3.74290
H          1.54100        7.12100        4.46980
H          1.65870        6.94490        2.71440
H          2.19740        0.12490        4.61020
H          5.51550       -0.04730        1.86730
H          3.93850       -0.15180       -0.05160
H          5.44770        0.27670        6.15970
H          3.89180       -0.60790        5.93780
H          3.93860        1.19370        5.79450
H         -0.19840        0.10490       -4.58000
H         -2.69380        0.11680       -4.52260
H         -3.89460        0.06970       -2.36130
H         -2.62390        0.01520       -0.20850
