48
rmsd134.gzmat
N          0.00000        0.00000        0.00000
C          1.31020        0.00000        0.00000
C          2.15720        0.00000        1.17400
C          1.65390        0.02970        2.50860
N          0.29690        0.06950        2.76010
S         -0.51190       -0.59380        4.17250
O          0.15790       -0.11910        5.35590
O         -1.90400       -0.32440        3.92050
C         -0.18540       -2.29910        3.97350
C          0.92040       -2.87840        4.59640
C          1.21980       -4.21940        4.37850
C          0.40970       -4.99230        3.53970
C         -0.70980       -4.41310        2.93430
C         -1.00530       -3.07030        3.14980
C          0.73600       -6.42530        3.30450
C          2.56740        0.02540        3.58590
C          3.92710       -0.03810        3.33210
C          4.44360       -0.09180        2.01730
C          3.55480       -0.05670        0.96930
O          4.89490       -0.05360        4.27360
C          4.49180        0.04850        5.63570
O          2.03520       -0.00840       -1.15210
C          1.43040       -0.00160       -2.41980
O          2.21080        0.00460       -3.32720
C         -0.01960       -0.00420       -2.42870
C         -0.73840       -0.00280       -3.63100
C         -2.12280       -0.00420       -3.59870
C         -2.80270       -0.00670       -2.36930
C         -2.11070       -0.00780       -1.17150
C         -0.70180       -0.00480       -1.19710
H         -0.31370        0.25850        1.94300
H          1.56620       -2.29030        5.25850
H          2.08880       -4.66610        4.85620
H         -1.34900       -5.01120        2.28820
H         -1.88570       -2.63390        2.66180
H          0.30470       -6.81110        2.36980
H          0.34880       -7.05570        4.12100
H          1.82050       -6.60230        3.25020
H          2.20610        0.13100        4.60880
H          5.51600       -0.14810        1.86190
H          3.94220       -0.07950       -0.05860
H          5.45440        0.04910        6.16370
H          3.88850       -0.81700        5.92770
H          3.95310        0.98560        5.81580
H         -0.19620        0.00140       -4.58060
H         -2.69280       -0.00210       -4.52550
H         -3.89430       -0.00630       -2.36560
H         -2.62570       -0.00820       -0.21080
