38

Br        -0.02220       -0.16920       -0.07990
C          1.88590       -0.06690       -0.04330
C          2.56860       -0.02390        1.18000
C          3.96750        0.06860        1.15460
C          4.66640        0.08540       -0.05220
C          3.96660        0.03180       -1.26060
C          2.57220       -0.03880       -1.25990
C          1.87290        0.05730        2.52060
O          1.87680        1.12380        3.12060
N          1.28650       -1.07820        3.00490
C          0.56370       -0.95980        4.27300
C          1.36380       -1.39310        5.48330
C          2.53690       -0.70470        5.83260
C          3.30070       -1.12000        6.92380
C          2.90120       -2.22330        7.68670
C          1.72760       -2.90360        7.35550
C          0.96530       -2.48820        6.25880
C          1.52110       -2.40510        2.40510
C          2.74140       -3.10630        3.01450
C          0.27110       -3.28310        2.44630
H          4.50310        0.13240        2.10430
H          5.75660        0.14920       -0.04980
H          4.50360        0.05100       -2.21170
H          2.01410       -0.06990       -2.19660
H         -0.36630       -1.54020        4.20990
H          0.29600        0.10040        4.36980
H          2.83500        0.16390        5.24150
H          4.21180       -0.57640        7.18650
H          3.50130       -2.54720        8.54050
H          1.40450       -3.76210        7.94940
H          0.04980       -3.02730        5.99930
H          1.74220       -2.21930        1.34690
H          2.58020       -3.35610        4.07240
H          3.63060       -2.46160        2.94860
H          2.95270       -4.03820        2.46630
H          0.03290       -3.61920        3.46680
H          0.43930       -4.18360        1.83680
H         -0.59780       -2.74900        2.03430
