38
rmsd50.gzmat
Br         0.00000        0.00000        0.00000
C          1.89650        0.00000        0.00000
C          2.58820        0.00000        1.20580
C          3.98290        0.02030        1.19880
C          4.66760        0.01780       -0.01490
C          3.96220        0.00140       -1.21720
C          2.56750       -0.00280       -1.21710
C          1.88920        0.04080        2.52450
O          1.80220        1.07800        3.15320
N          1.29970       -1.12310        2.98260
C          0.67490       -1.06960        4.31380
C          1.63180       -1.42080        5.42420
C          2.67560       -0.55120        5.74390
C          3.56570       -0.87810        6.76320
C          3.40980       -2.06910        7.47130
C          2.36020       -2.93140        7.16050
C          1.46940       -2.60760        6.13920
C          1.62980       -2.43430        2.38760
C          2.93150       -3.00970        2.96730
C          0.47430       -3.42910        2.55990
H          4.53130        0.04880        2.14200
H          5.75660        0.03410       -0.02300
H          4.50130       -0.00240       -2.16400
H          2.02530       -0.00540       -2.16240
H         -0.21800       -1.73490        4.31750
H          0.27500       -0.03190        4.47720
H          2.78740        0.38760        5.19460
H          4.38050       -0.20030        7.01030
H          4.10370       -2.32290        8.26940
H          2.23510       -3.85780        7.71680
H          0.65010       -3.28250        5.90290
H          1.77850       -2.27290        1.28260
H          2.83670       -3.24130        4.03490
H          3.76200       -2.30300        2.86700
H          3.21450       -3.93340        2.45310
H          0.36820       -3.76540        3.59650
H          0.64380       -4.32110        1.94550
H         -0.47990       -2.98810        2.24390
