38
rmsd11.gzmat
Br         0.00000        0.00000        0.00000
C          1.89640        0.00000        0.00000
C          2.58610        0.00000        1.20670
C          3.98110       -0.01000        1.20140
C          4.66830       -0.00590       -0.01070
C          3.96440       -0.00190       -1.21440
C          2.56970       -0.00020       -1.21610
C          1.88740       -0.07200        2.52470
O          1.79090       -1.13000        3.11690
N          1.31540        1.08050        3.02970
C          0.72280        0.99220        4.37440
C          1.71510        1.29350        5.46880
C          1.57390        2.43970        6.25190
C          2.50620        2.71880        7.24960
C          3.57580        1.85300        7.46960
C          3.70640        0.69890        6.69860
C          2.77540        0.41620        5.70330
C          1.62950        2.40770        2.46340
C          0.46270        3.38400        2.66730
C          2.92840        2.98350        3.04900
H          4.52880       -0.03260        2.14500
H          5.75770       -0.01330       -0.01600
H          4.50520       -0.00600       -2.16040
H          2.02960       -0.00380       -2.16290
H          0.31290       -0.04500        4.51560
H         -0.15960        1.66920        4.42300
H          0.73990        3.11820        6.08880
H          2.39800        3.61390        7.85820
H          4.30410        2.07360        8.24670
H          4.53310        0.01430        6.87810
H          2.86690       -0.49610        5.10800
H          1.77220        2.27390        1.35380
H          0.36060        3.69630        3.71200
H         -0.48810        2.93700        2.34810
H          0.61540        4.29050        2.07050
H          2.83470        3.19810        4.12100
H          3.20430        3.91670        2.54790
H          3.76380        2.28330        2.93660
