38
rmsd108.gzmat
Br         0.00000        0.00000        0.00000
C          1.89640        0.00000        0.00000
C          2.58830        0.00000        1.20620
C          3.98270       -0.00610        1.19860
C          4.66720        0.00570       -0.01530
C          3.96150        0.01280       -1.21770
C          2.56630        0.00600       -1.21750
C          1.88290       -0.06080        2.52110
O          1.81340       -1.10170        3.14560
N          1.25670        1.08630        2.97250
C          0.55430        0.99840        4.26230
C          1.40890        1.40490        5.43480
C          1.06560        2.52320        6.19520
C          1.86080        2.90070        7.27530
C          2.99750        2.16250        7.59760
C          3.33340        1.03760        6.84540
C          2.53700        0.65420        5.76990
C          1.60400        2.41370        2.42570
C          0.42110        3.38460        2.53340
C          2.84680        3.00120        3.11350
H          4.53240       -0.03030        2.14100
H          5.75640        0.00610       -0.02360
H          4.50040        0.02030       -2.16430
H          2.02320        0.00210       -2.16270
H          0.20490       -0.06040        4.40840
H         -0.37470        1.61010        4.20010
H          0.17840        3.10210        5.95050
H          1.59170        3.77230        7.86820
H          3.61930        2.46020        8.43890
H          4.21590        0.45480        7.10230
H          2.78690       -0.23670        5.18860
H          1.83730        2.27650        1.33200
H          0.22480        3.68250        3.56880
H         -0.49620        2.94110        2.12640
H          0.62560        4.29930        1.96540
H          2.65890        3.22680        4.17120
H          3.15890        3.93170        2.62880
H          3.69190        2.30560        3.08000
