38
rmsd197.gzmat
Br         0.00000        0.00000        0.00000
C          1.89670        0.00000        0.00000
C          2.58890        0.00000        1.20560
C          3.98350        0.01440        1.19860
C          4.66800        0.00980       -0.01500
C          3.96230       -0.00210       -1.21720
C          2.56720       -0.00320       -1.21710
C          1.88680        0.05100        2.52270
O          1.79480        1.09430        3.14030
N          1.29780       -1.10950        2.98850
C          0.65040       -1.04120        4.30840
C          1.59180       -1.36260        5.44110
C          2.61420       -0.47060        5.76860
C          3.49430       -0.77080        6.80470
C          3.34820       -1.95570        7.52460
C          2.31690       -2.83810        7.20940
C          1.43810       -2.54280        6.16920
C          1.64040       -2.42610        2.41300
C          2.92700       -2.99780        3.02860
C          0.47780       -3.41670        2.56400
H          4.53250        0.03920        2.14140
H          5.75720        0.02100       -0.02300
H          4.50140       -0.00550       -2.16370
H          2.02480       -0.00420       -2.16230
H         -0.23520       -1.71620        4.30760
H          0.23690       -0.00510        4.44720
H          2.71740        0.46450        5.21110
H          4.29330       -0.07590        7.05560
H          4.03430       -2.18830        8.33590
H          2.19680       -3.75840        7.77670
H          0.63440       -3.23460        5.92910
H          1.81630       -2.27470        1.31020
H          2.80910       -3.21150        4.09830
H          3.76270       -2.29650        2.93380
H          3.21660       -3.93110        2.53570
H          0.34500       -3.74680        3.59950
H          0.65840       -4.31250        1.95820
H         -0.46680       -2.97400        2.22140
