rmsd50.gzmat
 OpenBabel08211713383D

 38 39  0  0  0  0  0  0  0  0999 V2000
    0.0000    0.0000    0.0000 Br  0  0  0  0  0  0  0  0  0  0  0  0
    1.8965    0.0000    0.0000 C   0  0  0  0  0  0  0  0  0  0  0  0
    2.5882    0.0000    1.2058 C   0  0  0  0  0  0  0  0  0  0  0  0
    3.9829    0.0203    1.1988 C   0  0  0  0  0  0  0  0  0  0  0  0
    4.6676    0.0178   -0.0149 C   0  0  0  0  0  0  0  0  0  0  0  0
    3.9622    0.0014   -1.2172 C   0  0  0  0  0  0  0  0  0  0  0  0
    2.5675   -0.0028   -1.2171 C   0  0  0  0  0  0  0  0  0  0  0  0
    1.8892    0.0408    2.5245 C   0  0  0  0  0  0  0  0  0  0  0  0
    1.8022    1.0780    3.1532 O   0  0  0  0  0  0  0  0  0  0  0  0
    1.2997   -1.1231    2.9826 N   0  0  0  0  0  0  0  0  0  0  0  0
    0.6749   -1.0696    4.3138 C   0  0  0  0  0  0  0  0  0  0  0  0
    1.6318   -1.4208    5.4242 C   0  0  0  0  0  0  0  0  0  0  0  0
    2.6756   -0.5512    5.7439 C   0  0  0  0  0  0  0  0  0  0  0  0
    3.5657   -0.8781    6.7632 C   0  0  0  0  0  0  0  0  0  0  0  0
    3.4098   -2.0691    7.4713 C   0  0  0  0  0  0  0  0  0  0  0  0
    2.3602   -2.9314    7.1605 C   0  0  0  0  0  0  0  0  0  0  0  0
    1.4694   -2.6076    6.1392 C   0  0  0  0  0  0  0  0  0  0  0  0
    1.6298   -2.4343    2.3876 C   0  0  0  0  0  0  0  0  0  0  0  0
    2.9315   -3.0097    2.9673 C   0  0  0  0  0  0  0  0  0  0  0  0
    0.4743   -3.4291    2.5599 C   0  0  0  0  0  0  0  0  0  0  0  0
    4.5313    0.0488    2.1420 H   0  0  0  0  0  0  0  0  0  0  0  0
    5.7566    0.0341   -0.0230 H   0  0  0  0  0  0  0  0  0  0  0  0
    4.5013   -0.0024   -2.1640 H   0  0  0  0  0  0  0  0  0  0  0  0
    2.0253   -0.0054   -2.1624 H   0  0  0  0  0  0  0  0  0  0  0  0
   -0.2180   -1.7349    4.3175 H   0  0  0  0  0  0  0  0  0  0  0  0
    0.2750   -0.0319    4.4772 H   0  0  0  0  0  0  0  0  0  0  0  0
    2.7874    0.3876    5.1946 H   0  0  0  0  0  0  0  0  0  0  0  0
    4.3805   -0.2003    7.0103 H   0  0  0  0  0  0  0  0  0  0  0  0
    4.1037   -2.3229    8.2694 H   0  0  0  0  0  0  0  0  0  0  0  0
    2.2351   -3.8578    7.7168 H   0  0  0  0  0  0  0  0  0  0  0  0
    0.6501   -3.2825    5.9029 H   0  0  0  0  0  0  0  0  0  0  0  0
    1.7785   -2.2729    1.2826 H   0  0  0  0  0  0  0  0  0  0  0  0
    2.8367   -3.2413    4.0349 H   0  0  0  0  0  0  0  0  0  0  0  0
    3.7620   -2.3030    2.8670 H   0  0  0  0  0  0  0  0  0  0  0  0
    3.2145   -3.9334    2.4531 H   0  0  0  0  0  0  0  0  0  0  0  0
    0.3682   -3.7654    3.5965 H   0  0  0  0  0  0  0  0  0  0  0  0
    0.6438   -4.3211    1.9455 H   0  0  0  0  0  0  0  0  0  0  0  0
   -0.4799   -2.9881    2.2439 H   0  0  0  0  0  0  0  0  0  0  0  0
  2  1  1  0  0  0  0
  2  3  2  0  0  0  0
  3  8  1  0  0  0  0
  4  3  1  0  0  0  0
  4 21  1  0  0  0  0
  5  4  2  0  0  0  0
  6  7  2  0  0  0  0
  6  5  1  0  0  0  0
  7  2  1  0  0  0  0
  8 10  1  0  0  0  0
  8  9  2  0  0  0  0
 10 11  1  0  0  0  0
 11 25  1  0  0  0  0
 11 26  1  0  0  0  0
 11 12  1  0  0  0  0
 12 13  2  0  0  0  0
 12 17  1  0  0  0  0
 13 14  1  0  0  0  0
 14 28  1  0  0  0  0
 14 15  2  0  0  0  0
 15 29  1  0  0  0  0
 16 15  1  0  0  0  0
 16 30  1  0  0  0  0
 17 16  2  0  0  0  0
 18 20  1  0  0  0  0
 18 19  1  0  0  0  0
 18 10  1  0  0  0  0
 19 33  1  0  0  0  0
 20 36  1  0  0  0  0
 22  5  1  0  0  0  0
 23  6  1  0  0  0  0
 24  7  1  0  0  0  0
 27 13  1  0  0  0  0
 31 17  1  0  0  0  0
 32 18  1  0  0  0  0
 34 19  1  0  0  0  0
 35 19  1  0  0  0  0
 37 20  1  0  0  0  0
 38 20  1  0  0  0  0
M  END
$$$$
