38
rmsd54.gzmat
Br         0.00000        0.00000        0.00000
C          1.89670        0.00000        0.00000
C          2.58880        0.00000        1.20600
C          3.98330        0.01630        1.19710
C          4.66710        0.01470       -0.01720
C          3.96080        0.00460       -1.21900
C          2.56610       -0.00040       -1.21770
C          1.88730        0.05960        2.52310
O          1.85180        1.09440        3.16150
N          1.23040       -1.07310        2.96460
C          0.52840       -0.97690        4.25450
C          1.37380       -1.40370        5.42670
C          2.51160       -0.67090        5.76790
C          3.29900       -1.07060        6.84410
C          2.94500       -2.19420        7.58980
C          1.79820       -2.91420        7.26140
C          1.01150       -2.52030        6.18100
C          1.51890       -2.40490        2.39610
C          2.69640       -3.08420        3.11300
C          0.27390       -3.30150        2.43480
H          4.53260        0.04170        2.13940
H          5.75620        0.02770       -0.02650
H          4.49870        0.00630       -2.16650
H          2.02310       -0.00080       -2.16250
H         -0.41210       -1.57000        4.19050
H          0.20200        0.08840        4.40430
H          2.77680        0.21860        5.19090
H          4.18930       -0.50140        7.10430
H          3.56120       -2.50670        8.42940
H          1.51530       -3.78490        7.84870
H          0.11770       -3.08660        5.93090
H          1.80320       -2.25920        1.31610
H          2.44770       -3.34470        4.14970
H          3.57540       -2.43200        3.15140
H          2.98540       -4.00760        2.60180
H          0.03240       -3.62940        3.45100
H          0.43340       -4.20170        1.83070
H         -0.60340       -2.78310        2.02830
