rmsd5.gzmat
 OpenBabel08211713393D

 36 38  0  0  0  0  0  0  0  0999 V2000
    0.0000    0.0000    0.0000 S   0  0  0  0  0  0  0  0  0  0  0  0
    1.6777    0.0000    0.0000 C   0  0  0  0  0  0  0  0  0  0  0  0
    2.4552    0.0000    1.1453 N   0  0  0  0  0  0  0  0  0  0  0  0
    3.8500    0.1694    1.0942 C   0  0  0  0  0  0  0  0  0  0  0  0
    4.4985    0.1681   -0.1549 C   0  0  0  0  0  0  0  0  0  0  0  0
    3.7354    0.0168   -1.3910 C   0  0  0  0  0  0  0  0  0  0  0  0
    4.1850   -0.0966   -2.5043 O   0  0  0  0  0  0  0  0  0  0  0  0
    2.3246   -0.0290   -1.2229 N   0  0  0  0  0  0  0  0  0  0  0  0
    1.4910   -0.0047   -2.4611 C   0  0  0  0  0  0  0  0  0  0  0  0
    1.4561    1.0249   -3.0608 O   0  0  0  0  0  0  0  0  0  0  0  0
    0.8259   -1.2721   -2.8030 C   0  0  0  0  0  0  0  0  0  0  0  0
   -0.3710   -1.1933   -3.5210 C   0  0  0  0  0  0  0  0  0  0  0  0
   -1.0504   -2.3619   -3.8543 C   0  0  0  0  0  0  0  0  0  0  0  0
   -0.5316   -3.6004   -3.4789 C   0  0  0  0  0  0  0  0  0  0  0  0
    0.6705   -3.6757   -2.7758 C   0  0  0  0  0  0  0  0  0  0  0  0
    1.3534   -2.5109   -2.4352 C   0  0  0  0  0  0  0  0  0  0  0  0
    5.8876    0.3202   -0.2393 C   0  0  0  0  0  0  0  0  0  0  0  0
    6.6401    0.4800    0.9130 C   0  0  0  0  0  0  0  0  0  0  0  0
    6.0009    0.4876    2.1576 C   0  0  0  0  0  0  0  0  0  0  0  0
    4.6266    0.3337    2.2588 C   0  0  0  0  0  0  0  0  0  0  0  0
    1.7846   -0.0494    2.4671 C   0  0  0  0  0  0  0  0  0  0  0  0
    1.5144    1.3526    3.0071 C   0  0  0  0  0  0  0  0  0  0  0  0
   -0.7719   -0.2184   -3.8081 H   0  0  0  0  0  0  0  0  0  0  0  0
   -1.9889   -2.3068   -4.4024 H   0  0  0  0  0  0  0  0  0  0  0  0
   -1.0674   -4.5130   -3.7356 H   0  0  0  0  0  0  0  0  0  0  0  0
    1.0733   -4.6441   -2.4874 H   0  0  0  0  0  0  0  0  0  0  0  0
    2.2940   -2.5711   -1.8875 H   0  0  0  0  0  0  0  0  0  0  0  0
    6.3632    0.3116   -1.2271 H   0  0  0  0  0  0  0  0  0  0  0  0
    7.7197    0.6027    0.8556 H   0  0  0  0  0  0  0  0  0  0  0  0
    6.5934    0.6218    3.0651 H   0  0  0  0  0  0  0  0  0  0  0  0
    4.1633    0.3524    3.2425 H   0  0  0  0  0  0  0  0  0  0  0  0
    2.4187   -0.6409    3.1660 H   0  0  0  0  0  0  0  0  0  0  0  0
    0.8296   -0.6287    2.3857 H   0  0  0  0  0  0  0  0  0  0  0  0
    2.4301    1.9446    3.1125 H   0  0  0  0  0  0  0  0  0  0  0  0
    1.0277    1.3052    3.9887 H   0  0  0  0  0  0  0  0  0  0  0  0
    0.8401    1.9186    2.3456 H   0  0  0  0  0  0  0  0  0  0  0  0
  1  2  2  0  0  0  0
  2  3  1  0  0  0  0
  3 21  1  0  0  0  0
  4  3  1  0  0  0  0
  4 20  2  0  0  0  0
  5  4  1  0  0  0  0
  6  8  1  0  0  0  0
  6  5  1  0  0  0  0
  7  6  2  0  0  0  0
  8  2  1  0  0  0  0
  9  8  1  0  0  0  0
 10  9  2  0  0  0  0
 11  9  1  0  0  0  0
 11 16  2  0  0  0  0
 12 11  1  0  0  0  0
 13 12  2  0  0  0  0
 13 14  1  0  0  0  0
 14 15  2  0  0  0  0
 15 26  1  0  0  0  0
 15 16  1  0  0  0  0
 16 27  1  0  0  0  0
 17  5  2  0  0  0  0
 17 18  1  0  0  0  0
 18 19  2  0  0  0  0
 19 20  1  0  0  0  0
 19 30  1  0  0  0  0
 20 31  1  0  0  0  0
 21 22  1  0  0  0  0
 21 32  1  0  0  0  0
 22 34  1  0  0  0  0
 22 35  1  0  0  0  0
 23 12  1  0  0  0  0
 24 13  1  0  0  0  0
 25 14  1  0  0  0  0
 28 17  1  0  0  0  0
 29 18  1  0  0  0  0
 33 21  1  0  0  0  0
 36 22  1  0  0  0  0
M  END
$$$$
