36
rmsd39.gzmat
S          0.00000        0.00000        0.00000
C          1.67740        0.00000        0.00000
N          2.45650        0.00000        1.14470
C          3.84990        0.18070        1.09260
C          4.49740        0.17610       -0.15700
C          3.73480        0.00010       -1.38980
O          4.18410       -0.14170       -2.50030
N          2.32410       -0.03270       -1.22300
C          1.49290        0.01300       -2.46300
O          1.43960        1.05990       -3.03010
C          0.85740       -1.25650       -2.85010
C         -0.37770       -1.18400       -3.50060
C         -1.01660       -2.35740       -3.89210
C         -0.42290       -3.59290       -3.63640
C          0.81340       -3.66010       -2.99460
C          1.45830       -2.49060       -2.59910
C          5.88370        0.35030       -0.24340
C          6.63410        0.53090        0.90700
C          5.99670        0.53510        2.15280
C          4.62480        0.36170        2.25590
C          1.78930       -0.04410        2.46810
C          1.51670        1.36080        2.99870
H         -0.83830       -0.21210       -3.69260
H         -1.97940       -2.30940       -4.39680
H         -0.92570       -4.50940       -3.94120
H          1.27390       -4.62610       -2.79910
H          2.42760       -2.54230       -2.10260
H          6.35900        0.34270       -1.23130
H          7.71140        0.67050        0.84630
H          6.59000        0.68110        3.05800
H          4.16160        0.37760        3.23990
H          2.42750       -0.62920        3.16880
H          0.83640       -0.62660        2.39280
H          2.42820        1.96370        3.07460
H          1.05200        1.32060        3.99090
H          0.82250        1.91200        2.34570
