36
rmsd21.gzmat
S          0.00000        0.00000        0.00000
C          1.67750        0.00000        0.00000
N          2.45710        0.00000        1.14450
C          3.85560        0.13630        1.08980
C          4.50080        0.12110       -0.16130
C          3.73180       -0.00280       -1.39650
O          4.17540       -0.10300       -2.51360
N          2.32090       -0.03460       -1.22450
C          1.48770        0.03210       -2.46220
O          1.44430        1.08790       -3.01480
C          0.84010       -1.22430       -2.87020
C         -0.28750       -1.12240       -3.69120
C         -0.94760       -2.27790       -4.10000
C         -0.47940       -3.52730       -3.69510
C          0.65430       -3.62660       -2.88910
C          1.31630       -2.47470       -2.47180
C          5.89320        0.23670       -0.24900
C          6.65280        0.36820        0.90210
C          6.01710        0.38750        2.14870
C          4.63880        0.27730        2.25260
C          1.78630        0.00790        2.46730
C          1.54780        1.43310        2.96060
H         -0.64840       -0.13910       -4.00270
H         -1.82960       -2.20590       -4.73360
H         -1.00110       -4.43000       -4.00910
H          1.02030       -4.60450       -2.58320
H          2.20030       -2.55440       -1.83890
H          6.36570        0.22280       -1.23840
H          7.73520        0.45920        0.84240
H          6.61840        0.49430        3.05430
H          4.17800        0.30970        3.23760
H          2.40700       -0.57360        3.18640
H          0.81850       -0.55200        2.40650
H          2.47650        2.00960        3.03910
H          1.06870        1.42870        3.94720
H          0.87880        1.99020        2.28610
