36

S         -0.08900       -0.01460        0.32500
C          1.57440       -0.04410        0.17610
N          2.44820       -0.00200        1.24340
C          3.83600        0.09270        1.07160
C          4.38460        0.07030       -0.22850
C          3.50280       -0.03490       -1.39770
O          3.86840       -0.04760       -2.55600
N          2.14030       -0.09640       -1.07930
C          1.22580       -0.26960       -2.24790
O          1.01310       -1.37570       -2.65170
C          0.72980        0.98700       -2.85300
C          1.08760        2.25290       -2.36600
C          0.60280        3.40240       -2.98780
C         -0.24300        3.29470       -4.09650
C         -0.60240        2.03390       -4.58560
C         -0.11700        0.88360       -3.96780
C          5.76920        0.15680       -0.42800
C          6.63130        0.26980        0.65470
C          6.09270        0.30310        1.94800
C          4.71990        0.21920        2.16360
C          1.88510        0.01540        2.60310
C          1.67220        1.42710        3.13640
H          1.74260        2.33890       -1.49870
H          0.88380        4.38660       -2.60660
H         -0.62300        4.19710       -4.58150
H         -1.26190        1.95050       -5.45230
H         -0.38000       -0.11080       -4.33160
H          6.13030        0.13130       -1.45750
H          7.71000        0.33620        0.50260
H          6.75490        0.40030        2.81150
H          4.34600        0.26220        3.18340
H          2.55160       -0.57260        3.24730
H          0.92620       -0.51300        2.54840
H          2.61030        2.00270        3.16380
H          1.26440        1.38510        4.15820
H          0.94980        1.96050        2.50150
