36
rmsd34.gzmat
S          0.00000        0.00000        0.00000
C          1.67800        0.00000        0.00000
N          2.45680        0.00000        1.14380
C          3.85970        0.07220        1.08990
C          4.50330        0.07620       -0.16190
C          3.72930        0.03360       -1.39960
O          4.16780        0.06270       -2.52320
N          2.32000        0.00170       -1.22600
C          1.48530       -0.17030       -2.45380
O          1.44900       -1.26560       -2.92230
C          0.82320        1.04500       -2.95350
C          1.37110        2.31610       -2.77740
C          0.69710        3.42800       -3.27610
C         -0.51620        3.26820       -3.94480
C         -1.05460        1.99530       -4.12970
C         -0.38610        0.87860       -3.63570
C          5.90010        0.12560       -0.24590
C          6.66470        0.17980        0.90800
C          6.03020        0.18770        2.15540
C          4.64870        0.13490        2.25630
C          1.79040        0.01700        2.46840
C          1.63960        1.44530        2.98580
H          2.32210        2.44110       -2.25950
H          1.11730        4.42240       -3.14140
H         -1.04530        4.14170       -4.32390
H         -1.99750        1.87240       -4.65890
H         -0.80280       -0.12220       -3.77330
H          6.37300        0.12180       -1.23500
H          7.75040        0.21710        0.84970
H          6.63400        0.23790        3.06410
H          4.18950        0.14630        3.24240
H          2.37710       -0.61460        3.17360
H          0.79070       -0.48350        2.40290
H          2.59440        1.98160        3.01490
H          1.21960        1.45190        3.99850
H          0.95820        2.03340        2.35290
