36
rmsd6.gzmat
S          0.00000        0.00000        0.00000
C          1.67740        0.00000        0.00000
N          2.45880        0.00000        1.14340
C          3.86070       -0.08660        1.08460
C          4.50280       -0.02870       -0.16670
C          3.72670        0.07620       -1.39830
O          4.16420        0.20750       -2.51580
N          2.31820        0.04410       -1.22550
C          1.48160       -0.05380       -2.46120
O          1.37320       -1.13700       -2.94620
C          0.91940        1.21580       -2.94710
C          1.61060        2.42230       -2.82820
C          1.03890        3.59130       -3.32460
C         -0.21670        3.55290       -3.92990
C         -0.90260        2.34460       -4.05040
C         -0.33500        1.17040       -3.56250
C          5.89880       -0.08500       -0.25830
C          6.66510       -0.20830        0.88890
C          6.03250       -0.27690        2.13560
C          4.65140       -0.21830        2.24370
C          1.79360       -0.06590        2.46730
C          1.62390       -1.51240        2.92510
H          2.59560        2.45200       -2.35970
H          1.57350        4.53520       -3.23850
H         -0.66310        4.47020       -4.31130
H         -1.88150        2.31770       -4.52500
H         -0.86570        0.21960       -3.65370
H          6.36790       -0.03130       -1.24770
H          7.75020       -0.25410        0.82520
H          6.63750       -0.38030        3.03880
H          4.19470       -0.28380        3.22870
H          0.80060        0.44930        2.42230
H          2.38920        0.52840        3.19720
H          0.95710       -2.07310        2.25210
H          1.17570       -1.55560        3.92530
H          2.57510       -2.05550        2.95850
