36
rmsd4.gzmat
S          0.00000        0.00000        0.00000
C          1.67830        0.00000        0.00000
N          2.45600        0.00000        1.14440
C          3.85940        0.06530        1.09220
C          4.50380        0.07120       -0.15910
C          3.73010        0.04060       -1.39700
O          4.16980        0.08460       -2.51990
N          2.32130        0.00090       -1.22530
C          1.48610       -0.16090       -2.45500
O          1.44390       -1.25220       -2.93130
C          0.83080        1.06430       -2.93970
C          1.44190        2.31490       -2.84410
C          0.77760        3.43990       -3.32700
C         -0.48710        3.31210       -3.90030
C         -1.09250        2.05970       -3.99790
C         -0.43330        0.93000       -3.52070
C          5.90100        0.10990       -0.24270
C          6.66520        0.15440        0.91170
C          6.03020        0.15930        2.15880
C          4.64820        0.11670        2.25930
C          1.79060        0.02890        2.46900
C          1.68080        1.45910        2.99220
H          2.43430        2.41300       -2.40300
H          1.24730        4.41860       -3.25440
H         -1.00460        4.19460       -4.27350
H         -2.08000        1.96370       -4.44480
H         -0.90030       -0.05500       -3.59190
H          6.37390        0.10190       -1.23180
H          7.75140        0.18430        0.85430
H          6.63420        0.19750        3.06780
H          4.18920        0.12650        3.24560
H          2.36000       -0.62290        3.17020
H          0.77600       -0.44080        2.40300
H          2.64610        1.97810        2.99650
H          1.28980        1.47070        4.01660
H          0.99390        2.06050        2.37800
