rmsd7.gzmat
 OpenBabel08211713393D

 36 38  0  0  0  0  0  0  0  0999 V2000
    0.0000    0.0000    0.0000 S   0  0  0  0  0  0  0  0  0  0  0  0
    1.6776    0.0000    0.0000 C   0  0  0  0  0  0  0  0  0  0  0  0
    2.4589    0.0000    1.1431 N   0  0  0  0  0  0  0  0  0  0  0  0
    3.8620   -0.0629    1.0842 C   0  0  0  0  0  0  0  0  0  0  0  0
    4.5035    0.0049   -0.1669 C   0  0  0  0  0  0  0  0  0  0  0  0
    3.7255    0.0923   -1.3988 C   0  0  0  0  0  0  0  0  0  0  0  0
    4.1613    0.2190   -2.5177 O   0  0  0  0  0  0  0  0  0  0  0  0
    2.3178    0.0460   -1.2259 N   0  0  0  0  0  0  0  0  0  0  0  0
    1.4792   -0.0893   -2.4574 C   0  0  0  0  0  0  0  0  0  0  0  0
    1.3589   -1.1891   -2.8996 O   0  0  0  0  0  0  0  0  0  0  0  0
    0.9231    1.1648   -2.9880 C   0  0  0  0  0  0  0  0  0  0  0  0
    1.6378    2.3625   -2.9517 C   0  0  0  0  0  0  0  0  0  0  0  0
    1.0691    3.5157   -3.4871 C   0  0  0  0  0  0  0  0  0  0  0  0
   -0.2056    3.4698   -4.0504 C   0  0  0  0  0  0  0  0  0  0  0  0
   -0.9146    2.2697   -4.0890 C   0  0  0  0  0  0  0  0  0  0  0  0
   -0.3515    1.1117   -3.5598 C   0  0  0  0  0  0  0  0  0  0  0  0
    5.9005   -0.0280   -0.2569 C   0  0  0  0  0  0  0  0  0  0  0  0
    6.6683   -0.1313    0.8914 C   0  0  0  0  0  0  0  0  0  0  0  0
    6.0368   -0.2073    2.1380 C   0  0  0  0  0  0  0  0  0  0  0  0
    4.6548   -0.1777    2.2441 C   0  0  0  0  0  0  0  0  0  0  0  0
    1.7951   -0.0951    2.4661 C   0  0  0  0  0  0  0  0  0  0  0  0
    1.6618   -1.5504    2.9078 C   0  0  0  0  0  0  0  0  0  0  0  0
    2.6386    2.3964   -2.5186 H   0  0  0  0  0  0  0  0  0  0  0  0
    1.6216    4.4526   -3.4643 H   0  0  0  0  0  0  0  0  0  0  0  0
   -0.6489    4.3750   -4.4630 H   0  0  0  0  0  0  0  0  0  0  0  0
   -1.9078    2.2366   -4.5325 H   0  0  0  0  0  0  0  0  0  0  0  0
   -0.9005    0.1674   -3.5840 H   0  0  0  0  0  0  0  0  0  0  0  0
    6.3699    0.0261   -1.2462 H   0  0  0  0  0  0  0  0  0  0  0  0
    7.7543   -0.1590    0.8285 H   0  0  0  0  0  0  0  0  0  0  0  0
    6.6436   -0.2949    3.0418 H   0  0  0  0  0  0  0  0  0  0  0  0
    4.1979   -0.2523    3.2286 H   0  0  0  0  0  0  0  0  0  0  0  0
    0.7898    0.3957    2.4266 H   0  0  0  0  0  0  0  0  0  0  0  0
    2.3764    0.5050    3.2024 H   0  0  0  0  0  0  0  0  0  0  0  0
    0.9734   -2.1080    2.2546 H   0  0  0  0  0  0  0  0  0  0  0  0
    1.2594   -1.6163    3.9257 H   0  0  0  0  0  0  0  0  0  0  0  0
    2.6203   -2.0816    2.8909 H   0  0  0  0  0  0  0  0  0  0  0  0
  1  2  2  0  0  0  0
  2  3  1  0  0  0  0
  3 21  1  0  0  0  0
  4  3  1  0  0  0  0
  4 20  2  0  0  0  0
  5  4  1  0  0  0  0
  6  8  1  0  0  0  0
  6  5  1  0  0  0  0
  7  6  2  0  0  0  0
  8  2  1  0  0  0  0
  9  8  1  0  0  0  0
 10  9  2  0  0  0  0
 11 12  1  0  0  0  0
 11  9  1  0  0  0  0
 12 23  1  0  0  0  0
 13 24  1  0  0  0  0
 13 12  2  0  0  0  0
 14 13  1  0  0  0  0
 15 14  2  0  0  0  0
 15 16  1  0  0  0  0
 16 11  2  0  0  0  0
 17  5  2  0  0  0  0
 17 18  1  0  0  0  0
 18 19  2  0  0  0  0
 19 20  1  0  0  0  0
 19 30  1  0  0  0  0
 20 31  1  0  0  0  0
 21 22  1  0  0  0  0
 21 33  1  0  0  0  0
 22 35  1  0  0  0  0
 25 14  1  0  0  0  0
 26 15  1  0  0  0  0
 27 16  1  0  0  0  0
 28 17  1  0  0  0  0
 29 18  1  0  0  0  0
 32 21  1  0  0  0  0
 34 22  1  0  0  0  0
 36 22  1  0  0  0  0
M  END
$$$$
