rmsd39.gzmat
 OpenBabel08211713393D

 36 38  0  0  0  0  0  0  0  0999 V2000
    0.0000    0.0000    0.0000 S   0  0  0  0  0  0  0  0  0  0  0  0
    1.6774    0.0000    0.0000 C   0  0  0  0  0  0  0  0  0  0  0  0
    2.4565    0.0000    1.1447 N   0  0  0  0  0  0  0  0  0  0  0  0
    3.8499    0.1807    1.0926 C   0  0  0  0  0  0  0  0  0  0  0  0
    4.4974    0.1761   -0.1570 C   0  0  0  0  0  0  0  0  0  0  0  0
    3.7348    0.0001   -1.3898 C   0  0  0  0  0  0  0  0  0  0  0  0
    4.1841   -0.1417   -2.5003 O   0  0  0  0  0  0  0  0  0  0  0  0
    2.3241   -0.0327   -1.2230 N   0  0  0  0  0  0  0  0  0  0  0  0
    1.4929    0.0130   -2.4630 C   0  0  0  0  0  0  0  0  0  0  0  0
    1.4396    1.0599   -3.0301 O   0  0  0  0  0  0  0  0  0  0  0  0
    0.8574   -1.2565   -2.8501 C   0  0  0  0  0  0  0  0  0  0  0  0
   -0.3777   -1.1840   -3.5006 C   0  0  0  0  0  0  0  0  0  0  0  0
   -1.0166   -2.3574   -3.8921 C   0  0  0  0  0  0  0  0  0  0  0  0
   -0.4229   -3.5929   -3.6364 C   0  0  0  0  0  0  0  0  0  0  0  0
    0.8134   -3.6601   -2.9946 C   0  0  0  0  0  0  0  0  0  0  0  0
    1.4583   -2.4906   -2.5991 C   0  0  0  0  0  0  0  0  0  0  0  0
    5.8837    0.3503   -0.2434 C   0  0  0  0  0  0  0  0  0  0  0  0
    6.6341    0.5309    0.9070 C   0  0  0  0  0  0  0  0  0  0  0  0
    5.9967    0.5351    2.1528 C   0  0  0  0  0  0  0  0  0  0  0  0
    4.6248    0.3617    2.2559 C   0  0  0  0  0  0  0  0  0  0  0  0
    1.7893   -0.0441    2.4681 C   0  0  0  0  0  0  0  0  0  0  0  0
    1.5167    1.3608    2.9987 C   0  0  0  0  0  0  0  0  0  0  0  0
   -0.8383   -0.2121   -3.6926 H   0  0  0  0  0  0  0  0  0  0  0  0
   -1.9794   -2.3094   -4.3968 H   0  0  0  0  0  0  0  0  0  0  0  0
   -0.9257   -4.5094   -3.9412 H   0  0  0  0  0  0  0  0  0  0  0  0
    1.2739   -4.6261   -2.7991 H   0  0  0  0  0  0  0  0  0  0  0  0
    2.4276   -2.5423   -2.1026 H   0  0  0  0  0  0  0  0  0  0  0  0
    6.3590    0.3427   -1.2313 H   0  0  0  0  0  0  0  0  0  0  0  0
    7.7114    0.6705    0.8463 H   0  0  0  0  0  0  0  0  0  0  0  0
    6.5900    0.6811    3.0580 H   0  0  0  0  0  0  0  0  0  0  0  0
    4.1616    0.3776    3.2399 H   0  0  0  0  0  0  0  0  0  0  0  0
    2.4275   -0.6292    3.1688 H   0  0  0  0  0  0  0  0  0  0  0  0
    0.8364   -0.6266    2.3928 H   0  0  0  0  0  0  0  0  0  0  0  0
    2.4282    1.9637    3.0746 H   0  0  0  0  0  0  0  0  0  0  0  0
    1.0520    1.3206    3.9909 H   0  0  0  0  0  0  0  0  0  0  0  0
    0.8225    1.9120    2.3457 H   0  0  0  0  0  0  0  0  0  0  0  0
  1  2  2  0  0  0  0
  2  3  1  0  0  0  0
  3 21  1  0  0  0  0
  4  3  1  0  0  0  0
  4 20  2  0  0  0  0
  5  4  1  0  0  0  0
  6  8  1  0  0  0  0
  6  5  1  0  0  0  0
  7  6  2  0  0  0  0
  8  2  1  0  0  0  0
  9  8  1  0  0  0  0
 10  9  2  0  0  0  0
 11 16  1  0  0  0  0
 11  9  1  0  0  0  0
 12 11  2  0  0  0  0
 13 14  2  0  0  0  0
 13 12  1  0  0  0  0
 14 15  1  0  0  0  0
 15 26  1  0  0  0  0
 15 16  2  0  0  0  0
 16 27  1  0  0  0  0
 17  5  2  0  0  0  0
 17 18  1  0  0  0  0
 18 19  2  0  0  0  0
 19 20  1  0  0  0  0
 19 30  1  0  0  0  0
 20 31  1  0  0  0  0
 21 22  1  0  0  0  0
 21 32  1  0  0  0  0
 22 34  1  0  0  0  0
 22 35  1  0  0  0  0
 23 12  1  0  0  0  0
 24 13  1  0  0  0  0
 25 14  1  0  0  0  0
 28 17  1  0  0  0  0
 29 18  1  0  0  0  0
 33 21  1  0  0  0  0
 36 22  1  0  0  0  0
M  END
$$$$
