32
rmsd167.gzmat
N          0.00000        0.00000        0.00000
N          1.33690        0.00000        0.00000
H          1.75180        0.00000        0.93310
C          2.14840        0.02870       -1.16420
O          3.34930        0.03340       -0.99780
C          1.41730        0.04350       -2.42190
C          0.06450        0.04020       -2.42390
C         -0.63820        0.01700       -1.16030
C         -2.09950        0.01170       -1.12260
C         -2.79590       -0.87550       -0.30080
C         -4.18340       -0.87610       -0.25870
C         -4.90830        0.04430       -1.04400
C         -4.23600        0.94700       -1.87330
C         -2.84340        0.92000       -1.90290
O         -2.07320        1.73160       -2.66610
C         -2.72960        2.73210       -3.43710
N         -6.31320       -0.00770       -0.94580
C         -7.21220        0.87010       -1.56530
O         -6.84990        1.77900       -2.27210
C         -8.65870        0.57430       -1.28030
H          2.02050        0.06110       -3.32780
H         -0.52220        0.05460       -3.34430
H         -2.23380       -1.57740        0.32220
H         -4.69910       -1.58020        0.38540
H         -4.78920        1.66130       -2.48230
H         -3.28920        3.41920       -2.79340
H         -3.37800        2.27850       -4.19330
H         -1.88170        3.24840       -3.90820
H         -6.69040       -0.74340       -0.35430
H         -9.01160       -0.28550       -1.86790
H         -9.28220        1.43710       -1.57340
H         -8.86170        0.37470       -0.22150
