32
rmsd169.gzmat
N          0.00000        0.00000        0.00000
N          1.33700        0.00000        0.00000
H          1.75150        0.00000        0.93330
C          2.14840        0.02500       -1.16420
O          3.34940        0.02900       -0.99830
C          1.41720        0.03630       -2.42170
C          0.06450        0.02990       -2.42370
C         -0.63890        0.01200       -1.16020
C         -2.10010       -0.00140       -1.12180
C         -2.79000       -0.87240       -0.27700
C         -4.17740       -0.88330       -0.23420
C         -4.91080        0.00570       -1.04730
C         -4.24560        0.89200       -1.89950
C         -2.85270        0.88070       -1.92390
O         -2.09150        1.68730       -2.70130
C         -2.76010        2.66870       -3.48630
N         -6.31530       -0.05250       -0.94600
C         -7.22230        0.75780       -1.64190
O         -6.86830        1.59960       -2.43140
C         -8.66610        0.48360       -1.32330
H          2.02030        0.04940       -3.32820
H         -0.52160        0.03450       -3.34500
H         -2.22170       -1.55260        0.36440
H         -4.68650       -1.57210        0.43110
H         -4.80480        1.58190       -2.53120
H         -3.33120        3.35600       -2.85260
H         -3.40110        2.19630       -4.23770
H         -1.91900        3.19170       -3.96170
H         -6.68610       -0.74520       -0.30060
H         -8.99200       -0.48760       -1.72020
H         -9.30530        1.25080       -1.79430
H         -8.87790        0.50610       -0.24690
