rmsd207.gzmat
 OpenBabel08211713393D

 32 33  0  0  0  0  0  0  0  0999 V2000
    0.0000    0.0000    0.0000 N   0  0  0  0  0  0  0  0  0  0  0  0
    1.3369    0.0000    0.0000 N   0  0  0  0  0  0  0  0  0  0  0  0
    1.7516    0.0000    0.9332 H   0  0  0  0  0  0  0  0  0  0  0  0
    2.1484   -0.0274   -1.1642 C   0  0  0  0  0  0  0  0  0  0  0  0
    3.3493   -0.0367   -0.9978 O   0  0  0  0  0  0  0  0  0  0  0  0
    1.4170   -0.0322   -2.4218 C   0  0  0  0  0  0  0  0  0  0  0  0
    0.0641   -0.0235   -2.4240 C   0  0  0  0  0  0  0  0  0  0  0  0
   -0.6393   -0.0093   -1.1601 C   0  0  0  0  0  0  0  0  0  0  0  0
   -2.1004    0.0035   -1.1204 C   0  0  0  0  0  0  0  0  0  0  0  0
   -2.7891    0.8612   -0.2609 C   0  0  0  0  0  0  0  0  0  0  0  0
   -4.1765    0.8755   -0.2203 C   0  0  0  0  0  0  0  0  0  0  0  0
   -4.9108    0.0059   -1.0528 C   0  0  0  0  0  0  0  0  0  0  0  0
   -4.2471   -0.8743   -1.9124 C   0  0  0  0  0  0  0  0  0  0  0  0
   -2.8541   -0.8658   -1.9353 C   0  0  0  0  0  0  0  0  0  0  0  0
   -2.0939   -1.6623   -2.7242 O   0  0  0  0  0  0  0  0  0  0  0  0
   -2.7625   -2.6350   -3.5199 C   0  0  0  0  0  0  0  0  0  0  0  0
   -6.3154    0.0731   -0.9591 N   0  0  0  0  0  0  0  0  0  0  0  0
   -7.2255   -0.6364   -1.7535 C   0  0  0  0  0  0  0  0  0  0  0  0
   -6.8737   -1.3986   -2.6206 O   0  0  0  0  0  0  0  0  0  0  0  0
   -8.6687   -0.3579   -1.4360 C   0  0  0  0  0  0  0  0  0  0  0  0
    2.0201   -0.0448   -3.3279 H   0  0  0  0  0  0  0  0  0  0  0  0
   -0.5220   -0.0256   -3.3454 H   0  0  0  0  0  0  0  0  0  0  0  0
   -2.2197    1.5299    0.3922 H   0  0  0  0  0  0  0  0  0  0  0  0
   -4.6856    1.5545    0.4549 H   0  0  0  0  0  0  0  0  0  0  0  0
   -4.8075   -1.5562   -2.5513 H   0  0  0  0  0  0  0  0  0  0  0  0
   -3.4221   -2.1579   -4.2522 H   0  0  0  0  0  0  0  0  0  0  0  0
   -3.3132   -3.3416   -2.8902 H   0  0  0  0  0  0  0  0  0  0  0  0
   -1.9225   -3.1362   -4.0200 H   0  0  0  0  0  0  0  0  0  0  0  0
   -6.6845    0.7105   -0.2582 H   0  0  0  0  0  0  0  0  0  0  0  0
   -8.8994   -0.4579   -0.3679 H   0  0  0  0  0  0  0  0  0  0  0  0
   -9.3153   -1.0722   -1.9753 H   0  0  0  0  0  0  0  0  0  0  0  0
   -8.9676    0.6486   -1.7622 H   0  0  0  0  0  0  0  0  0  0  0  0
  1  2  1  0  0  0  0
  2  3  1  0  0  0  0
  4  5  2  0  0  0  0
  4  2  1  0  0  0  0
  6  4  1  0  0  0  0
  7  6  2  0  0  0  0
  7  8  1  0  0  0  0
  8  9  1  0  0  0  0
  8  1  2  0  0  0  0
  9 10  2  0  0  0  0
 10 11  1  0  0  0  0
 10 23  1  0  0  0  0
 11 24  1  0  0  0  0
 12 17  1  0  0  0  0
 12 11  2  0  0  0  0
 13 12  1  0  0  0  0
 14 13  2  0  0  0  0
 14  9  1  0  0  0  0
 15 14  1  0  0  0  0
 16 27  1  0  0  0  0
 16 15  1  0  0  0  0
 17 29  1  0  0  0  0
 18 20  1  0  0  0  0
 18 17  1  0  0  0  0
 19 18  2  0  0  0  0
 20 30  1  0  0  0  0
 21  6  1  0  0  0  0
 22  7  1  0  0  0  0
 25 13  1  0  0  0  0
 26 16  1  0  0  0  0
 28 16  1  0  0  0  0
 31 20  1  0  0  0  0
 32 20  1  0  0  0  0
M  END
$$$$
