32
rmsd157.gzmat
N          0.00000        0.00000        0.00000
N          1.33700        0.00000        0.00000
H          1.75230        0.00000        0.93280
C          2.14830        0.02130       -1.16450
O          3.34930        0.02360       -0.99820
C          1.41680        0.03150       -2.42200
C          0.06390        0.02680       -2.42370
C         -0.63900        0.00970       -1.16040
C         -2.10010       -0.01240       -1.12210
C         -2.78000       -0.89250       -0.27870
C         -4.16690       -0.92190       -0.23890
C         -4.90960       -0.04320       -1.05470
C         -4.25500        0.85720       -1.90030
C         -2.86160        0.86320       -1.92240
O         -2.10780        1.67960       -2.69650
C         -2.78590        2.65450       -3.48170
N         -6.31300       -0.13060       -0.96200
C         -7.23510        0.63500       -1.68750
O         -6.89720        1.47180       -2.48950
C         -8.67260        0.31220       -1.38600
H          2.01930        0.04360       -3.32870
H         -0.52310        0.03050       -3.34450
H         -2.20310       -1.56640        0.36190
H         -4.67010       -1.61810        0.42320
H         -4.82330        1.54270       -2.52850
H         -3.36370        3.33460       -2.84690
H         -3.42190        2.17610       -4.23350
H         -1.94970        3.18540       -3.95720
H         -6.67260       -0.82100       -0.30760
H         -8.99240       -0.59840       -1.91430
H         -9.32350        1.13010       -1.74120
H         -8.87600        0.17850       -0.31650
