rmsd169.gzmat
 OpenBabel08211713393D

 32 33  0  0  0  0  0  0  0  0999 V2000
    0.0000    0.0000    0.0000 N   0  0  0  0  0  0  0  0  0  0  0  0
    1.3370    0.0000    0.0000 N   0  0  0  0  0  0  0  0  0  0  0  0
    1.7515    0.0000    0.9333 H   0  0  0  0  0  0  0  0  0  0  0  0
    2.1484    0.0250   -1.1642 C   0  0  0  0  0  0  0  0  0  0  0  0
    3.3494    0.0290   -0.9983 O   0  0  0  0  0  0  0  0  0  0  0  0
    1.4172    0.0363   -2.4217 C   0  0  0  0  0  0  0  0  0  0  0  0
    0.0645    0.0299   -2.4237 C   0  0  0  0  0  0  0  0  0  0  0  0
   -0.6389    0.0120   -1.1602 C   0  0  0  0  0  0  0  0  0  0  0  0
   -2.1001   -0.0014   -1.1218 C   0  0  0  0  0  0  0  0  0  0  0  0
   -2.7900   -0.8724   -0.2770 C   0  0  0  0  0  0  0  0  0  0  0  0
   -4.1774   -0.8833   -0.2342 C   0  0  0  0  0  0  0  0  0  0  0  0
   -4.9108    0.0057   -1.0473 C   0  0  0  0  0  0  0  0  0  0  0  0
   -4.2456    0.8920   -1.8995 C   0  0  0  0  0  0  0  0  0  0  0  0
   -2.8527    0.8807   -1.9239 C   0  0  0  0  0  0  0  0  0  0  0  0
   -2.0915    1.6873   -2.7013 O   0  0  0  0  0  0  0  0  0  0  0  0
   -2.7601    2.6687   -3.4863 C   0  0  0  0  0  0  0  0  0  0  0  0
   -6.3153   -0.0525   -0.9460 N   0  0  0  0  0  0  0  0  0  0  0  0
   -7.2223    0.7578   -1.6419 C   0  0  0  0  0  0  0  0  0  0  0  0
   -6.8683    1.5996   -2.4314 O   0  0  0  0  0  0  0  0  0  0  0  0
   -8.6661    0.4836   -1.3233 C   0  0  0  0  0  0  0  0  0  0  0  0
    2.0203    0.0494   -3.3282 H   0  0  0  0  0  0  0  0  0  0  0  0
   -0.5216    0.0345   -3.3450 H   0  0  0  0  0  0  0  0  0  0  0  0
   -2.2217   -1.5526    0.3644 H   0  0  0  0  0  0  0  0  0  0  0  0
   -4.6865   -1.5721    0.4311 H   0  0  0  0  0  0  0  0  0  0  0  0
   -4.8048    1.5819   -2.5312 H   0  0  0  0  0  0  0  0  0  0  0  0
   -3.3312    3.3560   -2.8526 H   0  0  0  0  0  0  0  0  0  0  0  0
   -3.4011    2.1963   -4.2377 H   0  0  0  0  0  0  0  0  0  0  0  0
   -1.9190    3.1917   -3.9617 H   0  0  0  0  0  0  0  0  0  0  0  0
   -6.6861   -0.7452   -0.3006 H   0  0  0  0  0  0  0  0  0  0  0  0
   -8.9920   -0.4876   -1.7202 H   0  0  0  0  0  0  0  0  0  0  0  0
   -9.3053    1.2508   -1.7943 H   0  0  0  0  0  0  0  0  0  0  0  0
   -8.8779    0.5061   -0.2469 H   0  0  0  0  0  0  0  0  0  0  0  0
  2  1  1  0  0  0  0
  2  3  1  0  0  0  0
  4  5  2  0  0  0  0
  4  2  1  0  0  0  0
  6  4  1  0  0  0  0
  7  6  2  0  0  0  0
  7  8  1  0  0  0  0
  8  9  1  0  0  0  0
  8  1  2  0  0  0  0
  9 10  2  0  0  0  0
 10 11  1  0  0  0  0
 10 23  1  0  0  0  0
 11 24  1  0  0  0  0
 12 17  1  0  0  0  0
 12 11  2  0  0  0  0
 13 12  1  0  0  0  0
 14 13  2  0  0  0  0
 14  9  1  0  0  0  0
 15 14  1  0  0  0  0
 16 26  1  0  0  0  0
 16 15  1  0  0  0  0
 17 29  1  0  0  0  0
 18 20  1  0  0  0  0
 18 17  1  0  0  0  0
 19 18  2  0  0  0  0
 20 32  1  0  0  0  0
 21  6  1  0  0  0  0
 22  7  1  0  0  0  0
 25 13  1  0  0  0  0
 27 16  1  0  0  0  0
 28 16  1  0  0  0  0
 30 20  1  0  0  0  0
 31 20  1  0  0  0  0
M  END
$$$$
