rmsd187.gzmat
 OpenBabel08211713393D

 32 33  0  0  0  0  0  0  0  0999 V2000
    0.0000    0.0000    0.0000 N   0  0  0  0  0  0  0  0  0  0  0  0
    1.3370    0.0000    0.0000 N   0  0  0  0  0  0  0  0  0  0  0  0
    1.7515    0.0000    0.9333 H   0  0  0  0  0  0  0  0  0  0  0  0
    2.1487    0.0222   -1.1646 C   0  0  0  0  0  0  0  0  0  0  0  0
    3.3497    0.0173   -0.9986 O   0  0  0  0  0  0  0  0  0  0  0  0
    1.4174    0.0452   -2.4219 C   0  0  0  0  0  0  0  0  0  0  0  0
    0.0645    0.0391   -2.4241 C   0  0  0  0  0  0  0  0  0  0  0  0
   -0.6389    0.0132   -1.1602 C   0  0  0  0  0  0  0  0  0  0  0  0
   -2.1000   -0.0023   -1.1204 C   0  0  0  0  0  0  0  0  0  0  0  0
   -2.7882   -0.8707   -0.2715 C   0  0  0  0  0  0  0  0  0  0  0  0
   -4.1757   -0.8835   -0.2285 C   0  0  0  0  0  0  0  0  0  0  0  0
   -4.9096    0.0004   -1.0460 C   0  0  0  0  0  0  0  0  0  0  0  0
   -4.2462    0.8893   -1.8971 C   0  0  0  0  0  0  0  0  0  0  0  0
   -2.8533    0.8757   -1.9258 C   0  0  0  0  0  0  0  0  0  0  0  0
   -2.0920    1.6780   -2.7075 O   0  0  0  0  0  0  0  0  0  0  0  0
   -2.7626    2.6210   -3.5363 C   0  0  0  0  0  0  0  0  0  0  0  0
   -6.3144   -0.0554   -0.9422 N   0  0  0  0  0  0  0  0  0  0  0  0
   -7.2223    0.6122   -1.7743 C   0  0  0  0  0  0  0  0  0  0  0  0
   -6.8664    1.3201   -2.6854 O   0  0  0  0  0  0  0  0  0  0  0  0
   -8.6674    0.3814   -1.4292 C   0  0  0  0  0  0  0  0  0  0  0  0
    2.0203    0.0701   -3.3281 H   0  0  0  0  0  0  0  0  0  0  0  0
   -0.5218    0.0532   -3.3454 H   0  0  0  0  0  0  0  0  0  0  0  0
   -2.2186   -1.5496    0.3707 H   0  0  0  0  0  0  0  0  0  0  0  0
   -4.6850   -1.5741    0.4350 H   0  0  0  0  0  0  0  0  0  0  0  0
   -4.8070    1.5820   -2.5238 H   0  0  0  0  0  0  0  0  0  0  0  0
   -3.3305    3.3365   -2.9320 H   0  0  0  0  0  0  0  0  0  0  0  0
   -3.4058    2.1149   -4.2640 H   0  0  0  0  0  0  0  0  0  0  0  0
   -1.9225    3.1200   -4.0387 H   0  0  0  0  0  0  0  0  0  0  0  0
   -6.6831   -0.6589   -0.2121 H   0  0  0  0  0  0  0  0  0  0  0  0
   -8.8950   -0.6514   -1.1404 H   0  0  0  0  0  0  0  0  0  0  0  0
   -9.3031    0.6236   -2.2990 H   0  0  0  0  0  0  0  0  0  0  0  0
   -8.9851    1.0462   -0.6112 H   0  0  0  0  0  0  0  0  0  0  0  0
  2  1  1  0  0  0  0
  2  3  1  0  0  0  0
  4  5  2  0  0  0  0
  4  2  1  0  0  0  0
  6  4  1  0  0  0  0
  7  6  2  0  0  0  0
  7  8  1  0  0  0  0
  8  9  1  0  0  0  0
  8  1  2  0  0  0  0
  9 10  2  0  0  0  0
 10 11  1  0  0  0  0
 10 23  1  0  0  0  0
 11 24  1  0  0  0  0
 12 17  1  0  0  0  0
 12 11  2  0  0  0  0
 13 12  1  0  0  0  0
 14 13  2  0  0  0  0
 14  9  1  0  0  0  0
 15 14  1  0  0  0  0
 16 26  1  0  0  0  0
 16 15  1  0  0  0  0
 17 29  1  0  0  0  0
 18 20  1  0  0  0  0
 18 17  1  0  0  0  0
 19 18  2  0  0  0  0
 20 30  1  0  0  0  0
 20 32  1  0  0  0  0
 21  6  1  0  0  0  0
 22  7  1  0  0  0  0
 25 13  1  0  0  0  0
 27 16  1  0  0  0  0
 28 16  1  0  0  0  0
 31 20  1  0  0  0  0
M  END
$$$$
