32
rmsd162.gzmat
N          0.00000        0.00000        0.00000
N          1.33700        0.00000        0.00000
H          1.75210        0.00000        0.93320
C          2.14840       -0.01870       -1.16460
O          3.34950       -0.01850       -0.99880
C          1.41700       -0.03060       -2.42230
C          0.06420       -0.02710       -2.42400
C         -0.63910       -0.00930       -1.16010
C         -2.10030        0.00590       -1.12270
C         -2.79070        0.87500       -0.27630
C         -4.17830        0.89600       -0.24380
C         -4.91130        0.01730       -1.06830
C         -4.24560       -0.87270       -1.91640
C         -2.85260       -0.86890       -1.93320
O         -2.09030       -1.67720       -2.70770
C         -2.75910       -2.61330       -3.54560
N         -6.31630        0.09300       -0.98690
C         -7.22420       -0.69890       -1.70250
O         -6.87050       -1.54850       -2.48330
C         -8.66880       -0.39270       -1.41760
H          2.02020       -0.04470       -3.32830
H         -0.52160       -0.03640       -3.34530
H         -2.22230        1.54800        0.37280
H         -4.68840        1.58600        0.42000
H         -4.80520       -1.55940       -2.55050
H         -3.37180       -2.09930       -4.29320
H         -3.35930       -3.31230       -2.95380
H         -1.91670       -3.13480       -4.02080
H         -6.68760        0.78820       -0.34480
H         -8.90940       -0.43470       -0.34780
H         -9.31560       -1.13230       -1.92190
H         -8.95910        0.59550       -1.80100
