32
rmsd114.gzmat
N          0.00000        0.00000        0.00000
N          1.33710        0.00000        0.00000
H          1.75220        0.00000        0.93270
C          2.14870        0.02130       -1.16410
O          3.34960        0.02600       -0.99760
C          1.41800        0.02690       -2.42190
C          0.06530        0.01710       -2.42420
C         -0.63820        0.00530       -1.16040
C         -2.09960        0.00150       -1.12700
C         -2.80450       -0.87000       -0.29590
C         -4.19260       -0.86740       -0.26530
C         -4.91030        0.03400       -1.07870
C         -4.22940        0.92280       -1.91590
C         -2.83670        0.89820       -1.92760
O         -2.05890        1.70360       -2.68960
C         -2.70970        2.68190       -3.49240
N         -6.31620       -0.01670       -0.99460
C         -7.21230        0.77050       -1.72980
O         -6.84620        1.59220       -2.53450
C         -8.66030        0.49910       -1.42710
H          2.02110        0.03890       -3.32800
H         -0.52140        0.01610       -3.34530
H         -2.24870       -1.56360        0.34230
H         -4.71530       -1.55750        0.38830
H         -4.77580        1.62300       -2.54650
H         -3.28730        3.37600       -2.87280
H         -3.34050        2.20670       -4.25050
H         -1.85830        3.19680       -3.95810
H         -6.69820       -0.69080       -0.33620
H         -8.95610       -0.52260       -1.70000
H         -9.30080        1.18380       -2.01000
H         -8.90270        0.65940       -0.36840
