rmsd131.gzmat
 OpenBabel08211713393D

 32 33  0  0  0  0  0  0  0  0999 V2000
    0.0000    0.0000    0.0000 N   0  0  0  0  0  0  0  0  0  0  0  0
    1.3371    0.0000    0.0000 N   0  0  0  0  0  0  0  0  0  0  0  0
    1.7517    0.0000    0.9334 H   0  0  0  0  0  0  0  0  0  0  0  0
    2.1485   -0.0228   -1.1646 C   0  0  0  0  0  0  0  0  0  0  0  0
    3.3496   -0.0261   -0.9998 O   0  0  0  0  0  0  0  0  0  0  0  0
    1.4174   -0.0336   -2.4224 C   0  0  0  0  0  0  0  0  0  0  0  0
    0.0646   -0.0317   -2.4244 C   0  0  0  0  0  0  0  0  0  0  0  0
   -0.6380   -0.0130   -1.1604 C   0  0  0  0  0  0  0  0  0  0  0  0
   -2.0995   -0.0033   -1.1266 C   0  0  0  0  0  0  0  0  0  0  0  0
   -2.7985    0.8923   -0.3165 C   0  0  0  0  0  0  0  0  0  0  0  0
   -4.1866    0.9013   -0.2873 C   0  0  0  0  0  0  0  0  0  0  0  0
   -4.9092   -0.0171   -1.0767 C   0  0  0  0  0  0  0  0  0  0  0  0
   -4.2340   -0.9322   -1.8899 C   0  0  0  0  0  0  0  0  0  0  0  0
   -2.8411   -0.9154   -1.9045 C   0  0  0  0  0  0  0  0  0  0  0  0
   -2.0684   -1.7416   -2.6494 O   0  0  0  0  0  0  0  0  0  0  0  0
   -2.7262   -2.7346   -3.4285 C   0  0  0  0  0  0  0  0  0  0  0  0
   -6.3151    0.0505   -1.0029 N   0  0  0  0  0  0  0  0  0  0  0  0
   -7.2122   -0.8329   -1.6178 C   0  0  0  0  0  0  0  0  0  0  0  0
   -6.8460   -1.7633   -2.2943 O   0  0  0  0  0  0  0  0  0  0  0  0
   -8.6607   -0.5149   -1.3684 C   0  0  0  0  0  0  0  0  0  0  0  0
    2.0213   -0.0452   -3.3281 H   0  0  0  0  0  0  0  0  0  0  0  0
   -0.5232   -0.0424   -3.3445 H   0  0  0  0  0  0  0  0  0  0  0  0
   -2.2375    1.5950    0.3065 H   0  0  0  0  0  0  0  0  0  0  0  0
   -4.7049    1.6099    0.3498 H   0  0  0  0  0  0  0  0  0  0  0  0
   -4.7860   -1.6488   -2.4967 H   0  0  0  0  0  0  0  0  0  0  0  0
   -3.3526   -2.2727   -4.1983 H   0  0  0  0  0  0  0  0  0  0  0  0
   -3.3112   -3.4082   -2.7929 H   0  0  0  0  0  0  0  0  0  0  0  0
   -1.8780   -3.2681   -3.8793 H   0  0  0  0  0  0  0  0  0  0  0  0
   -6.6947    0.8034   -0.4350 H   0  0  0  0  0  0  0  0  0  0  0  0
   -8.8871   -0.3238   -0.3123 H   0  0  0  0  0  0  0  0  0  0  0  0
   -9.2911   -1.3640   -1.6857 H   0  0  0  0  0  0  0  0  0  0  0  0
   -8.9849    0.3569   -1.9548 H   0  0  0  0  0  0  0  0  0  0  0  0
  1  2  1  0  0  0  0
  2  3  1  0  0  0  0
  4  5  2  0  0  0  0
  4  2  1  0  0  0  0
  6  4  1  0  0  0  0
  7  6  2  0  0  0  0
  7  8  1  0  0  0  0
  8  9  1  0  0  0  0
  8  1  2  0  0  0  0
  9 10  2  0  0  0  0
 10 11  1  0  0  0  0
 10 23  1  0  0  0  0
 11 24  1  0  0  0  0
 12 17  1  0  0  0  0
 12 11  2  0  0  0  0
 13 12  1  0  0  0  0
 14 13  2  0  0  0  0
 14  9  1  0  0  0  0
 15 14  1  0  0  0  0
 16 27  1  0  0  0  0
 16 15  1  0  0  0  0
 17 29  1  0  0  0  0
 18 20  1  0  0  0  0
 18 17  1  0  0  0  0
 19 18  2  0  0  0  0
 20 30  1  0  0  0  0
 21  6  1  0  0  0  0
 22  7  1  0  0  0  0
 25 13  1  0  0  0  0
 26 16  1  0  0  0  0
 28 16  1  0  0  0  0
 31 20  1  0  0  0  0
 32 20  1  0  0  0  0
M  END
$$$$
