32
rmsd187.gzmat
N          0.00000        0.00000        0.00000
N          1.33700        0.00000        0.00000
H          1.75150        0.00000        0.93330
C          2.14870        0.02220       -1.16460
O          3.34970        0.01730       -0.99860
C          1.41740        0.04520       -2.42190
C          0.06450        0.03910       -2.42410
C         -0.63890        0.01320       -1.16020
C         -2.10000       -0.00230       -1.12040
C         -2.78820       -0.87070       -0.27150
C         -4.17570       -0.88350       -0.22850
C         -4.90960        0.00040       -1.04600
C         -4.24620        0.88930       -1.89710
C         -2.85330        0.87570       -1.92580
O         -2.09200        1.67800       -2.70750
C         -2.76260        2.62100       -3.53630
N         -6.31440       -0.05540       -0.94220
C         -7.22230        0.61220       -1.77430
O         -6.86640        1.32010       -2.68540
C         -8.66740        0.38140       -1.42920
H          2.02030        0.07010       -3.32810
H         -0.52180        0.05320       -3.34540
H         -2.21860       -1.54960        0.37070
H         -4.68500       -1.57410        0.43500
H         -4.80700        1.58200       -2.52380
H         -3.33050        3.33650       -2.93200
H         -3.40580        2.11490       -4.26400
H         -1.92250        3.12000       -4.03870
H         -6.68310       -0.65890       -0.21210
H         -8.89500       -0.65140       -1.14040
H         -9.30310        0.62360       -2.29900
H         -8.98510        1.04620       -0.61120
