rmsd157.gzmat
 OpenBabel08211713393D

 32 33  0  0  0  0  0  0  0  0999 V2000
    0.0000    0.0000    0.0000 N   0  0  0  0  0  0  0  0  0  0  0  0
    1.3370    0.0000    0.0000 N   0  0  0  0  0  0  0  0  0  0  0  0
    1.7523    0.0000    0.9328 H   0  0  0  0  0  0  0  0  0  0  0  0
    2.1483    0.0213   -1.1645 C   0  0  0  0  0  0  0  0  0  0  0  0
    3.3493    0.0236   -0.9982 O   0  0  0  0  0  0  0  0  0  0  0  0
    1.4168    0.0315   -2.4220 C   0  0  0  0  0  0  0  0  0  0  0  0
    0.0639    0.0268   -2.4237 C   0  0  0  0  0  0  0  0  0  0  0  0
   -0.6390    0.0097   -1.1604 C   0  0  0  0  0  0  0  0  0  0  0  0
   -2.1001   -0.0124   -1.1221 C   0  0  0  0  0  0  0  0  0  0  0  0
   -2.7800   -0.8925   -0.2787 C   0  0  0  0  0  0  0  0  0  0  0  0
   -4.1669   -0.9219   -0.2389 C   0  0  0  0  0  0  0  0  0  0  0  0
   -4.9096   -0.0432   -1.0547 C   0  0  0  0  0  0  0  0  0  0  0  0
   -4.2550    0.8572   -1.9003 C   0  0  0  0  0  0  0  0  0  0  0  0
   -2.8616    0.8632   -1.9224 C   0  0  0  0  0  0  0  0  0  0  0  0
   -2.1078    1.6796   -2.6965 O   0  0  0  0  0  0  0  0  0  0  0  0
   -2.7859    2.6545   -3.4817 C   0  0  0  0  0  0  0  0  0  0  0  0
   -6.3130   -0.1306   -0.9620 N   0  0  0  0  0  0  0  0  0  0  0  0
   -7.2351    0.6350   -1.6875 C   0  0  0  0  0  0  0  0  0  0  0  0
   -6.8972    1.4718   -2.4895 O   0  0  0  0  0  0  0  0  0  0  0  0
   -8.6726    0.3122   -1.3860 C   0  0  0  0  0  0  0  0  0  0  0  0
    2.0193    0.0436   -3.3287 H   0  0  0  0  0  0  0  0  0  0  0  0
   -0.5231    0.0305   -3.3445 H   0  0  0  0  0  0  0  0  0  0  0  0
   -2.2031   -1.5664    0.3619 H   0  0  0  0  0  0  0  0  0  0  0  0
   -4.6701   -1.6181    0.4232 H   0  0  0  0  0  0  0  0  0  0  0  0
   -4.8233    1.5427   -2.5285 H   0  0  0  0  0  0  0  0  0  0  0  0
   -3.3637    3.3346   -2.8469 H   0  0  0  0  0  0  0  0  0  0  0  0
   -3.4219    2.1761   -4.2335 H   0  0  0  0  0  0  0  0  0  0  0  0
   -1.9497    3.1854   -3.9572 H   0  0  0  0  0  0  0  0  0  0  0  0
   -6.6726   -0.8210   -0.3076 H   0  0  0  0  0  0  0  0  0  0  0  0
   -8.9924   -0.5984   -1.9143 H   0  0  0  0  0  0  0  0  0  0  0  0
   -9.3235    1.1301   -1.7412 H   0  0  0  0  0  0  0  0  0  0  0  0
   -8.8760    0.1785   -0.3165 H   0  0  0  0  0  0  0  0  0  0  0  0
  2  1  1  0  0  0  0
  2  3  1  0  0  0  0
  4  5  2  0  0  0  0
  4  2  1  0  0  0  0
  6  4  1  0  0  0  0
  7  6  2  0  0  0  0
  7  8  1  0  0  0  0
  8  9  1  0  0  0  0
  8  1  2  0  0  0  0
  9 10  2  0  0  0  0
 10 11  1  0  0  0  0
 10 23  1  0  0  0  0
 11 24  1  0  0  0  0
 12 17  1  0  0  0  0
 12 11  2  0  0  0  0
 13 12  1  0  0  0  0
 14 13  2  0  0  0  0
 14  9  1  0  0  0  0
 15 14  1  0  0  0  0
 16 26  1  0  0  0  0
 16 15  1  0  0  0  0
 17 29  1  0  0  0  0
 18 20  1  0  0  0  0
 18 17  1  0  0  0  0
 19 18  2  0  0  0  0
 20 32  1  0  0  0  0
 21  6  1  0  0  0  0
 22  7  1  0  0  0  0
 25 13  1  0  0  0  0
 27 16  1  0  0  0  0
 28 16  1  0  0  0  0
 30 20  1  0  0  0  0
 31 20  1  0  0  0  0
M  END
$$$$
