32
rmsd170.gzmat
N          0.00000        0.00000        0.00000
N          1.33710        0.00000        0.00000
H          1.75190        0.00000        0.93300
C          2.14890        0.01520       -1.16450
O          3.34990        0.01610       -0.99870
C          1.41810        0.02320       -2.42210
C          0.06520        0.01910       -2.42430
C         -0.63820        0.00550       -1.16040
C         -2.09960       -0.01370       -1.12660
C         -2.79180       -0.90360       -0.30440
C         -4.17970       -0.92530       -0.27780
C         -4.91020       -0.02770       -1.08380
C         -4.24170        0.88330       -1.90730
C         -2.84870        0.87920       -1.91900
O         -2.08190        1.70050       -2.67520
C         -2.74620        2.67910       -3.46680
N         -6.31550       -0.10610       -1.00840
C         -7.22050        0.70690       -1.70350
O         -6.86350        1.57260       -2.46540
C         -8.66630        0.40370       -1.42230
H          2.02170        0.03230       -3.32810
H         -0.52200        0.02430       -3.34500
H         -2.22540       -1.59320        0.32900
H         -4.69220       -1.62990        0.36800
H         -4.79810        1.58760       -2.52530
H         -3.31640        3.36950       -2.83610
H         -3.38600        2.20480       -4.21820
H         -1.90300        3.19780       -3.94280
H         -6.68880       -0.81710       -0.38490
H         -8.96640       -0.56680       -1.84030
H         -9.30780        1.16710       -1.89690
H         -8.90310        0.40730       -0.35090
