rmsd170.gzmat
 OpenBabel08211713393D

 32 33  0  0  0  0  0  0  0  0999 V2000
    0.0000    0.0000    0.0000 N   0  0  0  0  0  0  0  0  0  0  0  0
    1.3371    0.0000    0.0000 N   0  0  0  0  0  0  0  0  0  0  0  0
    1.7519    0.0000    0.9330 H   0  0  0  0  0  0  0  0  0  0  0  0
    2.1489    0.0152   -1.1645 C   0  0  0  0  0  0  0  0  0  0  0  0
    3.3499    0.0161   -0.9987 O   0  0  0  0  0  0  0  0  0  0  0  0
    1.4181    0.0232   -2.4221 C   0  0  0  0  0  0  0  0  0  0  0  0
    0.0652    0.0191   -2.4243 C   0  0  0  0  0  0  0  0  0  0  0  0
   -0.6382    0.0055   -1.1604 C   0  0  0  0  0  0  0  0  0  0  0  0
   -2.0996   -0.0137   -1.1266 C   0  0  0  0  0  0  0  0  0  0  0  0
   -2.7918   -0.9036   -0.3044 C   0  0  0  0  0  0  0  0  0  0  0  0
   -4.1797   -0.9253   -0.2778 C   0  0  0  0  0  0  0  0  0  0  0  0
   -4.9102   -0.0277   -1.0838 C   0  0  0  0  0  0  0  0  0  0  0  0
   -4.2417    0.8833   -1.9073 C   0  0  0  0  0  0  0  0  0  0  0  0
   -2.8487    0.8792   -1.9190 C   0  0  0  0  0  0  0  0  0  0  0  0
   -2.0819    1.7005   -2.6752 O   0  0  0  0  0  0  0  0  0  0  0  0
   -2.7462    2.6791   -3.4668 C   0  0  0  0  0  0  0  0  0  0  0  0
   -6.3155   -0.1061   -1.0084 N   0  0  0  0  0  0  0  0  0  0  0  0
   -7.2205    0.7069   -1.7035 C   0  0  0  0  0  0  0  0  0  0  0  0
   -6.8635    1.5726   -2.4654 O   0  0  0  0  0  0  0  0  0  0  0  0
   -8.6663    0.4037   -1.4223 C   0  0  0  0  0  0  0  0  0  0  0  0
    2.0217    0.0323   -3.3281 H   0  0  0  0  0  0  0  0  0  0  0  0
   -0.5220    0.0243   -3.3450 H   0  0  0  0  0  0  0  0  0  0  0  0
   -2.2254   -1.5932    0.3290 H   0  0  0  0  0  0  0  0  0  0  0  0
   -4.6922   -1.6299    0.3680 H   0  0  0  0  0  0  0  0  0  0  0  0
   -4.7981    1.5876   -2.5253 H   0  0  0  0  0  0  0  0  0  0  0  0
   -3.3164    3.3695   -2.8361 H   0  0  0  0  0  0  0  0  0  0  0  0
   -3.3860    2.2048   -4.2182 H   0  0  0  0  0  0  0  0  0  0  0  0
   -1.9030    3.1978   -3.9428 H   0  0  0  0  0  0  0  0  0  0  0  0
   -6.6888   -0.8171   -0.3849 H   0  0  0  0  0  0  0  0  0  0  0  0
   -8.9664   -0.5668   -1.8403 H   0  0  0  0  0  0  0  0  0  0  0  0
   -9.3078    1.1671   -1.8969 H   0  0  0  0  0  0  0  0  0  0  0  0
   -8.9031    0.4073   -0.3509 H   0  0  0  0  0  0  0  0  0  0  0  0
  2  1  1  0  0  0  0
  2  3  1  0  0  0  0
  4  5  2  0  0  0  0
  4  2  1  0  0  0  0
  6  4  1  0  0  0  0
  7  6  2  0  0  0  0
  7  8  1  0  0  0  0
  8  9  1  0  0  0  0
  8  1  2  0  0  0  0
  9 10  2  0  0  0  0
 10 11  1  0  0  0  0
 10 23  1  0  0  0  0
 11 24  1  0  0  0  0
 12 17  1  0  0  0  0
 12 11  2  0  0  0  0
 13 12  1  0  0  0  0
 14 13  2  0  0  0  0
 14  9  1  0  0  0  0
 15 14  1  0  0  0  0
 16 26  1  0  0  0  0
 16 15  1  0  0  0  0
 17 29  1  0  0  0  0
 18 20  1  0  0  0  0
 18 17  1  0  0  0  0
 19 18  2  0  0  0  0
 20 32  1  0  0  0  0
 21  6  1  0  0  0  0
 22  7  1  0  0  0  0
 25 13  1  0  0  0  0
 27 16  1  0  0  0  0
 28 16  1  0  0  0  0
 30 20  1  0  0  0  0
 31 20  1  0  0  0  0
M  END
$$$$
