rmsd104.gzmat
 OpenBabel08211713393D

 32 33  0  0  0  0  0  0  0  0999 V2000
    0.0000    0.0000    0.0000 N   0  0  0  0  0  0  0  0  0  0  0  0
    1.3371    0.0000    0.0000 N   0  0  0  0  0  0  0  0  0  0  0  0
    1.7517    0.0000    0.9330 H   0  0  0  0  0  0  0  0  0  0  0  0
    2.1489    0.0242   -1.1643 C   0  0  0  0  0  0  0  0  0  0  0  0
    3.3499    0.0275   -0.9986 O   0  0  0  0  0  0  0  0  0  0  0  0
    1.4179    0.0349   -2.4220 C   0  0  0  0  0  0  0  0  0  0  0  0
    0.0651    0.0277   -2.4242 C   0  0  0  0  0  0  0  0  0  0  0  0
   -0.6386    0.0105   -1.1602 C   0  0  0  0  0  0  0  0  0  0  0  0
   -2.1001    0.0050   -1.1233 C   0  0  0  0  0  0  0  0  0  0  0  0
   -2.7999   -0.8641   -0.2854 C   0  0  0  0  0  0  0  0  0  0  0  0
   -4.1877   -0.8610   -0.2457 C   0  0  0  0  0  0  0  0  0  0  0  0
   -4.9101    0.0430   -1.0518 C   0  0  0  0  0  0  0  0  0  0  0  0
   -4.2344    0.9304   -1.8949 C   0  0  0  0  0  0  0  0  0  0  0  0
   -2.8419    0.8993   -1.9221 C   0  0  0  0  0  0  0  0  0  0  0  0
   -2.0686    1.6954   -2.6984 O   0  0  0  0  0  0  0  0  0  0  0  0
   -2.7197    2.6928   -3.4775 C   0  0  0  0  0  0  0  0  0  0  0  0
   -6.3152    0.0002   -0.9493 N   0  0  0  0  0  0  0  0  0  0  0  0
   -7.2167    0.7669   -1.6990 C   0  0  0  0  0  0  0  0  0  0  0  0
   -6.8559    1.5592   -2.5353 O   0  0  0  0  0  0  0  0  0  0  0  0
   -8.6624    0.5248   -1.3633 C   0  0  0  0  0  0  0  0  0  0  0  0
    2.0209    0.0493   -3.3283 H   0  0  0  0  0  0  0  0  0  0  0  0
   -0.5211    0.0330   -3.3456 H   0  0  0  0  0  0  0  0  0  0  0  0
   -2.2406   -1.5551    0.3523 H   0  0  0  0  0  0  0  0  0  0  0  0
   -4.7061   -1.5526    0.4096 H   0  0  0  0  0  0  0  0  0  0  0  0
   -4.7847    1.6357   -2.5170 H   0  0  0  0  0  0  0  0  0  0  0  0
   -3.2768    3.3867   -2.8391 H   0  0  0  0  0  0  0  0  0  0  0  0
   -3.3702    2.2366   -4.2310 H   0  0  0  0  0  0  0  0  0  0  0  0
   -1.8692    3.2024   -3.9513 H   0  0  0  0  0  0  0  0  0  0  0  0
   -6.6916   -0.6535   -0.2673 H   0  0  0  0  0  0  0  0  0  0  0  0
   -8.9173   -0.5374   -1.2676 H   0  0  0  0  0  0  0  0  0  0  0  0
   -9.3068    0.9428   -2.1565 H   0  0  0  0  0  0  0  0  0  0  0  0
   -8.9426    1.0331   -0.4285 H   0  0  0  0  0  0  0  0  0  0  0  0
  2  1  1  0  0  0  0
  2  3  1  0  0  0  0
  4  5  2  0  0  0  0
  4  2  1  0  0  0  0
  6  4  1  0  0  0  0
  7  6  2  0  0  0  0
  7  8  1  0  0  0  0
  8  9  1  0  0  0  0
  8  1  2  0  0  0  0
  9 10  2  0  0  0  0
 10 11  1  0  0  0  0
 10 23  1  0  0  0  0
 11 24  1  0  0  0  0
 12 17  1  0  0  0  0
 12 11  2  0  0  0  0
 13 12  1  0  0  0  0
 14 13  2  0  0  0  0
 14  9  1  0  0  0  0
 15 14  1  0  0  0  0
 16 26  1  0  0  0  0
 16 15  1  0  0  0  0
 17 29  1  0  0  0  0
 18 20  1  0  0  0  0
 18 17  1  0  0  0  0
 19 18  2  0  0  0  0
 20 30  1  0  0  0  0
 20 32  1  0  0  0  0
 21  6  1  0  0  0  0
 22  7  1  0  0  0  0
 25 13  1  0  0  0  0
 27 16  1  0  0  0  0
 28 16  1  0  0  0  0
 31 20  1  0  0  0  0
M  END
$$$$
