rmsd24.gzmat
 OpenBabel08211713413D

 56 59  0  0  1  0  0  0  0  0999 V2000
    0.0000    0.0000    0.0000 S   0  0  0  0  0  0  0  0  0  0  0  0
    1.7400    0.0000    0.0000 C   0  0  1  0  0  0  0  0  0  0  0  0
    2.2212    0.0000    1.2904 C   0  0  0  0  0  0  0  0  0  0  0  0
    1.2315   -0.0418    2.2795 N   0  0  0  0  0  0  0  0  0  0  0  0
    0.0087   -0.0283    1.7899 C   0  0  0  0  0  0  0  0  0  0  0  0
   -1.1968   -0.0667    2.5830 C   0  0  0  0  0  0  0  0  0  0  0  0
   -1.1276   -0.5229    3.9096 C   0  0  0  0  0  0  0  0  0  0  0  0
   -2.2597   -0.5873    4.7027 C   0  0  0  0  0  0  0  0  0  0  0  0
   -3.5164   -0.1923    4.1885 C   0  0  0  0  0  0  0  0  0  0  0  0
   -4.6809   -0.3775    4.9326 N   0  0  0  0  0  0  0  0  0  0  0  0
   -5.8899    0.3468    4.5123 C   0  0  0  0  0  0  0  0  0  0  0  0
   -4.5513   -0.4927    6.3932 C   0  0  0  0  0  0  0  0  0  0  0  0
   -3.5762    0.2897    2.8607 C   0  0  0  0  0  0  0  0  0  0  0  0
   -2.4352    0.3473    2.0774 C   0  0  0  0  0  0  0  0  0  0  0  0
    3.6085    0.0128    1.7332 C   0  0  0  0  0  0  0  0  0  0  0  0
    4.5170    0.9186    1.1814 C   0  0  0  0  0  0  0  0  0  0  0  0
    5.8388    0.9462    1.6189 C   0  0  0  0  0  0  0  0  0  0  0  0
    6.2326    0.0556    2.6174 C   0  0  0  0  0  0  0  0  0  0  0  0
    7.4803   -0.0338    3.1477 O   0  0  0  0  0  0  0  0  0  0  0  0
    8.4592    0.8745    2.6611 C   0  0  0  0  0  0  0  0  0  0  0  0
    5.3326   -0.8608    3.1888 C   0  0  0  0  0  0  0  0  0  0  0  0
    4.0208   -0.8684    2.7454 C   0  0  0  0  0  0  0  0  0  0  0  0
    2.4873   -0.0079   -1.2575 C   0  0  0  0  0  0  0  0  0  0  0  0
    3.3711    0.7849   -1.4868 O   0  0  0  0  0  0  0  0  0  0  0  0
    2.0831   -1.0211   -2.2591 C   0  0  0  0  0  0  0  0  0  0  0  0
    1.7444   -2.3174   -1.8735 C   0  0  0  0  0  0  0  0  0  0  0  0
    1.3498   -3.2542   -2.8250 C   0  0  0  0  0  0  0  0  0  0  0  0
    1.3039   -2.8649   -4.1651 C   0  0  0  0  0  0  0  0  0  0  0  0
    0.9238   -3.6528   -5.2020 O   0  0  0  0  0  0  0  0  0  0  0  0
    0.4991   -4.9751   -4.8991 C   0  0  0  0  0  0  0  0  0  0  0  0
    1.6670   -1.5695   -4.5739 C   0  0  0  0  0  0  0  0  0  0  0  0
    2.0643   -0.6560   -3.6111 C   0  0  0  0  0  0  0  0  0  0  0  0
   -0.1561   -0.8244    4.3185 H   0  0  0  0  0  0  0  0  0  0  0  0
   -2.1671   -0.9498    5.7215 H   0  0  0  0  0  0  0  0  0  0  0  0
   -6.1852    0.0142    3.4997 H   0  0  0  0  0  0  0  0  0  0  0  0
   -5.7593    1.4420    4.5044 H   0  0  0  0  0  0  0  0  0  0  0  0
   -6.7338    0.1030    5.1799 H   0  0  0  0  0  0  0  0  0  0  0  0
   -3.9804   -1.4071    6.6408 H   0  0  0  0  0  0  0  0  0  0  0  0
   -5.5444   -0.6065    6.8590 H   0  0  0  0  0  0  0  0  0  0  0  0
   -4.0497    0.3761    6.8513 H   0  0  0  0  0  0  0  0  0  0  0  0
   -4.5184    0.6188    2.4343 H   0  0  0  0  0  0  0  0  0  0  0  0
   -2.5224    0.7374    1.0610 H   0  0  0  0  0  0  0  0  0  0  0  0
    4.1887    1.6176    0.4045 H   0  0  0  0  0  0  0  0  0  0  0  0
    6.5342    1.6515    1.1787 H   0  0  0  0  0  0  0  0  0  0  0  0
    9.3372    0.6211    3.2699 H   0  0  0  0  0  0  0  0  0  0  0  0
    8.1563    1.9109    2.8415 H   0  0  0  0  0  0  0  0  0  0  0  0
    8.6638    0.6922    1.6012 H   0  0  0  0  0  0  0  0  0  0  0  0
    5.6731   -1.5371    3.9671 H   0  0  0  0  0  0  0  0  0  0  0  0
    3.2949   -1.5558    3.1850 H   0  0  0  0  0  0  0  0  0  0  0  0
    1.7935   -2.6081   -0.8212 H   0  0  0  0  0  0  0  0  0  0  0  0
    1.0866   -4.2594   -2.5175 H   0  0  0  0  0  0  0  0  0  0  0  0
    0.2354   -5.3667   -5.8914 H   0  0  0  0  0  0  0  0  0  0  0  0
   -0.3798   -4.9643   -4.2473 H   0  0  0  0  0  0  0  0  0  0  0  0
    1.3164   -5.5572   -4.4619 H   0  0  0  0  0  0  0  0  0  0  0  0
    1.6330   -1.3081   -5.6277 H   0  0  0  0  0  0  0  0  0  0  0  0
    2.3628    0.3558   -3.8993 H   0  0  0  0  0  0  0  0  0  0  0  0
  1  2  1  0  0  0  0
  1  5  1  0  0  0  0
  2 23  1  1  0  0  0
  2  3  1  0  0  0  0
  3 15  1  0  0  0  0
  3  4  2  0  0  0  0
  5  4  2  0  0  0  0
  5  6  1  0  0  0  0
  6  7  1  0  0  0  0
  7 33  1  0  0  0  0
  7  8  2  0  0  0  0
  8 34  1  0  0  0  0
  9  8  1  0  0  0  0
  9 10  1  0  0  0  0
 10 12  1  0  0  0  0
 11 10  1  0  0  0  0
 11 37  1  0  0  0  0
 12 38  1  0  0  0  0
 12 40  1  0  0  0  0
 12 39  1  0  0  0  0
 13  9  2  0  0  0  0
 14  6  2  0  0  0  0
 14 13  1  0  0  0  0
 15 22  2  0  0  0  0
 16 17  2  0  0  0  0
 16 15  1  0  0  0  0
 17 18  1  0  0  0  0
 18 19  1  0  0  0  0
 18 21  2  0  0  0  0
 20 46  1  0  0  0  0
 20 19  1  0  0  0  0
 20 45  1  0  0  0  0
 21 48  1  0  0  0  0
 22 49  1  0  0  0  0
 22 21  1  0  0  0  0
 24 23  2  0  0  0  0
 25 26  1  0  0  0  0
 25 23  1  0  0  0  0
 26 50  1  0  0  0  0
 27 51  1  0  0  0  0
 27 26  2  0  0  0  0
 28 27  1  0  0  0  0
 29 30  1  0  0  0  0
 29 28  1  0  0  0  0
 30 54  1  0  0  0  0
 30 53  1  0  0  0  0
 31 28  2  0  0  0  0
 31 32  1  0  0  0  0
 32 25  2  0  0  0  0
 35 11  1  0  0  0  0
 36 11  1  0  0  0  0
 41 13  1  0  0  0  0
 42 14  1  0  0  0  0
 43 16  1  0  0  0  0
 44 17  1  0  0  0  0
 47 20  1  0  0  0  0
 52 30  1  0  0  0  0
 55 31  1  0  0  0  0
 56 32  1  0  0  0  0
M  RAD  1   2   2
M  END
$$$$
