rmsd119.gzmat
 OpenBabel08211713413D

 56 59  0  0  1  0  0  0  0  0999 V2000
    0.0000    0.0000    0.0000 S   0  0  0  0  0  0  0  0  0  0  0  0
    1.7380    0.0000    0.0000 C   0  0  2  0  0  0  0  0  0  0  0  0
    2.2230    0.0000    1.2875 C   0  0  0  0  0  0  0  0  0  0  0  0
    1.2355    0.0478    2.2807 N   0  0  0  0  0  0  0  0  0  0  0  0
    0.0147    0.0521    1.7915 C   0  0  0  0  0  0  0  0  0  0  0  0
   -1.1992    0.0537    2.5731 C   0  0  0  0  0  0  0  0  0  0  0  0
   -2.3628    0.6906    2.1256 C   0  0  0  0  0  0  0  0  0  0  0  0
   -3.5226    0.6586    2.8818 C   0  0  0  0  0  0  0  0  0  0  0  0
   -3.5580   -0.0291    4.1172 C   0  0  0  0  0  0  0  0  0  0  0  0
   -4.7627   -0.2001    4.7982 N   0  0  0  0  0  0  0  0  0  0  0  0
   -5.8594    0.7338    4.5023 C   0  0  0  0  0  0  0  0  0  0  0  0
   -4.7078   -0.5992    6.2125 C   0  0  0  0  0  0  0  0  0  0  0  0
   -2.3691   -0.6365    4.5823 C   0  0  0  0  0  0  0  0  0  0  0  0
   -1.2152   -0.5923    3.8186 C   0  0  0  0  0  0  0  0  0  0  0  0
    3.6147   -0.0100    1.7151 C   0  0  0  0  0  0  0  0  0  0  0  0
    4.0302    0.8476    2.7458 C   0  0  0  0  0  0  0  0  0  0  0  0
    5.3460    0.8366    3.1774 C   0  0  0  0  0  0  0  0  0  0  0  0
    6.2472   -0.0569    2.5731 C   0  0  0  0  0  0  0  0  0  0  0  0
    7.4959    0.0193    3.1027 O   0  0  0  0  0  0  0  0  0  0  0  0
    8.4759   -0.8729    2.5900 C   0  0  0  0  0  0  0  0  0  0  0  0
    5.8537   -0.9149    1.5459 C   0  0  0  0  0  0  0  0  0  0  0  0
    4.5274   -0.8866    1.1236 C   0  0  0  0  0  0  0  0  0  0  0  0
    2.4815    0.0198   -1.2621 C   0  0  0  0  0  0  0  0  0  0  0  0
    3.2277   -0.8741   -1.5858 O   0  0  0  0  0  0  0  0  0  0  0  0
    2.2370    1.1853   -2.1398 C   0  0  0  0  0  0  0  0  0  0  0  0
    2.2085    0.9950   -3.5208 C   0  0  0  0  0  0  0  0  0  0  0  0
    1.9336    2.0621   -4.3731 C   0  0  0  0  0  0  0  0  0  0  0  0
    1.7124    3.3211   -3.8124 C   0  0  0  0  0  0  0  0  0  0  0  0
    1.4159    4.4508   -4.5020 O   0  0  0  0  0  0  0  0  0  0  0  0
    1.2732    4.3403   -5.9115 C   0  0  0  0  0  0  0  0  0  0  0  0
    1.7827    3.5388   -2.4240 C   0  0  0  0  0  0  0  0  0  0  0  0
    2.0437    2.4615   -1.5947 C   0  0  0  0  0  0  0  0  0  0  0  0
   -2.3683    1.2347    1.1786 H   0  0  0  0  0  0  0  0  0  0  0  0
   -4.4065    1.1635    2.5061 H   0  0  0  0  0  0  0  0  0  0  0  0
   -6.1495    0.6394    3.4392 H   0  0  0  0  0  0  0  0  0  0  0  0
   -5.5994    1.7851    4.7087 H   0  0  0  0  0  0  0  0  0  0  0  0
   -6.7532    0.4732    5.0937 H   0  0  0  0  0  0  0  0  0  0  0  0
   -4.2264   -1.5916    6.2973 H   0  0  0  0  0  0  0  0  0  0  0  0
   -5.7279   -0.7110    6.6169 H   0  0  0  0  0  0  0  0  0  0  0  0
   -4.1606    0.1190    6.8452 H   0  0  0  0  0  0  0  0  0  0  0  0
   -2.3463   -1.1491    5.5387 H   0  0  0  0  0  0  0  0  0  0  0  0
   -0.2967   -1.0624    4.1872 H   0  0  0  0  0  0  0  0  0  0  0  0
    3.3036    1.5190    3.2097 H   0  0  0  0  0  0  0  0  0  0  0  0
    5.6887    1.4935    3.9714 H   0  0  0  0  0  0  0  0  0  0  0  0
    9.3533   -0.6328    3.2056 H   0  0  0  0  0  0  0  0  0  0  0  0
    8.6776   -0.6630    1.5349 H   0  0  0  0  0  0  0  0  0  0  0  0
    8.1775   -1.9150    2.7425 H   0  0  0  0  0  0  0  0  0  0  0  0
    6.5521   -1.5964    1.0741 H   0  0  0  0  0  0  0  0  0  0  0  0
    4.1988   -1.5633    0.3275 H   0  0  0  0  0  0  0  0  0  0  0  0
    2.3986    0.0001   -3.9330 H   0  0  0  0  0  0  0  0  0  0  0  0
    1.8988    1.9039   -5.4442 H   0  0  0  0  0  0  0  0  0  0  0  0
    1.0076    5.3677   -6.1976 H   0  0  0  0  0  0  0  0  0  0  0  0
    0.4643    3.6503   -6.1707 H   0  0  0  0  0  0  0  0  0  0  0  0
    2.2188    4.0450   -6.3768 H   0  0  0  0  0  0  0  0  0  0  0  0
    1.6284    4.5385   -2.0274 H   0  0  0  0  0  0  0  0  0  0  0  0
    2.1051    2.6079   -0.5131 H   0  0  0  0  0  0  0  0  0  0  0  0
  1  2  1  0  0  0  0
  1  5  1  0  0  0  0
  2 23  1  6  0  0  0
  2  3  1  0  0  0  0
  3 15  1  0  0  0  0
  3  4  2  0  0  0  0
  5  4  2  0  0  0  0
  5  6  1  0  0  0  0
  6 14  1  0  0  0  0
  7  6  2  0  0  0  0
  7  8  1  0  0  0  0
  8  9  2  0  0  0  0
  9 13  1  0  0  0  0
  9 10  1  0  0  0  0
 10 12  1  0  0  0  0
 11 36  1  0  0  0  0
 11 10  1  0  0  0  0
 11 37  1  0  0  0  0
 12 38  1  0  0  0  0
 12 39  1  0  0  0  0
 12 40  1  0  0  0  0
 13 41  1  0  0  0  0
 14 42  1  0  0  0  0
 14 13  2  0  0  0  0
 15 16  2  0  0  0  0
 16 17  1  0  0  0  0
 16 43  1  0  0  0  0
 17 44  1  0  0  0  0
 18 19  1  0  0  0  0
 18 17  2  0  0  0  0
 20 47  1  0  0  0  0
 20 19  1  0  0  0  0
 20 45  1  0  0  0  0
 21 18  1  0  0  0  0
 22 21  2  0  0  0  0
 22 15  1  0  0  0  0
 24 23  2  0  0  0  0
 25 32  1  0  0  0  0
 25 23  1  0  0  0  0
 26 25  2  0  0  0  0
 27 28  2  0  0  0  0
 27 26  1  0  0  0  0
 28 31  1  0  0  0  0
 29 28  1  0  0  0  0
 30 29  1  0  0  0  0
 31 55  1  0  0  0  0
 31 32  2  0  0  0  0
 32 56  1  0  0  0  0
 33  7  1  0  0  0  0
 34  8  1  0  0  0  0
 35 11  1  0  0  0  0
 46 20  1  0  0  0  0
 48 21  1  0  0  0  0
 49 22  1  0  0  0  0
 50 26  1  0  0  0  0
 51 27  1  0  0  0  0
 52 30  1  0  0  0  0
 53 30  1  0  0  0  0
 54 30  1  0  0  0  0
M  RAD  1   2   2
M  END
$$$$
