56

S         -0.28530        0.54240        0.05770
C          1.46160        0.59240       -0.01540
C          1.98170        0.40700        1.26860
N          1.04480        0.31650        2.25830
C         -0.18610        0.37450        1.79860
C         -1.37000        0.29690        2.64720
C         -2.67770        0.38810        2.13840
C         -3.78770        0.31410        2.96760
C         -3.64180        0.14290        4.36880
N         -4.73710        0.06870        5.19880
C         -6.07230        0.16460        4.64780
C         -4.55630       -0.10950        6.62410
C         -2.31990        0.05020        4.87870
C         -1.22110        0.12530        4.03690
C          3.41010        0.31600        1.62380
C          3.89960        1.02850        2.73390
C          5.26340        1.10860        2.98250
C          6.17670        0.46690        2.12810
O          7.49090        0.65600        2.40070
C          8.44260        0.28470        1.42810
C          5.69630       -0.31850        1.06950
C          4.32430       -0.39400        0.83510
C          2.06660        0.78810       -1.35120
O          1.44260        0.48190       -2.35900
C          3.44740        1.35320       -1.44530
C          4.29300        0.87010       -2.44910
C          5.63080        1.26270       -2.51740
C          6.12890        2.17920       -1.57870
O          7.42470        2.57900       -1.51750
C          8.32800        2.12400       -2.50030
C          5.26540        2.73230       -0.61680
C          3.94420        2.31790       -0.55080
H         -2.83650        0.52190        1.06520
H         -4.77740        0.39040        2.52110
H         -6.28170       -0.64330        3.92300
H         -6.23970        1.12710        4.13090
H         -6.80710        0.08700        5.45860
H         -4.02630       -1.05000        6.86100
H         -5.53740       -0.14440        7.11360
H         -3.98190        0.71930        7.07630
H         -2.15020       -0.08410        5.94560
H         -0.21080        0.04980        4.44140
H          3.19060        1.55400        3.37620
H          5.65740        1.68990        3.81800
H          9.42080        0.60840        1.80810
H          8.24290        0.78780        0.46520
H          8.47020       -0.80810        1.26870
H          6.37900       -0.85610        0.41290
H          3.96060       -0.99430        0.00090
H          3.89370        0.14800       -3.16400
H          6.27410        0.84110       -3.28910
H          9.29530        2.59340       -2.27780
H          8.00880        2.41940       -3.51520
H          8.44650        1.02590       -2.47110
H          5.66840        3.46360        0.08500
H          3.29040        2.72920        0.21850
