rmsd249.gzmat
 OpenBabel08211713413D

 56 59  0  0  1  0  0  0  0  0999 V2000
    0.0000    0.0000    0.0000 S   0  0  0  0  0  0  0  0  0  0  0  0
    1.7418    0.0000    0.0000 C   0  0  2  0  0  0  0  0  0  0  0  0
    2.2263    0.0000    1.2883 C   0  0  0  0  0  0  0  0  0  0  0  0
    1.2340    0.0580    2.2776 N   0  0  0  0  0  0  0  0  0  0  0  0
    0.0140    0.0707    1.7867 C   0  0  0  0  0  0  0  0  0  0  0  0
   -1.1917    0.1108    2.5796 C   0  0  0  0  0  0  0  0  0  0  0  0
   -1.1983   -0.5080    3.8386 C   0  0  0  0  0  0  0  0  0  0  0  0
   -2.3293   -0.4836    4.6356 C   0  0  0  0  0  0  0  0  0  0  0  0
   -3.5007    0.1724    4.1932 C   0  0  0  0  0  0  0  0  0  0  0  0
   -4.6813    0.1017    4.9333 N   0  0  0  0  0  0  0  0  0  0  0  0
   -5.7223    1.1024    4.6533 C   0  0  0  0  0  0  0  0  0  0  0  0
   -4.5757   -0.2497    6.3573 C   0  0  0  0  0  0  0  0  0  0  0  0
   -3.4808    0.8097    2.9314 C   0  0  0  0  0  0  0  0  0  0  0  0
   -2.3439    0.7724    2.1409 C   0  0  0  0  0  0  0  0  0  0  0  0
    3.6083   -0.0036    1.7459 C   0  0  0  0  0  0  0  0  0  0  0  0
    3.9682    0.7960    2.8363 C   0  0  0  0  0  0  0  0  0  0  0  0
    5.2766    0.8041    3.3096 C   0  0  0  0  0  0  0  0  0  0  0  0
    6.2167   -0.0138    2.6814 C   0  0  0  0  0  0  0  0  0  0  0  0
    7.5250   -0.1223    3.0305 O   0  0  0  0  0  0  0  0  0  0  0  0
    7.9714    0.6539    4.1335 C   0  0  0  0  0  0  0  0  0  0  0  0
    5.8743   -0.8329    1.5927 C   0  0  0  0  0  0  0  0  0  0  0  0
    4.5675   -0.8229    1.1328 C   0  0  0  0  0  0  0  0  0  0  0  0
    2.4733    0.0197   -1.2669 C   0  0  0  0  0  0  0  0  0  0  0  0
    3.2997   -0.8163   -1.5501 O   0  0  0  0  0  0  0  0  0  0  0  0
    2.1187    1.1001   -2.2148 C   0  0  0  0  0  0  0  0  0  0  0  0
    2.1330    0.8184   -3.5808 C   0  0  0  0  0  0  0  0  0  0  0  0
    1.7793    1.7963   -4.5068 C   0  0  0  0  0  0  0  0  0  0  0  0
    1.4286    3.0623   -4.0353 C   0  0  0  0  0  0  0  0  0  0  0  0
    1.0419    4.1102   -4.8047 O   0  0  0  0  0  0  0  0  0  0  0  0
    1.0882    3.9410   -6.2151 C   0  0  0  0  0  0  0  0  0  0  0  0
    1.4391    3.3722   -2.6630 C   0  0  0  0  0  0  0  0  0  0  0  0
    1.7885    2.3828   -1.7597 C   0  0  0  0  0  0  0  0  0  0  0  0
   -0.2892   -1.0076    4.1912 H   0  0  0  0  0  0  0  0  0  0  0  0
   -2.3009   -0.9775    5.6015 H   0  0  0  0  0  0  0  0  0  0  0  0
   -6.1309    0.9281    3.6401 H   0  0  0  0  0  0  0  0  0  0  0  0
   -5.3527    2.1397    4.7149 H   0  0  0  0  0  0  0  0  0  0  0  0
   -6.5649    0.9934    5.3559 H   0  0  0  0  0  0  0  0  0  0  0  0
   -4.1731   -1.2759    6.4522 H   0  0  0  0  0  0  0  0  0  0  0  0
   -5.5742   -0.2605    6.8251 H   0  0  0  0  0  0  0  0  0  0  0  0
   -3.9313    0.4408    6.9262 H   0  0  0  0  0  0  0  0  0  0  0  0
   -4.3584    1.3312    2.5634 H   0  0  0  0  0  0  0  0  0  0  0  0
   -2.3570    1.2836    1.1758 H   0  0  0  0  0  0  0  0  0  0  0  0
    3.2096    1.4138    3.3242 H   0  0  0  0  0  0  0  0  0  0  0  0
    5.5415    1.4316    4.1516 H   0  0  0  0  0  0  0  0  0  0  0  0
    9.0307    0.3720    4.2026 H   0  0  0  0  0  0  0  0  0  0  0  0
    7.4419    0.3745    5.0495 H   0  0  0  0  0  0  0  0  0  0  0  0
    7.8733    1.7230    3.9225 H   0  0  0  0  0  0  0  0  0  0  0  0
    6.6310   -1.4603    1.1289 H   0  0  0  0  0  0  0  0  0  0  0  0
    4.2813   -1.4659    0.2928 H   0  0  0  0  0  0  0  0  0  0  0  0
    2.4226   -0.1795   -3.9224 H   0  0  0  0  0  0  0  0  0  0  0  0
    1.7820    1.5656   -5.5653 H   0  0  0  0  0  0  0  0  0  0  0  0
    0.7473    4.9209   -6.5768 H   0  0  0  0  0  0  0  0  0  0  0  0
    0.4004    3.1543   -6.5397 H   0  0  0  0  0  0  0  0  0  0  0  0
    2.1117    3.7438   -6.5499 H   0  0  0  0  0  0  0  0  0  0  0  0
    1.1751    4.3737   -2.3354 H   0  0  0  0  0  0  0  0  0  0  0  0
    1.8161    2.6088   -0.6906 H   0  0  0  0  0  0  0  0  0  0  0  0
  1  2  1  0  0  0  0
  1  5  1  0  0  0  0
  2 23  1  6  0  0  0
  2  3  1  0  0  0  0
  3 15  1  0  0  0  0
  3  4  2  0  0  0  0
  5  4  2  0  0  0  0
  5  6  1  0  0  0  0
  6  7  1  0  0  0  0
  7 33  1  0  0  0  0
  7  8  2  0  0  0  0
  8 34  1  0  0  0  0
  9  8  1  0  0  0  0
  9 10  1  0  0  0  0
 10 12  1  0  0  0  0
 11 36  1  0  0  0  0
 11 10  1  0  0  0  0
 11 37  1  0  0  0  0
 12 38  1  0  0  0  0
 12 39  1  0  0  0  0
 12 40  1  0  0  0  0
 13  9  2  0  0  0  0
 14  6  2  0  0  0  0
 14 13  1  0  0  0  0
 15 16  2  0  0  0  0
 16 17  1  0  0  0  0
 16 43  1  0  0  0  0
 17 44  1  0  0  0  0
 18 19  1  0  0  0  0
 18 17  2  0  0  0  0
 19 20  1  0  0  0  0
 20 45  1  0  0  0  0
 20 46  1  0  0  0  0
 21 18  1  0  0  0  0
 22 21  2  0  0  0  0
 22 15  1  0  0  0  0
 24 23  2  0  0  0  0
 25 32  1  0  0  0  0
 25 23  1  0  0  0  0
 26 25  2  0  0  0  0
 27 28  2  0  0  0  0
 27 26  1  0  0  0  0
 28 31  1  0  0  0  0
 29 28  1  0  0  0  0
 30 29  1  0  0  0  0
 31 55  1  0  0  0  0
 31 32  2  0  0  0  0
 32 56  1  0  0  0  0
 35 11  1  0  0  0  0
 41 13  1  0  0  0  0
 42 14  1  0  0  0  0
 47 20  1  0  0  0  0
 48 21  1  0  0  0  0
 49 22  1  0  0  0  0
 50 26  1  0  0  0  0
 51 27  1  0  0  0  0
 52 30  1  0  0  0  0
 53 30  1  0  0  0  0
 54 30  1  0  0  0  0
M  RAD  1   2   2
M  END
$$$$
