
     RDKit          3D

 56 59  0  0  0  0  0  0  0  0999 V2000
   -0.2853    0.5424    0.0577 S   0  0  0  0  0  0  0  0  0  0  0  0
    1.4616    0.5924   -0.0154 C   0  0  0  0  0  0  0  0  0  0  0  0
    1.9817    0.4070    1.2686 C   0  0  0  0  0  0  0  0  0  0  0  0
    1.0448    0.3165    2.2583 N   0  0  0  0  0  0  0  0  0  0  0  0
   -0.1861    0.3745    1.7986 C   0  0  0  0  0  0  0  0  0  0  0  0
   -1.3700    0.2969    2.6472 C   0  0  0  0  0  0  0  0  0  0  0  0
   -2.6777    0.3881    2.1384 C   0  0  0  0  0  0  0  0  0  0  0  0
   -3.7877    0.3141    2.9676 C   0  0  0  0  0  0  0  0  0  0  0  0
   -3.6418    0.1429    4.3688 C   0  0  0  0  0  0  0  0  0  0  0  0
   -4.7371    0.0687    5.1988 N   0  0  0  0  0  0  0  0  0  0  0  0
   -6.0723    0.1646    4.6478 C   0  0  0  0  0  0  0  0  0  0  0  0
   -4.5563   -0.1095    6.6241 C   0  0  0  0  0  0  0  0  0  0  0  0
   -2.3199    0.0502    4.8787 C   0  0  0  0  0  0  0  0  0  0  0  0
   -1.2211    0.1253    4.0369 C   0  0  0  0  0  0  0  0  0  0  0  0
    3.4101    0.3160    1.6238 C   0  0  0  0  0  0  0  0  0  0  0  0
    3.8996    1.0285    2.7339 C   0  0  0  0  0  0  0  0  0  0  0  0
    5.2634    1.1086    2.9825 C   0  0  0  0  0  0  0  0  0  0  0  0
    6.1767    0.4669    2.1281 C   0  0  0  0  0  0  0  0  0  0  0  0
    7.4909    0.6560    2.4007 O   0  0  0  0  0  0  0  0  0  0  0  0
    8.4426    0.2847    1.4281 C   0  0  0  0  0  0  0  0  0  0  0  0
    5.6963   -0.3185    1.0695 C   0  0  0  0  0  0  0  0  0  0  0  0
    4.3243   -0.3940    0.8351 C   0  0  0  0  0  0  0  0  0  0  0  0
    2.0666    0.7881   -1.3512 C   0  0  0  0  0  0  0  0  0  0  0  0
    1.4426    0.4819   -2.3590 O   0  0  0  0  0  0  0  0  0  0  0  0
    3.4474    1.3532   -1.4453 C   0  0  0  0  0  0  0  0  0  0  0  0
    4.2930    0.8701   -2.4491 C   0  0  0  0  0  0  0  0  0  0  0  0
    5.6308    1.2627   -2.5174 C   0  0  0  0  0  0  0  0  0  0  0  0
    6.1289    2.1792   -1.5787 C   0  0  0  0  0  0  0  0  0  0  0  0
    7.4247    2.5790   -1.5175 O   0  0  0  0  0  0  0  0  0  0  0  0
    8.3280    2.1240   -2.5003 C   0  0  0  0  0  0  0  0  0  0  0  0
    5.2654    2.7323   -0.6168 C   0  0  0  0  0  0  0  0  0  0  0  0
    3.9442    2.3179   -0.5508 C   0  0  0  0  0  0  0  0  0  0  0  0
   -2.8365    0.5219    1.0652 H   0  0  0  0  0  0  0  0  0  0  0  0
   -4.7774    0.3904    2.5211 H   0  0  0  0  0  0  0  0  0  0  0  0
   -6.2817   -0.6433    3.9230 H   0  0  0  0  0  0  0  0  0  0  0  0
   -6.2397    1.1271    4.1309 H   0  0  0  0  0  0  0  0  0  0  0  0
   -6.8071    0.0870    5.4586 H   0  0  0  0  0  0  0  0  0  0  0  0
   -4.0263   -1.0500    6.8610 H   0  0  0  0  0  0  0  0  0  0  0  0
   -5.5374   -0.1444    7.1136 H   0  0  0  0  0  0  0  0  0  0  0  0
   -3.9819    0.7193    7.0763 H   0  0  0  0  0  0  0  0  0  0  0  0
   -2.1502   -0.0841    5.9456 H   0  0  0  0  0  0  0  0  0  0  0  0
   -0.2108    0.0498    4.4414 H   0  0  0  0  0  0  0  0  0  0  0  0
    3.1906    1.5540    3.3762 H   0  0  0  0  0  0  0  0  0  0  0  0
    5.6574    1.6899    3.8180 H   0  0  0  0  0  0  0  0  0  0  0  0
    9.4208    0.6084    1.8081 H   0  0  0  0  0  0  0  0  0  0  0  0
    8.2429    0.7878    0.4652 H   0  0  0  0  0  0  0  0  0  0  0  0
    8.4702   -0.8081    1.2687 H   0  0  0  0  0  0  0  0  0  0  0  0
    6.3790   -0.8561    0.4129 H   0  0  0  0  0  0  0  0  0  0  0  0
    3.9606   -0.9943    0.0009 H   0  0  0  0  0  0  0  0  0  0  0  0
    3.8937    0.1480   -3.1640 H   0  0  0  0  0  0  0  0  0  0  0  0
    6.2741    0.8411   -3.2891 H   0  0  0  0  0  0  0  0  0  0  0  0
    9.2953    2.5934   -2.2778 H   0  0  0  0  0  0  0  0  0  0  0  0
    8.0088    2.4194   -3.5152 H   0  0  0  0  0  0  0  0  0  0  0  0
    8.4465    1.0259   -2.4711 H   0  0  0  0  0  0  0  0  0  0  0  0
    5.6684    3.4636    0.0850 H   0  0  0  0  0  0  0  0  0  0  0  0
    3.2904    2.7292    0.2185 H   0  0  0  0  0  0  0  0  0  0  0  0
  1  2  1  0
  1  5  1  0
  2  3  2  0
  2 23  1  0
  3  4  1  0
  3 15  1  0
  4  5  2  0
  5  6  1  0
  6  7  2  0
  6 14  1  0
  7  8  1  0
  7 33  1  0
  8  9  2  0
  8 34  1  0
  9 10  1  0
  9 13  1  0
 10 11  1  0
 10 12  1  0
 11 35  1  0
 11 36  1  0
 11 37  1  0
 12 38  1  0
 12 39  1  0
 12 40  1  0
 13 14  2  0
 13 41  1  0
 14 42  1  0
 15 16  2  0
 15 22  1  0
 16 17  1  0
 16 43  1  0
 17 18  2  0
 17 44  1  0
 18 19  1  0
 18 21  1  0
 19 20  1  0
 20 45  1  0
 20 46  1  0
 20 47  1  0
 21 22  2  0
 21 48  1  0
 22 49  1  0
 23 24  2  0
 23 25  1  0
 25 26  2  0
 25 32  1  0
 26 27  1  0
 26 50  1  0
 27 28  2  0
 27 51  1  0
 28 29  1  0
 28 31  1  0
 29 30  1  0
 30 52  1  0
 30 53  1  0
 30 54  1  0
 31 32  2  0
 31 55  1  0
 32 56  1  0
M  END

