56
rmsd152.gzmat
S          0.00000        0.00000        0.00000
C          1.74020        0.00000        0.00000
C          2.22040        0.00000        1.29130
N          1.23050       -0.05490        2.27820
C          0.00590       -0.05240        1.78890
C         -1.19270       -0.08350        2.59170
C         -2.46800       -0.24380        2.03480
C         -3.59490       -0.28490        2.83860
C         -3.48410       -0.15950        4.24330
N         -4.62490       -0.08310        5.04010
C         -4.47180       -0.28180        6.48890
C         -5.87330       -0.64350        4.50140
C         -2.19530       -0.00200        4.80270
C         -1.07890        0.04050        3.98710
C          3.60620        0.02080        1.73790
C          4.51680        0.91950        1.17770
C          5.83520        0.95820        1.62450
C          6.22240        0.08700        2.64220
O          7.46320        0.01580        3.19070
C          8.45800        0.87980        2.65820
C          5.32150       -0.82430        3.22020
C          4.01370       -0.84420        2.76630
C          2.48830       -0.01140       -1.25540
O          3.39720        0.75550       -1.47510
C          2.05560       -0.99750       -2.27270
C          2.01150       -0.59780       -3.61420
C          1.58890       -1.48460       -4.59080
C          1.22890       -2.78890       -4.20740
O          0.82070       -3.54700       -5.25590
C          0.44190       -4.89020       -4.98720
C          1.30130       -3.21250       -2.87900
C          1.71880       -2.30130       -1.91230
H         -2.59870       -0.34570        0.95520
H         -4.56700       -0.40620        2.37150
H         -3.80800        0.50200        6.90050
H         -4.05920       -1.27100        6.74830
H         -5.44480       -0.16530        6.99580
H         -6.19660       -0.04310        3.63030
H         -6.68250       -0.57740        5.24740
H         -5.77340       -1.69710        4.19050
H         -2.06470        0.09220        5.87610
H         -0.08330        0.16770        4.43080
H          4.19460        1.60590        0.38700
H          6.53130        1.65870        1.17750
H          9.33790        0.62400        3.26280
H          8.18450        1.92930        2.80580
H          8.64090        0.65700        1.60230
H          5.65920       -1.48780        4.01060
H          3.28780       -1.52950        3.21020
H          2.31010        0.41920       -3.88270
H          1.53170       -1.19590       -5.63630
H          0.15830       -5.25340       -5.98500
H         -0.41500       -4.92790       -4.30740
H          1.28960       -5.46350       -4.59860
H          1.04130       -4.22430       -2.59180
H          1.78800       -2.61740       -0.86860
