56
rmsd118.gzmat
S          0.00000        0.00000        0.00000
C          1.74370        0.00000        0.00000
C          2.22290        0.00000        1.29260
N          1.22830        0.05590        2.27780
C          0.00620        0.06210        1.78650
C         -1.19680        0.09200        2.58360
C         -2.41870        0.54960        2.07540
C         -3.55400        0.56850        2.86880
C         -3.50480        0.12140        4.20980
N         -4.66840        0.01520        4.97020
C         -5.84830        0.77790        4.53640
C         -4.52970       -0.06460        6.43220
C         -2.26370       -0.32050        4.72440
C         -1.13780       -0.33440        3.92050
C          3.60220       -0.01050        1.75870
C          3.96230        0.80080        2.84850
C          5.25930        0.79230        3.33180
C          6.20400       -0.04610        2.71420
O          7.43120        0.03170        3.29130
C          8.46760       -0.76030        2.72700
C          5.86600       -0.86240        1.63550
C          4.55400       -0.84390        1.16790
C          2.47620        0.00900       -1.26310
O          3.43120       -0.70390       -1.46950
C          1.96410        0.91500       -2.31970
C          1.86500        0.43080       -3.62310
C          1.35640        1.23820       -4.63800
C          0.97620        2.54330       -4.32180
O          0.45070        3.44390       -5.18990
C          0.28820        3.03480       -6.54120
C          1.11110        3.06020       -3.02060
C          1.60650        2.23550       -2.02390
H         -2.49280        0.91300        1.04760
H         -4.48410        0.92870        2.44160
H         -6.19480        0.39100        3.55960
H         -5.65480        1.85980        4.44450
H         -6.68270        0.63550        5.24370
H         -3.98690       -0.99060        6.70010
H         -5.52140       -0.13350        6.90980
H         -3.99580        0.79900        6.86250
H         -2.17930       -0.66070        5.75160
H         -0.17810       -0.67550        4.32720
H          3.20440        1.43330        3.31890
H          5.55520        1.40900        4.17530
H          9.32150       -0.52150        3.37510
H          8.67170       -0.45610        1.69530
H          8.22660       -1.82600        2.79170
H          6.59550       -1.50670        1.15820
H          4.27080       -1.50010        0.33790
H          2.18770       -0.58940       -3.84750
H          1.26660        0.84920       -5.64480
H         -0.17470        3.92140       -6.99680
H         -0.38360        2.17420       -6.61550
H          1.25910        2.82850       -7.00310
H          0.82690        4.08880       -2.81800
H          1.72590        2.62080       -1.00840
