56
rmsd24.gzmat
S          0.00000        0.00000        0.00000
C          1.74000        0.00000        0.00000
C          2.22120        0.00000        1.29040
N          1.23150       -0.04180        2.27950
C          0.00870       -0.02830        1.78990
C         -1.19680       -0.06670        2.58300
C         -1.12760       -0.52290        3.90960
C         -2.25970       -0.58730        4.70270
C         -3.51640       -0.19230        4.18850
N         -4.68090       -0.37750        4.93260
C         -5.88990        0.34680        4.51230
C         -4.55130       -0.49270        6.39320
C         -3.57620        0.28970        2.86070
C         -2.43520        0.34730        2.07740
C          3.60850        0.01280        1.73320
C          4.51700        0.91860        1.18140
C          5.83880        0.94620        1.61890
C          6.23260        0.05560        2.61740
O          7.48030       -0.03380        3.14770
C          8.45920        0.87450        2.66110
C          5.33260       -0.86080        3.18880
C          4.02080       -0.86840        2.74540
C          2.48730       -0.00790       -1.25750
O          3.37110        0.78490       -1.48680
C          2.08310       -1.02110       -2.25910
C          1.74440       -2.31740       -1.87350
C          1.34980       -3.25420       -2.82500
C          1.30390       -2.86490       -4.16510
O          0.92380       -3.65280       -5.20200
C          0.49910       -4.97510       -4.89910
C          1.66700       -1.56950       -4.57390
C          2.06430       -0.65600       -3.61110
H         -0.15610       -0.82440        4.31850
H         -2.16710       -0.94980        5.72150
H         -6.18520        0.01420        3.49970
H         -5.75930        1.44200        4.50440
H         -6.73380        0.10300        5.17990
H         -3.98040       -1.40710        6.64080
H         -5.54440       -0.60650        6.85900
H         -4.04970        0.37610        6.85130
H         -4.51840        0.61880        2.43430
H         -2.52240        0.73740        1.06100
H          4.18870        1.61760        0.40450
H          6.53420        1.65150        1.17870
H          9.33720        0.62110        3.26990
H          8.15630        1.91090        2.84150
H          8.66380        0.69220        1.60120
H          5.67310       -1.53710        3.96710
H          3.29490       -1.55580        3.18500
H          1.79350       -2.60810       -0.82120
H          1.08660       -4.25940       -2.51750
H          0.23540       -5.36670       -5.89140
H         -0.37980       -4.96430       -4.24730
H          1.31640       -5.55720       -4.46190
H          1.63300       -1.30810       -5.62770
H          2.36280        0.35580       -3.89930
