rmsd150.gzmat
 OpenBabel08211713413D

 56 59  0  0  1  0  0  0  0  0999 V2000
    0.0000    0.0000    0.0000 S   0  0  0  0  0  0  0  0  0  0  0  0
    1.7428    0.0000    0.0000 C   0  0  1  0  0  0  0  0  0  0  0  0
    2.2234    0.0000    1.2915 C   0  0  0  0  0  0  0  0  0  0  0  0
    1.2299    0.0474    2.2779 N   0  0  0  0  0  0  0  0  0  0  0  0
    0.0078    0.0482    1.7873 C   0  0  0  0  0  0  0  0  0  0  0  0
   -1.1935    0.0546    2.5877 C   0  0  0  0  0  0  0  0  0  0  0  0
   -1.1352   -0.4371    3.9020 C   0  0  0  0  0  0  0  0  0  0  0  0
   -2.2578   -0.4447    4.7106 C   0  0  0  0  0  0  0  0  0  0  0  0
   -3.4930    0.0409    4.2236 C   0  0  0  0  0  0  0  0  0  0  0  0
   -4.6554   -0.0826    4.9845 N   0  0  0  0  0  0  0  0  0  0  0  0
   -5.8197    0.7259    4.5934 C   0  0  0  0  0  0  0  0  0  0  0  0
   -4.5113   -0.2267    6.4412 C   0  0  0  0  0  0  0  0  0  0  0  0
   -3.5418    0.5504    2.9055 C   0  0  0  0  0  0  0  0  0  0  0  0
   -2.4100    0.5519    2.1066 C   0  0  0  0  0  0  0  0  0  0  0  0
    3.6045    0.0014    1.7523 C   0  0  0  0  0  0  0  0  0  0  0  0
    3.9636    0.8293    2.8296 C   0  0  0  0  0  0  0  0  0  0  0  0
    5.2657    0.8454    3.2984 C   0  0  0  0  0  0  0  0  0  0  0  0
    6.2150    0.0115    2.6818 C   0  0  0  0  0  0  0  0  0  0  0  0
    7.4485    0.1220    3.2396 O   0  0  0  0  0  0  0  0  0  0  0  0
    8.4815   -0.6913    2.7008 C   0  0  0  0  0  0  0  0  0  0  0  0
    5.8761   -0.8277    1.6210 C   0  0  0  0  0  0  0  0  0  0  0  0
    4.5598   -0.8309    1.1653 C   0  0  0  0  0  0  0  0  0  0  0  0
    2.4784   -0.0011   -1.2624 C   0  0  0  0  0  0  0  0  0  0  0  0
    3.3951   -0.7600   -1.4780 O   0  0  0  0  0  0  0  0  0  0  0  0
    2.0169    0.9508   -2.3006 C   0  0  0  0  0  0  0  0  0  0  0  0
    1.9279    0.5109   -3.6205 C   0  0  0  0  0  0  0  0  0  0  0  0
    1.4625    1.3645   -4.6182 C   0  0  0  0  0  0  0  0  0  0  0  0
    1.1125    2.6688   -4.2669 C   0  0  0  0  0  0  0  0  0  0  0  0
    0.6239    3.6104   -5.1123 O   0  0  0  0  0  0  0  0  0  0  0  0
    0.4342    3.2394   -6.4708 C   0  0  0  0  0  0  0  0  0  0  0  0
    1.2394    3.1414   -2.9479 C   0  0  0  0  0  0  0  0  0  0  0  0
    1.6920    2.2716   -1.9697 C   0  0  0  0  0  0  0  0  0  0  0  0
   -0.1802   -0.8133    4.2880 H   0  0  0  0  0  0  0  0  0  0  0  0
   -2.1755   -0.8346    5.7202 H   0  0  0  0  0  0  0  0  0  0  0  0
   -6.1662    0.4078    3.5923 H   0  0  0  0  0  0  0  0  0  0  0  0
   -5.6071    1.8078    4.5700 H   0  0  0  0  0  0  0  0  0  0  0  0
   -6.6595    0.5514    5.2866 H   0  0  0  0  0  0  0  0  0  0  0  0
   -3.9643   -1.1611    6.6671 H   0  0  0  0  0  0  0  0  0  0  0  0
   -5.5020   -0.3207    6.9166 H   0  0  0  0  0  0  0  0  0  0  0  0
   -3.9811    0.6201    6.9080 H   0  0  0  0  0  0  0  0  0  0  0  0
   -4.4685    0.9437    2.5005 H   0  0  0  0  0  0  0  0  0  0  0  0
   -2.4824    0.9637    1.0976 H   0  0  0  0  0  0  0  0  0  0  0  0
    3.2015    1.4560    3.3006 H   0  0  0  0  0  0  0  0  0  0  0  0
    5.5623    1.4784    4.1293 H   0  0  0  0  0  0  0  0  0  0  0  0
    9.3410   -0.4230    3.3298 H   0  0  0  0  0  0  0  0  0  0  0  0
    8.6748   -0.4317    1.6551 H   0  0  0  0  0  0  0  0  0  0  0  0
    8.2424   -1.7533    2.8140 H   0  0  0  0  0  0  0  0  0  0  0  0
    6.6081   -1.4721    1.1475 H   0  0  0  0  0  0  0  0  0  0  0  0
    4.2759   -1.5013    0.3468 H   0  0  0  0  0  0  0  0  0  0  0  0
    2.2236   -0.5112   -3.8715 H   0  0  0  0  0  0  0  0  0  0  0  0
    1.3824    1.0114   -5.6392 H   0  0  0  0  0  0  0  0  0  0  0  0
    0.0043    4.1545   -6.9014 H   0  0  0  0  0  0  0  0  0  0  0  0
   -0.2729    2.4085   -6.5575 H   0  0  0  0  0  0  0  0  0  0  0  0
    1.3917    3.0055   -6.9466 H   0  0  0  0  0  0  0  0  0  0  0  0
    0.9788    4.1707   -2.7182 H   0  0  0  0  0  0  0  0  0  0  0  0
    1.8016    2.6198   -0.9398 H   0  0  0  0  0  0  0  0  0  0  0  0
  1  2  1  0  0  0  0
  1  5  1  0  0  0  0
  2 23  1  1  0  0  0
  2  3  1  0  0  0  0
  3 15  1  0  0  0  0
  3  4  2  0  0  0  0
  5  4  2  0  0  0  0
  5  6  1  0  0  0  0
  6  7  1  0  0  0  0
  7 33  1  0  0  0  0
  7  8  2  0  0  0  0
  8 34  1  0  0  0  0
  9  8  1  0  0  0  0
  9 10  1  0  0  0  0
 10 12  1  0  0  0  0
 11 10  1  0  0  0  0
 11 37  1  0  0  0  0
 12 38  1  0  0  0  0
 12 40  1  0  0  0  0
 12 39  1  0  0  0  0
 13  9  2  0  0  0  0
 14  6  2  0  0  0  0
 14 13  1  0  0  0  0
 15 16  2  0  0  0  0
 16 17  1  0  0  0  0
 16 43  1  0  0  0  0
 17 44  1  0  0  0  0
 18 19  1  0  0  0  0
 18 17  2  0  0  0  0
 20 47  1  0  0  0  0
 20 19  1  0  0  0  0
 20 45  1  0  0  0  0
 21 18  1  0  0  0  0
 22 21  2  0  0  0  0
 22 15  1  0  0  0  0
 24 23  2  0  0  0  0
 25 32  1  0  0  0  0
 25 23  1  0  0  0  0
 26 25  2  0  0  0  0
 27 28  2  0  0  0  0
 27 26  1  0  0  0  0
 28 31  1  0  0  0  0
 29 28  1  0  0  0  0
 30 29  1  0  0  0  0
 31 55  1  0  0  0  0
 31 32  2  0  0  0  0
 32 56  1  0  0  0  0
 35 11  1  0  0  0  0
 36 11  1  0  0  0  0
 41 13  1  0  0  0  0
 42 14  1  0  0  0  0
 46 20  1  0  0  0  0
 48 21  1  0  0  0  0
 49 22  1  0  0  0  0
 50 26  1  0  0  0  0
 51 27  1  0  0  0  0
 52 30  1  0  0  0  0
 53 30  1  0  0  0  0
 54 30  1  0  0  0  0
M  RAD  1   2   2
M  END
$$$$
