rmsd238.gzmat
 OpenBabel08211713413D

 56 59  0  0  1  0  0  0  0  0999 V2000
    0.0000    0.0000    0.0000 S   0  0  0  0  0  0  0  0  0  0  0  0
    1.7423    0.0000    0.0000 C   0  0  2  0  0  0  0  0  0  0  0  0
    2.2215    0.0000    1.2921 C   0  0  0  0  0  0  0  0  0  0  0  0
    1.2285    0.0385    2.2772 N   0  0  0  0  0  0  0  0  0  0  0  0
    0.0041    0.0304    1.7877 C   0  0  0  0  0  0  0  0  0  0  0  0
   -1.1922    0.0512    2.5938 C   0  0  0  0  0  0  0  0  0  0  0  0
   -2.4775    0.0015    2.0394 C   0  0  0  0  0  0  0  0  0  0  0  0
   -3.6019    0.0278    2.8474 C   0  0  0  0  0  0  0  0  0  0  0  0
   -3.4780    0.1162    4.2534 C   0  0  0  0  0  0  0  0  0  0  0  0
   -4.6029    0.2829    5.0583 N   0  0  0  0  0  0  0  0  0  0  0  0
   -4.4672    0.0094    6.4969 C   0  0  0  0  0  0  0  0  0  0  0  0
   -5.9093   -0.1117    4.5114 C   0  0  0  0  0  0  0  0  0  0  0  0
   -2.1790    0.1480    4.8113 C   0  0  0  0  0  0  0  0  0  0  0  0
   -1.0652    0.1208    3.9921 C   0  0  0  0  0  0  0  0  0  0  0  0
    3.6020    0.0032    1.7553 C   0  0  0  0  0  0  0  0  0  0  0  0
    3.9620    0.8359    2.8284 C   0  0  0  0  0  0  0  0  0  0  0  0
    5.2621    0.8454    3.3032 C   0  0  0  0  0  0  0  0  0  0  0  0
    6.2073   -0.0009    2.6978 C   0  0  0  0  0  0  0  0  0  0  0  0
    7.4369    0.0984    3.2663 O   0  0  0  0  0  0  0  0  0  0  0  0
    8.4758   -0.6967    2.7117 C   0  0  0  0  0  0  0  0  0  0  0  0
    5.8682   -0.8417    1.6385 C   0  0  0  0  0  0  0  0  0  0  0  0
    4.5548   -0.8367    1.1748 C   0  0  0  0  0  0  0  0  0  0  0  0
    2.4767    0.0004   -1.2623 C   0  0  0  0  0  0  0  0  0  0  0  0
    3.4090   -0.7409   -1.4718 O   0  0  0  0  0  0  0  0  0  0  0  0
    1.9955    0.9327   -2.3095 C   0  0  0  0  0  0  0  0  0  0  0  0
    1.8974    0.4713   -3.6213 C   0  0  0  0  0  0  0  0  0  0  0  0
    1.4256    1.3087   -4.6295 C   0  0  0  0  0  0  0  0  0  0  0  0
    1.0757    2.6179   -4.2959 C   0  0  0  0  0  0  0  0  0  0  0  0
    0.5872    3.5467   -5.1558 O   0  0  0  0  0  0  0  0  0  0  0  0
    0.4358    3.1633   -6.5159 C   0  0  0  0  0  0  0  0  0  0  0  0
    1.2028    3.1094   -2.9840 C   0  0  0  0  0  0  0  0  0  0  0  0
    1.6639    2.2558   -1.9954 C   0  0  0  0  0  0  0  0  0  0  0  0
   -2.6191   -0.0635    0.9585 H   0  0  0  0  0  0  0  0  0  0  0  0
   -4.5815   -0.0124    2.3821 H   0  0  0  0  0  0  0  0  0  0  0  0
   -3.7477    0.7226    6.9410 H   0  0  0  0  0  0  0  0  0  0  0  0
   -4.1285   -1.0182    6.7100 H   0  0  0  0  0  0  0  0  0  0  0  0
   -5.4288    0.1724    7.0116 H   0  0  0  0  0  0  0  0  0  0  0  0
   -6.1373    0.5019    3.6198 H   0  0  0  0  0  0  0  0  0  0  0  0
   -6.7083    0.0920    5.2442 H   0  0  0  0  0  0  0  0  0  0  0  0
   -5.9572   -1.1775    4.2328 H   0  0  0  0  0  0  0  0  0  0  0  0
   -2.0384    0.2011    5.8861 H   0  0  0  0  0  0  0  0  0  0  0  0
   -0.0611    0.1494    4.4343 H   0  0  0  0  0  0  0  0  0  0  0  0
    3.2031    1.4719    3.2917 H   0  0  0  0  0  0  0  0  0  0  0  0
    5.5611    1.4821    4.1306 H   0  0  0  0  0  0  0  0  0  0  0  0
    9.3368   -0.4203    3.3347 H   0  0  0  0  0  0  0  0  0  0  0  0
    8.6577   -0.4284    1.6661 H   0  0  0  0  0  0  0  0  0  0  0  0
    8.2505   -1.7623    2.8202 H   0  0  0  0  0  0  0  0  0  0  0  0
    6.5974   -1.4937    1.1717 H   0  0  0  0  0  0  0  0  0  0  0  0
    4.2714   -1.5055    0.3546 H   0  0  0  0  0  0  0  0  0  0  0  0
    2.1898   -0.5553   -3.8561 H   0  0  0  0  0  0  0  0  0  0  0  0
    1.3397    0.9392   -5.6441 H   0  0  0  0  0  0  0  0  0  0  0  0
    0.0425    4.0820   -6.9728 H   0  0  0  0  0  0  0  0  0  0  0  0
   -0.2867    2.3473   -6.6143 H   0  0  0  0  0  0  0  0  0  0  0  0
    1.4025    2.8992   -6.9563 H   0  0  0  0  0  0  0  0  0  0  0  0
    0.9372    4.1408   -2.7680 H   0  0  0  0  0  0  0  0  0  0  0  0
    1.7747    2.6180   -0.9705 H   0  0  0  0  0  0  0  0  0  0  0  0
  1  2  1  0  0  0  0
  1  5  1  0  0  0  0
  2 23  1  6  0  0  0
  2  3  1  0  0  0  0
  3 15  1  0  0  0  0
  3  4  2  0  0  0  0
  5  4  2  0  0  0  0
  5  6  1  0  0  0  0
  6 14  1  0  0  0  0
  7  6  2  0  0  0  0
  7  8  1  0  0  0  0
  8  9  2  0  0  0  0
  9 13  1  0  0  0  0
  9 10  1  0  0  0  0
 10 11  1  0  0  0  0
 11 36  1  0  0  0  0
 11 35  1  0  0  0  0
 11 37  1  0  0  0  0
 12 10  1  0  0  0  0
 12 39  1  0  0  0  0
 13 41  1  0  0  0  0
 14 42  1  0  0  0  0
 14 13  2  0  0  0  0
 15 16  2  0  0  0  0
 16 43  1  0  0  0  0
 16 17  1  0  0  0  0
 17 44  1  0  0  0  0
 18 19  1  0  0  0  0
 18 17  2  0  0  0  0
 20 47  1  0  0  0  0
 20 19  1  0  0  0  0
 20 45  1  0  0  0  0
 21 18  1  0  0  0  0
 22 21  2  0  0  0  0
 22 15  1  0  0  0  0
 24 23  2  0  0  0  0
 25 32  1  0  0  0  0
 25 23  1  0  0  0  0
 26 25  2  0  0  0  0
 27 28  2  0  0  0  0
 27 26  1  0  0  0  0
 28 31  1  0  0  0  0
 29 28  1  0  0  0  0
 30 29  1  0  0  0  0
 31 55  1  0  0  0  0
 31 32  2  0  0  0  0
 32 56  1  0  0  0  0
 33  7  1  0  0  0  0
 34  8  1  0  0  0  0
 38 12  1  0  0  0  0
 40 12  1  0  0  0  0
 46 20  1  0  0  0  0
 48 21  1  0  0  0  0
 49 22  1  0  0  0  0
 50 26  1  0  0  0  0
 51 27  1  0  0  0  0
 52 30  1  0  0  0  0
 53 30  1  0  0  0  0
 54 30  1  0  0  0  0
M  RAD  1   2   2
M  END
$$$$
