56

S          0.05620        0.48920        0.07130
C          1.80200        0.30790        0.01000
C          2.29220        0.10930        1.30730
N          1.32130        0.13690        2.27710
C          0.11110        0.30480        1.81130
C         -1.09290        0.31740        2.63660
C         -0.99510        0.05700        4.01650
C         -2.11440        0.06010        4.83460
C         -3.40630        0.32600        4.30920
N         -4.52160        0.32930        5.11600
C         -5.82600        0.59570        4.54830
C         -4.39300        0.05700        6.53190
C         -3.50050        0.58810        2.91790
C         -2.37010        0.58270        2.11270
C          3.68740       -0.02470        1.77680
C          3.98850        0.40550        3.08190
C          5.27730        0.31570        3.60540
C          6.30790       -0.23050        2.82440
O          7.59250       -0.36670        3.23770
C          7.94090        0.05640        4.53450
C          6.01770       -0.68230        1.52730
C          4.73170       -0.58380        1.01160
C          2.47110        0.36280       -1.31150
O          3.39340       -0.38820       -1.60440
C          1.97560        1.34690       -2.32400
C          2.21930        1.07250       -3.67800
C          1.82980        1.95660       -4.68110
C          1.20060        3.16510       -4.33380
O          0.78720        4.09240       -5.22600
C          0.99510        3.86530       -6.60270
C          0.97650        3.46540       -2.97850
C          1.35400        2.56620       -1.99060
H         -0.00930       -0.15340        4.43360
H         -1.98460       -0.14970        5.89490
H         -6.10240       -0.14530        3.77610
H         -5.87980        1.59700        4.08300
H         -6.58360        0.55320        5.34060
H         -3.97650       -0.94840        6.72590
H         -5.38230        0.10740        7.00340
H         -3.73970        0.79100        7.03780
H         -4.46500        0.80050        2.46050
H         -2.48830        0.79470        1.04670
H          3.18620        0.82100        3.69200
H          5.46550        0.67150        4.61810
H          9.01340       -0.14730        4.65440
H          7.38220       -0.49630        5.31140
H          7.76390        1.13800        4.67580
H          6.82600       -1.12090        0.93930
H          4.51950       -0.94740        0.00870
H          2.72780        0.14050       -3.93070
H          2.02120        1.70240       -5.72310
H          0.58850        4.73920       -7.12820
H          0.46890        2.95910       -6.95150
H          2.06860        3.76810       -6.84320
H          0.50680        4.41870       -2.73070
H          1.18580        2.82440       -0.94460
