56

S          0.02430       -0.31430        0.07420
C          1.77000       -0.12520        0.02740
C          2.25470        0.01530        1.33450
N          1.28080       -0.06050        2.29840
C          0.07260       -0.20970        1.82100
C         -1.13360       -0.26450        2.64120
C         -2.41050       -0.49500        2.10050
C         -3.54290       -0.54130        2.90170
C         -3.45090       -0.35820        4.30570
N         -4.56810       -0.40280        5.10870
C         -4.44200       -0.20870        6.53780
C         -5.87230       -0.63040        4.52400
C         -2.15940       -0.12680        4.84800
C         -1.03810       -0.08190        4.03380
C          3.64710        0.13410        1.81510
C          4.68450        0.73630        1.08670
C          5.97890        0.82280        1.60580
C          6.26370        0.30760        2.87740
O          7.48520        0.34090        3.46530
C          8.56250        0.91840        2.76530
C          5.23020       -0.28500        3.62470
C          3.94820       -0.36160        3.10440
C          2.44590       -0.11820       -1.29120
O          3.37230        0.64290       -1.54320
C          1.95640       -1.05200       -2.35260
C          2.20810       -0.71270       -3.69750
C          1.82600       -1.55320       -4.72930
C          1.19950       -2.78240       -4.44450
O          0.86460       -3.54000       -5.51240
C          0.23780       -4.78600       -5.30350
C          0.96850       -3.14880       -3.10950
C          1.34220       -2.28220       -2.08020
H         -2.52710       -0.64500        1.02380
H         -4.50720       -0.72320        2.43090
H         -4.02340        0.78340        6.78740
H         -3.79180       -0.97120        7.00390
H         -5.43250       -0.28230        7.00360
H         -6.14410        0.15530        3.79540
H         -6.63140       -0.63070        5.31600
H         -5.92900       -1.60280        4.00150
H         -2.03130        0.02270        5.91870
H         -0.05270        0.10130        4.46430
H          4.47250        1.14780        0.10240
H          6.75240        1.30420        1.00800
H          9.44300        0.83110        3.41590
H          8.38380        1.98630        2.54500
H          8.76410        0.39180        1.81510
H          5.46580       -0.67690        4.61590
H          3.14730       -0.81300        3.69020
H          2.71350        0.23190       -3.90500
H          2.00110       -1.29310       -5.77470
H          0.05750       -5.21590       -6.29730
H         -0.72780       -4.67460       -4.77880
H          0.87940       -5.47420       -4.72500
H          0.50630       -4.10320       -2.86020
H          1.17020       -2.58830       -1.04780
