rmsd249.gzmat
 OpenBabel08211713433D

 40 41  0  0  1  0  0  0  0  0999 V2000
    0.0000    0.0000    0.0000 C   0  0  0  0  0  0  0  0  0  0  0  0
    1.3932    0.0000    0.0000 C   0  0  0  0  0  0  0  0  0  0  0  0
    2.1019    0.0000    1.2017 C   0  0  0  0  0  0  0  0  0  0  0  0
    1.4061   -0.0011    2.4093 C   0  0  0  0  0  0  0  0  0  0  0  0
    0.0122    0.0097    2.4159 C   0  0  0  0  0  0  0  0  0  0  0  0
   -0.6888    0.0114    1.2115 C   0  0  0  0  0  0  0  0  0  0  0  0
    2.3469   -0.0451   -1.4941 S   0  0  0  0  0  0  0  0  0  0  0  0
    1.3580    0.9650   -2.6715 C   0  0  1  0  0  0  0  0  0  0  0  0
    0.4012    0.4337   -2.8766 H   0  0  0  0  0  0  0  0  0  0  0  0
    1.0780    2.3957   -2.1944 C   0  0  0  0  0  0  0  0  0  0  0  0
    1.1111    3.2681   -3.4679 C   0  0  1  0  0  0  0  0  0  0  0  0
    0.0784    3.6019   -3.7588 H   0  0  0  0  0  0  0  0  0  0  0  0
    1.9813    4.5233   -3.2580 C   0  0  0  0  0  0  0  0  0  0  0  0
    2.5677    4.7866   -2.2447 O   0  0  0  0  0  0  0  0  0  0  0  0
    2.0083    5.3833   -4.2889 O   0  0  0  0  0  0  0  0  0  0  0  0
    1.6854    2.4200   -4.5286 N   0  0  0  0  0  0  0  0  0  0  0  0
    2.1547    1.1346   -3.9809 C   0  0  0  0  0  0  0  0  0  0  0  0
    1.4655    2.6938   -5.8550 C   0  0  0  0  0  0  0  0  0  0  0  0
    0.9576    3.7723   -6.1509 O   0  0  0  0  0  0  0  0  0  0  0  0
    1.9115    1.7025   -6.9169 C   0  0  2  0  0  0  0  0  0  0  0  0
    1.7495    0.6491   -6.5708 H   0  0  0  0  0  0  0  0  0  0  0  0
    3.4057    1.9253   -7.1664 C   0  0  0  0  0  0  0  0  0  0  0  0
    1.1134    1.9452   -8.1975 C   0  0  0  0  0  0  0  0  0  0  0  0
   -0.6710    1.5925   -7.9609 S   0  0  0  0  0  0  0  0  0  0  0  0
   -0.5686   -0.0152   -0.9285 H   0  0  0  0  0  0  0  0  0  0  0  0
    3.1936    0.0080    1.2147 H   0  0  0  0  0  0  0  0  0  0  0  0
    1.9547   -0.0034    3.3503 H   0  0  0  0  0  0  0  0  0  0  0  0
   -0.5285    0.0180    3.3609 H   0  0  0  0  0  0  0  0  0  0  0  0
   -1.7779    0.0201    1.2140 H   0  0  0  0  0  0  0  0  0  0  0  0
    1.8349    2.7515   -1.4587 H   0  0  0  0  0  0  0  0  0  0  0  0
    0.1092    2.4788   -1.6733 H   0  0  0  0  0  0  0  0  0  0  0  0
    1.5604    5.0295   -5.1194 H   0  0  0  0  0  0  0  0  0  0  0  0
    1.9750    0.2968   -4.6862 H   0  0  0  0  0  0  0  0  0  0  0  0
    3.2561    1.2056   -3.8116 H   0  0  0  0  0  0  0  0  0  0  0  0
    3.7816    1.2585   -7.9517 H   0  0  0  0  0  0  0  0  0  0  0  0
    4.0037    1.7387   -6.2655 H   0  0  0  0  0  0  0  0  0  0  0  0
    3.6150    2.9562   -7.4864 H   0  0  0  0  0  0  0  0  0  0  0  0
    1.2496    2.9874   -8.5527 H   0  0  0  0  0  0  0  0  0  0  0  0
    1.4699    1.2870   -9.0129 H   0  0  0  0  0  0  0  0  0  0  0  0
   -1.0452    2.7336   -7.3599 H   0  0  0  0  0  0  0  0  0  0  0  0
  1  6  1  0  0  0  0
  2  1  2  0  0  0  0
  2  3  1  0  0  0  0
  3 26  1  0  0  0  0
  3  4  2  0  0  0  0
  4  5  1  0  0  0  0
  4 27  1  0  0  0  0
  5 28  1  0  0  0  0
  6 29  1  0  0  0  0
  6  5  2  0  0  0  0
  7  2  1  0  0  0  0
  8  9  1  6  0  0  0
  8 10  1  0  0  0  0
  8  7  1  0  0  0  0
 10 31  1  0  0  0  0
 10 30  1  0  0  0  0
 11 12  1  6  0  0  0
 11 13  1  0  0  0  0
 11 10  1  0  0  0  0
 13 14  2  0  0  0  0
 15 13  1  0  0  0  0
 16 17  1  0  0  0  0
 16 11  1  0  0  0  0
 17 34  1  0  0  0  0
 17  8  1  0  0  0  0
 18 16  1  0  0  0  0
 19 18  2  0  0  0  0
 20 21  1  1  0  0  0
 20 18  1  0  0  0  0
 22 20  1  0  0  0  0
 22 36  1  0  0  0  0
 23 24  1  0  0  0  0
 23 20  1  0  0  0  0
 24 40  1  0  0  0  0
 25  1  1  0  0  0  0
 32 15  1  0  0  0  0
 33 17  1  0  0  0  0
 35 22  1  0  0  0  0
 37 22  1  0  0  0  0
 38 23  1  0  0  0  0
 39 23  1  0  0  0  0
M  END
$$$$
