40
rmsd229.gzmat
C          0.00000        0.00000        0.00000
C          1.39340        0.00000        0.00000
C          2.10730        0.00000        1.19620
C          1.41520        0.00300        2.40670
C          0.02160        0.00460        2.41520
C         -0.68530        0.00230        1.21370
S          2.29050       -0.03510       -1.53350
C          2.06660        1.69950       -2.11610
H          1.00280        1.82940       -2.41730
C          2.45560        2.76840       -1.08720
C          3.07050        3.92560       -1.90500
H          2.37790        4.80950       -1.94350
C          4.40630        4.38680       -1.28800
O          4.90300        3.91000       -0.30500
O          4.98980        5.43510       -1.89050
N          3.28850        3.39390       -3.26260
C          2.99860        1.94950       -3.31780
C          3.41960        4.22450       -4.34600
O          3.55090        5.42960       -4.14670
C          3.46720        3.63460       -5.74580
H          2.74600        2.78180       -5.83980
C          4.88930        3.12230       -5.99150
C          3.10860        4.71550       -6.76490
S          1.38030        5.29510       -6.56300
H         -0.56470       -0.00390       -0.93310
H          3.20020        0.00000        1.20290
H          1.96620        0.00840        3.34630
H         -0.51700        0.00890        3.36240
H         -1.77390        0.00320        1.22210
H          3.18770        2.38740       -0.33970
H          1.58930        3.10750       -0.49400
H          4.54420        5.70130       -2.75500
H          2.52220        1.66180       -4.27780
H          3.96370        1.39330       -3.23730
H          4.99000        2.69140       -6.99570
H          5.17480        2.34440       -5.27170
H          5.63140        3.92980       -5.90820
H          3.80660        5.57440       -6.68940
H          3.20210        4.32400       -7.79620
H          1.54700        6.13530       -5.52820
