
     RDKit          3D

 40 41  0  0  0  0  0  0  0  0999 V2000
    0.7623   -1.0200    0.3960 C   0  0  0  0  0  0  0  0  0  0  0  0
    1.3509    0.1761   -0.0519 C   0  0  0  0  0  0  0  0  0  0  0  0
    1.0204    1.3820    0.5853 C   0  0  0  0  0  0  0  0  0  0  0  0
    0.1123    1.3833    1.6484 C   0  0  0  0  0  0  0  0  0  0  0  0
   -0.4690    0.1954    2.0946 C   0  0  0  0  0  0  0  0  0  0  0  0
   -0.1356   -1.0072    1.4623 C   0  0  0  0  0  0  0  0  0  0  0  0
    2.5089    0.0217   -1.3970 S   0  0  0  0  0  0  0  0  0  0  0  0
    2.7893    1.7396   -1.9098 C   0  0  1  0  0  0  0  0  0  0  0  0
    3.0648    2.3416   -1.0304 H   0  0  0  0  0  0  0  0  0  0  0  0
    3.8974    1.8306   -2.9638 C   0  0  0  0  0  0  0  0  0  0  0  0
    3.6623    3.1908   -3.6309 C   0  0  1  0  0  0  0  0  0  0  0  0
    4.2977    3.9840   -3.2011 H   0  0  0  0  0  0  0  0  0  0  0  0
    3.9274    3.1694   -5.1559 C   0  0  0  0  0  0  0  0  0  0  0  0
    4.2540    2.1681   -5.7393 O   0  0  0  0  0  0  0  0  0  0  0  0
    3.7867    4.3437   -5.7581 O   0  0  0  0  0  0  0  0  0  0  0  0
    2.2534    3.5282   -3.3049 N   0  0  0  0  0  0  0  0  0  0  0  0
    1.6071    2.4084   -2.6148 C   0  0  0  0  0  0  0  0  0  0  0  0
    1.8378    4.8105   -3.3835 C   0  0  0  0  0  0  0  0  0  0  0  0
    2.5724    5.6874   -3.8640 O   0  0  0  0  0  0  0  0  0  0  0  0
    0.4673    5.2050   -2.8475 C   0  0  2  0  0  0  0  0  0  0  0  0
   -0.1091    4.3130   -2.5716 H   0  0  0  0  0  0  0  0  0  0  0  0
   -0.3020    5.9842   -3.9214 C   0  0  0  0  0  0  0  0  0  0  0  0
    0.6651    6.0657   -1.5897 C   0  0  0  0  0  0  0  0  0  0  0  0
    1.5984    5.2568   -0.2265 S   0  0  0  0  0  0  0  0  0  0  0  0
    1.0096   -1.9622   -0.0996 H   0  0  0  0  0  0  0  0  0  0  0  0
    1.4556    2.3304    0.2716 H   0  0  0  0  0  0  0  0  0  0  0  0
   -0.1356    2.3324    2.1304 H   0  0  0  0  0  0  0  0  0  0  0  0
   -1.1768    0.2043    2.9263 H   0  0  0  0  0  0  0  0  0  0  0  0
   -0.5828   -1.9461    1.7979 H   0  0  0  0  0  0  0  0  0  0  0  0
    3.7886    1.0421   -3.7230 H   0  0  0  0  0  0  0  0  0  0  0  0
    4.9042    1.7459   -2.5348 H   0  0  0  0  0  0  0  0  0  0  0  0
    3.4578    5.0203   -5.1069 H   0  0  0  0  0  0  0  0  0  0  0  0
    0.8434    2.7534   -1.9137 H   0  0  0  0  0  0  0  0  0  0  0  0
    1.1510    1.7093   -3.3353 H   0  0  0  0  0  0  0  0  0  0  0  0
   -1.2720    6.3258   -3.5292 H   0  0  0  0  0  0  0  0  0  0  0  0
   -0.4923    5.3548   -4.8041 H   0  0  0  0  0  0  0  0  0  0  0  0
    0.2798    6.8584   -4.2464 H   0  0  0  0  0  0  0  0  0  0  0  0
    1.1736    7.0043   -1.8507 H   0  0  0  0  0  0  0  0  0  0  0  0
   -0.3132    6.3218   -1.1574 H   0  0  0  0  0  0  0  0  0  0  0  0
    2.8311    5.4409   -0.7525 H   0  0  0  0  0  0  0  0  0  0  0  0
  1  2  2  0
  1  6  1  0
  1 25  1  0
  2  3  1  0
  2  7  1  0
  3  4  2  0
  3 26  1  0
  4  5  1  0
  4 27  1  0
  5  6  2  0
  5 28  1  0
  6 29  1  0
  7  8  1  0
  8  9  1  1
  8 10  1  0
  8 17  1  0
 10 11  1  0
 10 30  1  0
 10 31  1  0
 11 12  1  1
 11 13  1  0
 11 16  1  0
 13 14  2  0
 13 15  1  0
 15 32  1  0
 16 17  1  0
 16 18  1  0
 17 33  1  0
 17 34  1  0
 18 19  2  0
 18 20  1  0
 20 21  1  1
 20 22  1  0
 20 23  1  0
 22 35  1  0
 22 36  1  0
 22 37  1  0
 23 24  1  0
 23 38  1  0
 23 39  1  0
 24 40  1  0
M  END

