rmsd71.gzmat
 OpenBabel08211713433D

 40 41  0  0  1  0  0  0  0  0999 V2000
    0.0000    0.0000    0.0000 C   0  0  0  0  0  0  0  0  0  0  0  0
    1.3921    0.0000    0.0000 C   0  0  0  0  0  0  0  0  0  0  0  0
    2.1039    0.0000    1.1994 C   0  0  0  0  0  0  0  0  0  0  0  0
    1.4126    0.0470    2.4079 C   0  0  0  0  0  0  0  0  0  0  0  0
    0.0180    0.0847    2.4142 C   0  0  0  0  0  0  0  0  0  0  0  0
   -0.6868    0.0491    1.2138 C   0  0  0  0  0  0  0  0  0  0  0  0
    2.2705   -0.0474   -1.5437 S   0  0  0  0  0  0  0  0  0  0  0  0
    2.5879    1.7216   -1.9649 C   0  0  1  0  0  0  0  0  0  0  0  0
    3.3607    1.6483   -2.7672 H   0  0  0  0  0  0  0  0  0  0  0  0
    1.3592    2.4813   -2.4807 C   0  0  0  0  0  0  0  0  0  0  0  0
    0.9387    3.4755   -1.3775 C   0  0  1  0  0  0  0  0  0  0  0  0
    0.8243    4.5167   -1.7892 H   0  0  0  0  0  0  0  0  0  0  0  0
   -0.4295    3.0722   -0.7893 C   0  0  0  0  0  0  0  0  0  0  0  0
   -1.1233    2.2081   -1.2575 O   0  0  0  0  0  0  0  0  0  0  0  0
   -0.8934    3.7942    0.2373 O   0  0  0  0  0  0  0  0  0  0  0  0
    2.0231    3.4525   -0.3839 N   0  0  0  0  0  0  0  0  0  0  0  0
    3.1163    2.5455   -0.7816 C   0  0  0  0  0  0  0  0  0  0  0  0
    2.1554    4.4036    0.5947 C   0  0  0  0  0  0  0  0  0  0  0  0
    1.2688    5.2413    0.7412 O   0  0  0  0  0  0  0  0  0  0  0  0
    3.3635    4.3629    1.5182 C   0  0  2  0  0  0  0  0  0  0  0  0
    4.2722    3.9938    0.9808 H   0  0  0  0  0  0  0  0  0  0  0  0
    3.0269    3.4022    2.6625 C   0  0  0  0  0  0  0  0  0  0  0  0
    3.6283    5.7667    2.0618 C   0  0  0  0  0  0  0  0  0  0  0  0
    4.0843    6.9354    0.7232 S   0  0  0  0  0  0  0  0  0  0  0  0
   -0.5690   -0.0240   -0.9356 H   0  0  0  0  0  0  0  0  0  0  0  0
    3.1928   -0.0498    1.2088 H   0  0  0  0  0  0  0  0  0  0  0  0
    1.9598    0.0496    3.3482 H   0  0  0  0  0  0  0  0  0  0  0  0
   -0.5205    0.1407    3.3598 H   0  0  0  0  0  0  0  0  0  0  0  0
   -1.7772    0.0756    1.2139 H   0  0  0  0  0  0  0  0  0  0  0  0
    0.5224    1.8020   -2.7562 H   0  0  0  0  0  0  0  0  0  0  0  0
    1.6017    3.0225   -3.4144 H   0  0  0  0  0  0  0  0  0  0  0  0
   -0.2459    4.4993    0.5622 H   0  0  0  0  0  0  0  0  0  0  0  0
    4.0093    3.1390   -1.0917 H   0  0  0  0  0  0  0  0  0  0  0  0
    3.4255    1.9257    0.0887 H   0  0  0  0  0  0  0  0  0  0  0  0
    3.8747    3.2858    3.3480 H   0  0  0  0  0  0  0  0  0  0  0  0
    2.7583    2.4015    2.2953 H   0  0  0  0  0  0  0  0  0  0  0  0
    2.1717    3.7605    3.2539 H   0  0  0  0  0  0  0  0  0  0  0  0
    2.7428    6.1473    2.6114 H   0  0  0  0  0  0  0  0  0  0  0  0
    4.4660    5.7541    2.7845 H   0  0  0  0  0  0  0  0  0  0  0  0
    2.8599    7.2136    0.2461 H   0  0  0  0  0  0  0  0  0  0  0  0
  1  2  2  0  0  0  0
  1  6  1  0  0  0  0
  2  3  1  0  0  0  0
  3 26  1  0  0  0  0
  3  4  2  0  0  0  0
  4  5  1  0  0  0  0
  4 27  1  0  0  0  0
  5 28  1  0  0  0  0
  6 29  1  0  0  0  0
  6  5  2  0  0  0  0
  7  2  1  0  0  0  0
  8  9  1  6  0  0  0
  8  7  1  0  0  0  0
  8 17  1  0  0  0  0
 10  8  1  0  0  0  0
 10 11  1  0  0  0  0
 11 12  1  6  0  0  0
 11 13  1  0  0  0  0
 11 16  1  0  0  0  0
 13 15  1  0  0  0  0
 14 13  2  0  0  0  0
 15 32  1  0  0  0  0
 16 18  1  0  0  0  0
 17 16  1  0  0  0  0
 17 34  1  0  0  0  0
 18 19  2  0  0  0  0
 18 20  1  0  0  0  0
 20 21  1  6  0  0  0
 20 23  1  0  0  0  0
 20 22  1  0  0  0  0
 22 37  1  0  0  0  0
 22 35  1  0  0  0  0
 23 38  1  0  0  0  0
 23 39  1  0  0  0  0
 24 23  1  0  0  0  0
 25  1  1  0  0  0  0
 30 10  1  0  0  0  0
 31 10  1  0  0  0  0
 33 17  1  0  0  0  0
 36 22  1  0  0  0  0
 40 24  1  0  0  0  0
M  END
$$$$
