40

C          0.00410        0.39170        0.25320
C          1.35520        0.17050       -0.04720
C          2.26120       -0.09640        0.99290
C          1.82840       -0.08810        2.32090
C          0.48700        0.17600        2.61830
C         -0.42260        0.40820        1.58330
S          1.91720        0.13640       -1.74830
C          2.58300        1.84970       -2.05610
H          3.40950        1.65700       -2.75310
C          1.57810        2.84680       -2.65420
C          0.95000        3.56860       -1.45640
H          0.87650        4.65810       -1.62500
C         -0.50270        3.09890       -1.17810
O         -1.10710        2.41970       -1.97170
O         -1.04740        3.53530       -0.05590
N          1.91730        3.34350       -0.35490
C          3.08380        2.57270       -0.81270
C          1.86650        4.06780        0.78020
O          0.90050        4.80620        1.03490
C          3.02800        4.01920        1.76420
H          3.79350        3.31320        1.42010
C          2.51940        3.58400        3.14400
C          3.66010        5.41770        1.82430
S          4.23680        6.06080        0.20000
H         -0.70320        0.56450       -0.55680
H          3.30060       -0.32720        0.75040
H          2.53880       -0.29570        3.12490
H          0.14980        0.18920        3.65740
H         -1.47270        0.60900        1.80590
H          0.80420        2.36500       -3.26230
H          2.12620        3.56830       -3.28030
H         -0.40670        4.13080        0.43180
H          3.90290        3.26550       -1.07210
H          3.43680        1.89030       -0.03310
H          3.33980        3.59590        3.87810
H          2.10550        2.56630        3.10170
H          1.72630        4.26380        3.48720
H          2.94960        6.13690        2.25440
H          4.55160        5.39650        2.46800
H          3.02040        6.46200       -0.23550
