40
rmsd90.gzmat
C          0.00000        0.00000        0.00000
C          1.39230        0.00000        0.00000
C          2.10390        0.00000        1.19900
C          1.41240        0.01820        2.40810
C          0.01780        0.03480        2.41560
C         -0.68670        0.01990        1.21420
S          2.29240       -0.03560       -1.53250
C          2.33490        1.72750       -2.05960
H          3.08630        1.73020       -2.88660
C          0.99040        2.26070       -2.57300
C          0.67620        3.51600       -1.73360
H          0.29180        4.35720       -2.37830
C         -0.40920        3.20120       -0.70040
O         -1.39810        2.56530       -0.94740
O         -0.25790        3.69810        0.54740
N          1.92830        3.89610       -1.04720
C          2.78320        2.69220       -0.93970
C          2.47270        5.15740       -1.34950
O          1.81540        5.94750       -1.99170
C          3.80350        5.53720       -0.71770
H          4.33300        4.64750       -0.29440
C          3.49710        6.51130        0.42450
C          4.67800        6.21230       -1.77320
S          4.95330        5.13190       -3.22920
H         -0.57090       -0.00320       -0.93170
H          3.19410       -0.01940        1.20710
H          1.96120        0.02390        3.34740
H         -0.52110        0.06300        3.36210
H         -1.77690        0.04290        1.21720
H          0.16720        1.52050       -2.51320
H          1.05510        2.51770       -3.64740
H          0.60980        4.15380        0.69050
H          3.86280        2.93120       -1.02920
H          2.63060        2.27210        0.08240
H          4.41780        6.87790        0.89230
H          2.89630        6.03750        1.21020
H          2.93540        7.38760        0.06890
H          4.23160        7.17590       -2.09200
H          5.67410        6.45580       -1.35410
H          3.84870        5.41540       -3.93570
