rmsd82.gzmat
 OpenBabel08211713433D

 40 41  0  0  1  0  0  0  0  0999 V2000
    0.0000    0.0000    0.0000 C   0  0  0  0  0  0  0  0  0  0  0  0
    1.3932    0.0000    0.0000 C   0  0  0  0  0  0  0  0  0  0  0  0
    2.1041    0.0000    1.1987 C   0  0  0  0  0  0  0  0  0  0  0  0
    1.4114    0.0080    2.4084 C   0  0  0  0  0  0  0  0  0  0  0  0
    0.0174    0.0106    2.4155 C   0  0  0  0  0  0  0  0  0  0  0  0
   -0.6874    0.0014    1.2129 C   0  0  0  0  0  0  0  0  0  0  0  0
    2.2645   -0.0747   -1.5490 S   0  0  0  0  0  0  0  0  0  0  0  0
    2.7612    1.6848   -1.7807 C   0  0  1  0  0  0  0  0  0  0  0  0
    1.8508    2.3176   -1.6793 H   0  0  0  0  0  0  0  0  0  0  0  0
    3.8459    2.1581   -0.8055 C   0  0  0  0  0  0  0  0  0  0  0  0
    4.7450    3.1176   -1.6140 C   0  0  1  0  0  0  0  0  0  0  0  0
    4.5884    4.1846   -1.2971 H   0  0  0  0  0  0  0  0  0  0  0  0
    6.2352    2.7742   -1.4180 C   0  0  0  0  0  0  0  0  0  0  0  0
    6.6436    1.8819   -0.7268 O   0  0  0  0  0  0  0  0  0  0  0  0
    7.1036    3.5930   -2.0324 O   0  0  0  0  0  0  0  0  0  0  0  0
    4.3597    2.9486   -3.0270 N   0  0  0  0  0  0  0  0  0  0  0  0
    3.3781    1.8590   -3.1829 C   0  0  0  0  0  0  0  0  0  0  0  0
    4.6197    3.9318   -3.9485 C   0  0  0  0  0  0  0  0  0  0  0  0
    5.3587    4.8570   -3.6208 O   0  0  0  0  0  0  0  0  0  0  0  0
    4.0662    3.8243   -5.3592 C   0  0  2  0  0  0  0  0  0  0  0  0
    3.1162    3.2324   -5.3810 H   0  0  0  0  0  0  0  0  0  0  0  0
    5.1206    3.1100   -6.2094 C   0  0  0  0  0  0  0  0  0  0  0  0
    3.8035    5.2307   -5.8964 C   0  0  0  0  0  0  0  0  0  0  0  0
    2.5267    6.0987   -4.9055 S   0  0  0  0  0  0  0  0  0  0  0  0
   -0.5647   -0.0059   -0.9336 H   0  0  0  0  0  0  0  0  0  0  0  0
    3.1965   -0.0124    1.2079 H   0  0  0  0  0  0  0  0  0  0  0  0
    1.9605    0.0083    3.3492 H   0  0  0  0  0  0  0  0  0  0  0  0
   -0.5224    0.0165    3.3618 H   0  0  0  0  0  0  0  0  0  0  0  0
   -1.7760   -0.0055    1.2200 H   0  0  0  0  0  0  0  0  0  0  0  0
    4.4469    1.3110   -0.4038 H   0  0  0  0  0  0  0  0  0  0  0  0
    3.4158    2.6614    0.0770 H   0  0  0  0  0  0  0  0  0  0  0  0
    6.6617    4.2610   -2.6442 H   0  0  0  0  0  0  0  0  0  0  0  0
    2.6059    2.1082   -3.9411 H   0  0  0  0  0  0  0  0  0  0  0  0
    3.9183    0.9483   -3.5366 H   0  0  0  0  0  0  0  0  0  0  0  0
    4.7739    2.9692   -7.2403 H   0  0  0  0  0  0  0  0  0  0  0  0
    5.3667    2.1195   -5.8061 H   0  0  0  0  0  0  0  0  0  0  0  0
    6.0588    3.6824   -6.2548 H   0  0  0  0  0  0  0  0  0  0  0  0
    4.7396    5.8265   -5.9155 H   0  0  0  0  0  0  0  0  0  0  0  0
    3.4390    5.1885   -6.9408 H   0  0  0  0  0  0  0  0  0  0  0  0
    3.2882    6.5325   -3.8884 H   0  0  0  0  0  0  0  0  0  0  0  0
  1  2  2  0  0  0  0
  1  6  1  0  0  0  0
  2  3  1  0  0  0  0
  3 26  1  0  0  0  0
  3  4  2  0  0  0  0
  4  5  1  0  0  0  0
  4 27  1  0  0  0  0
  5 28  1  0  0  0  0
  6 29  1  0  0  0  0
  6  5  2  0  0  0  0
  7  2  1  0  0  0  0
  8  9  1  1  0  0  0
  8  7  1  0  0  0  0
  8 10  1  0  0  0  0
 10 30  1  0  0  0  0
 10 31  1  0  0  0  0
 11 13  1  0  0  0  0
 11 12  1  1  0  0  0
 11 10  1  0  0  0  0
 13 14  2  0  0  0  0
 15 13  1  0  0  0  0
 16 11  1  0  0  0  0
 17 16  1  0  0  0  0
 17  8  1  0  0  0  0
 18 19  2  0  0  0  0
 18 16  1  0  0  0  0
 20 21  1  1  0  0  0
 20 18  1  0  0  0  0
 22 36  1  0  0  0  0
 22 20  1  0  0  0  0
 23 20  1  0  0  0  0
 23 24  1  0  0  0  0
 24 40  1  0  0  0  0
 25  1  1  0  0  0  0
 32 15  1  0  0  0  0
 33 17  1  0  0  0  0
 34 17  1  0  0  0  0
 35 22  1  0  0  0  0
 37 22  1  0  0  0  0
 38 23  1  0  0  0  0
 39 23  1  0  0  0  0
M  END
$$$$
