rmsd229.gzmat
 OpenBabel08211713433D

 40 41  0  0  1  0  0  0  0  0999 V2000
    0.0000    0.0000    0.0000 C   0  0  0  0  0  0  0  0  0  0  0  0
    1.3934    0.0000    0.0000 C   0  0  0  0  0  0  0  0  0  0  0  0
    2.1073    0.0000    1.1962 C   0  0  0  0  0  0  0  0  0  0  0  0
    1.4152    0.0030    2.4067 C   0  0  0  0  0  0  0  0  0  0  0  0
    0.0216    0.0046    2.4152 C   0  0  0  0  0  0  0  0  0  0  0  0
   -0.6853    0.0023    1.2137 C   0  0  0  0  0  0  0  0  0  0  0  0
    2.2905   -0.0351   -1.5335 S   0  0  0  0  0  0  0  0  0  0  0  0
    2.0666    1.6995   -2.1161 C   0  0  1  0  0  0  0  0  0  0  0  0
    1.0028    1.8294   -2.4173 H   0  0  0  0  0  0  0  0  0  0  0  0
    2.4556    2.7684   -1.0872 C   0  0  0  0  0  0  0  0  0  0  0  0
    3.0705    3.9256   -1.9050 C   0  0  1  0  0  0  0  0  0  0  0  0
    2.3779    4.8095   -1.9435 H   0  0  0  0  0  0  0  0  0  0  0  0
    4.4063    4.3868   -1.2880 C   0  0  0  0  0  0  0  0  0  0  0  0
    4.9030    3.9100   -0.3050 O   0  0  0  0  0  0  0  0  0  0  0  0
    4.9898    5.4351   -1.8905 O   0  0  0  0  0  0  0  0  0  0  0  0
    3.2885    3.3939   -3.2626 N   0  0  0  0  0  0  0  0  0  0  0  0
    2.9986    1.9495   -3.3178 C   0  0  0  0  0  0  0  0  0  0  0  0
    3.4196    4.2245   -4.3460 C   0  0  0  0  0  0  0  0  0  0  0  0
    3.5509    5.4296   -4.1467 O   0  0  0  0  0  0  0  0  0  0  0  0
    3.4672    3.6346   -5.7458 C   0  0  2  0  0  0  0  0  0  0  0  0
    2.7460    2.7818   -5.8398 H   0  0  0  0  0  0  0  0  0  0  0  0
    4.8893    3.1223   -5.9915 C   0  0  0  0  0  0  0  0  0  0  0  0
    3.1086    4.7155   -6.7649 C   0  0  0  0  0  0  0  0  0  0  0  0
    1.3803    5.2951   -6.5630 S   0  0  0  0  0  0  0  0  0  0  0  0
   -0.5647   -0.0039   -0.9331 H   0  0  0  0  0  0  0  0  0  0  0  0
    3.2002    0.0000    1.2029 H   0  0  0  0  0  0  0  0  0  0  0  0
    1.9662    0.0084    3.3463 H   0  0  0  0  0  0  0  0  0  0  0  0
   -0.5170    0.0089    3.3624 H   0  0  0  0  0  0  0  0  0  0  0  0
   -1.7739    0.0032    1.2221 H   0  0  0  0  0  0  0  0  0  0  0  0
    3.1877    2.3874   -0.3397 H   0  0  0  0  0  0  0  0  0  0  0  0
    1.5893    3.1075   -0.4940 H   0  0  0  0  0  0  0  0  0  0  0  0
    4.5442    5.7013   -2.7550 H   0  0  0  0  0  0  0  0  0  0  0  0
    2.5222    1.6618   -4.2778 H   0  0  0  0  0  0  0  0  0  0  0  0
    3.9637    1.3933   -3.2373 H   0  0  0  0  0  0  0  0  0  0  0  0
    4.9900    2.6914   -6.9957 H   0  0  0  0  0  0  0  0  0  0  0  0
    5.1748    2.3444   -5.2717 H   0  0  0  0  0  0  0  0  0  0  0  0
    5.6314    3.9298   -5.9082 H   0  0  0  0  0  0  0  0  0  0  0  0
    3.8066    5.5744   -6.6894 H   0  0  0  0  0  0  0  0  0  0  0  0
    3.2021    4.3240   -7.7962 H   0  0  0  0  0  0  0  0  0  0  0  0
    1.5470    6.1353   -5.5282 H   0  0  0  0  0  0  0  0  0  0  0  0
  1  2  2  0  0  0  0
  1  6  1  0  0  0  0
  2  3  1  0  0  0  0
  3 26  1  0  0  0  0
  3  4  2  0  0  0  0
  4  5  1  0  0  0  0
  4 27  1  0  0  0  0
  5 28  1  0  0  0  0
  6 29  1  0  0  0  0
  6  5  2  0  0  0  0
  7  2  1  0  0  0  0
  8  9  1  6  0  0  0
  8  7  1  0  0  0  0
  8 10  1  0  0  0  0
 10 31  1  0  0  0  0
 10 30  1  0  0  0  0
 11 12  1  6  0  0  0
 11 13  1  0  0  0  0
 11 10  1  0  0  0  0
 13 14  2  0  0  0  0
 15 13  1  0  0  0  0
 16 11  1  0  0  0  0
 17 16  1  0  0  0  0
 17 34  1  0  0  0  0
 17  8  1  0  0  0  0
 18 19  2  0  0  0  0
 18 16  1  0  0  0  0
 20 21  1  6  0  0  0
 20 18  1  0  0  0  0
 22 37  1  0  0  0  0
 22 20  1  0  0  0  0
 22 36  1  0  0  0  0
 23 38  1  0  0  0  0
 23 24  1  0  0  0  0
 23 20  1  0  0  0  0
 24 40  1  0  0  0  0
 25  1  1  0  0  0  0
 32 15  1  0  0  0  0
 33 17  1  0  0  0  0
 35 22  1  0  0  0  0
 39 23  1  0  0  0  0
M  END
$$$$
