
     RDKit          3D

 40 41  0  0  0  0  0  0  0  0999 V2000
   -0.0057   -0.1212   -0.2202 C   0  0  0  0  0  0  0  0  0  0  0  0
    1.3783   -0.0029   -0.0288 C   0  0  0  0  0  0  0  0  0  0  0  0
    1.8930    0.1503    1.2659 C   0  0  0  0  0  0  0  0  0  0  0  0
    1.0252    0.1980    2.3602 C   0  0  0  0  0  0  0  0  0  0  0  0
   -0.3551    0.0924    2.1667 C   0  0  0  0  0  0  0  0  0  0  0  0
   -0.8693   -0.0672    0.8762 C   0  0  0  0  0  0  0  0  0  0  0  0
    2.4903   -0.0698   -1.4322 S   0  0  0  0  0  0  0  0  0  0  0  0
    2.4050    1.6862   -1.9517 C   0  0  1  0  0  0  0  0  0  0  0  0
    1.3549    1.9239   -2.1836 H   0  0  0  0  0  0  0  0  0  0  0  0
    2.9804    2.6984   -0.9583 C   0  0  0  0  0  0  0  0  0  0  0  0
    3.3888    3.9028   -1.8165 C   0  0  1  0  0  0  0  0  0  0  0  0
    2.6451    4.7172   -1.7963 H   0  0  0  0  0  0  0  0  0  0  0  0
    4.7462    4.5094   -1.3743 C   0  0  0  0  0  0  0  0  0  0  0  0
    5.3839    4.0595   -0.4570 O   0  0  0  0  0  0  0  0  0  0  0  0
    5.1344    5.5714   -2.0678 O   0  0  0  0  0  0  0  0  0  0  0  0
    3.4262    3.3707   -3.2020 N   0  0  0  0  0  0  0  0  0  0  0  0
    3.2534    1.9183   -3.2035 C   0  0  0  0  0  0  0  0  0  0  0  0
    3.4116    4.2066   -4.2631 C   0  0  0  0  0  0  0  0  0  0  0  0
    3.5104    5.4335   -4.1009 O   0  0  0  0  0  0  0  0  0  0  0  0
    3.3255    3.6195   -5.6676 C   0  0  2  0  0  0  0  0  0  0  0  0
    2.6316    2.7655   -5.6607 H   0  0  0  0  0  0  0  0  0  0  0  0
    4.7228    3.1348   -6.0938 C   0  0  0  0  0  0  0  0  0  0  0  0
    2.7729    4.6592   -6.6437 C   0  0  0  0  0  0  0  0  0  0  0  0
    1.0479    5.1741   -6.2960 S   0  0  0  0  0  0  0  0  0  0  0  0
   -0.3967   -0.2579   -1.2308 H   0  0  0  0  0  0  0  0  0  0  0  0
    2.9721    0.2343    1.4068 H   0  0  0  0  0  0  0  0  0  0  0  0
    1.4303    0.3193    3.3675 H   0  0  0  0  0  0  0  0  0  0  0  0
   -1.0317    0.1306    3.0237 H   0  0  0  0  0  0  0  0  0  0  0  0
   -1.9474   -0.1570    0.7226 H   0  0  0  0  0  0  0  0  0  0  0  0
    3.8785    2.2913   -0.4734 H   0  0  0  0  0  0  0  0  0  0  0  0
    2.2680    2.9707   -0.1694 H   0  0  0  0  0  0  0  0  0  0  0  0
    4.5013    5.7357   -2.8187 H   0  0  0  0  0  0  0  0  0  0  0  0
    2.7673    1.5670   -4.1201 H   0  0  0  0  0  0  0  0  0  0  0  0
    4.2291    1.4086   -3.1089 H   0  0  0  0  0  0  0  0  0  0  0  0
    4.6915    2.7221   -7.1136 H   0  0  0  0  0  0  0  0  0  0  0  0
    5.1056    2.3516   -5.4224 H   0  0  0  0  0  0  0  0  0  0  0  0
    5.4397    3.9704   -6.0816 H   0  0  0  0  0  0  0  0  0  0  0  0
    3.4166    5.5488   -6.6629 H   0  0  0  0  0  0  0  0  0  0  0  0
    2.7526    4.2316   -7.6569 H   0  0  0  0  0  0  0  0  0  0  0  0
    1.3595    5.9557   -5.2378 H   0  0  0  0  0  0  0  0  0  0  0  0
  1  2  2  0
  1  6  1  0
  1 25  1  0
  2  3  1  0
  2  7  1  0
  3  4  2  0
  3 26  1  0
  4  5  1  0
  4 27  1  0
  5  6  2  0
  5 28  1  0
  6 29  1  0
  7  8  1  0
  8  9  1  6
  8 10  1  0
  8 17  1  0
 10 11  1  0
 10 30  1  0
 10 31  1  0
 11 12  1  6
 11 13  1  0
 11 16  1  0
 13 14  2  0
 13 15  1  0
 15 32  1  0
 16 17  1  0
 16 18  1  0
 17 33  1  0
 17 34  1  0
 18 19  2  0
 18 20  1  0
 20 21  1  1
 20 22  1  0
 20 23  1  0
 22 35  1  0
 22 36  1  0
 22 37  1  0
 23 24  1  0
 23 38  1  0
 23 39  1  0
 24 40  1  0
M  END

