40

C          0.30410       -0.89750       -0.30910
C          1.53540       -0.27470       -0.05670
C          1.94140       -0.05390        1.26830
C          1.11140       -0.42840        2.32760
C         -0.12520       -1.02760        2.07060
C         -0.52590       -1.26380        0.75280
S          2.60380        0.20100       -1.41310
C          1.97120        1.87900       -1.80470
H          2.62120        2.19310       -2.63730
C          0.49910        1.98640       -2.20980
C          0.12570        3.45550       -1.97090
H          0.11160        4.05200       -2.89860
C         -1.26810        3.60670       -1.30660
O         -1.95220        2.65640       -1.02270
O         -1.65420        4.85820       -1.09850
N          1.22090        3.98380       -1.12000
C          2.09680        2.90020       -0.67250
C          1.40970        5.31340       -0.98450
O          0.59410        6.12030       -1.46060
C          2.61300        5.81040       -0.19100
H          3.48210        5.17450       -0.41730
C          2.29380        5.71720        1.31180
C          2.96420        7.24170       -0.59990
S          3.51020        7.41310       -2.34180
H          0.00240       -1.09050       -1.33990
H          2.91230        0.40800        1.45910
H          1.43210       -0.25210        3.35710
H         -0.77640       -1.31470        2.89950
H         -1.48950       -1.73570        0.54850
H         -0.13300        1.36780       -1.55880
H          0.32450        1.67210       -3.24690
H         -0.91910        5.48470       -1.34320
H          3.12730        3.24130       -0.52490
H          1.72920        2.47420        0.27600
H          3.14140        6.08760        1.90830
H          2.08740        4.68170        1.62150
H          1.40870        6.32530        1.55530
H          2.11230        7.91190       -0.42270
H          3.80900        7.59670        0.00830
H          2.27440        7.28450       -2.87470
