40
rmsd173.gzmat
C          0.00000        0.00000        0.00000
C          1.39350        0.00000        0.00000
C          2.10620        0.00000        1.19750
C          1.41390       -0.00890        2.40770
C          0.02040       -0.00780        2.41580
C         -0.68590        0.00040        1.21330
S          2.30720       -0.06590       -1.52220
C          1.83780        1.52700       -2.32040
H          0.75750        1.47830       -2.58370
C          2.11870        2.76600       -1.46100
C          2.55120        3.86860       -2.45220
H          1.74640        4.64300       -2.57430
C          3.83180        4.57660       -1.96550
O          4.42340        4.29850       -0.95910
O          4.24410        5.60880       -2.71840
N          2.79510        3.18860       -3.73680
C          2.68830        1.72530       -3.59110
C          2.78670        3.87550       -4.92370
O          2.76590        5.10330       -4.88980
C          2.86870        3.11130       -6.23460
H          2.22930        2.19190       -6.19480
C          4.32840        2.70220       -6.45250
C          2.39270        4.00940       -7.37570
S          0.62290        4.45840       -7.20070
H         -0.56450       -0.00980       -0.93240
H          3.19870        0.00720        1.20510
H          1.96450       -0.01590        3.34790
H         -0.51780       -0.01610        3.36290
H         -1.77480        0.00130        1.22280
H          2.91940        2.58260       -0.70870
H          1.23590        3.07460       -0.87540
H          3.74200        5.69790       -3.58850
H          2.21820        1.25730       -4.48100
H          3.71810        1.30500       -3.49140
H          4.44970        2.14420       -7.38910
H          4.70200        2.06450       -5.64140
H          4.99190        3.57750       -6.50670
H          3.01150        4.92800       -7.43410
H          2.50100        3.49340       -8.34900
H          0.72940        5.43250       -6.28140
