
     RDKit          3D

 40 41  0  0  0  0  0  0  0  0999 V2000
    0.1448   -0.5007   -0.4292 C   0  0  0  0  0  0  0  0  0  0  0  0
    1.4445   -0.0861   -0.1043 C   0  0  0  0  0  0  0  0  0  0  0  0
    1.7779    0.1507    1.2390 C   0  0  0  0  0  0  0  0  0  0  0  0
    0.8079    0.0229    2.2352 C   0  0  0  0  0  0  0  0  0  0  0  0
   -0.4939   -0.3588    1.9003 C   0  0  0  0  0  0  0  0  0  0  0  0
   -0.8207   -0.6302    0.5701 C   0  0  0  0  0  0  0  0  0  0  0  0
    2.6638    0.1278   -1.3982 S   0  0  0  0  0  0  0  0  0  0  0  0
    2.4469    1.9141   -1.7883 C   0  0  1  0  0  0  0  0  0  0  0  0
    3.1205    2.0588   -2.6446 H   0  0  0  0  0  0  0  0  0  0  0  0
    1.0165    2.3782   -2.1599 C   0  0  0  0  0  0  0  0  0  0  0  0
    0.7287    3.5732   -1.2337 C   0  0  1  0  0  0  0  0  0  0  0  0
    0.2284    4.4055   -1.7488 H   0  0  0  0  0  0  0  0  0  0  0  0
   -0.1711    3.1935   -0.0447 C   0  0  0  0  0  0  0  0  0  0  0  0
   -1.1600    2.5247   -0.1684 O   0  0  0  0  0  0  0  0  0  0  0  0
    0.2135    3.7001    1.1366 O   0  0  0  0  0  0  0  0  0  0  0  0
    2.0475    4.0417   -0.7902 N   0  0  0  0  0  0  0  0  0  0  0  0
    2.9012    2.8535   -0.6523 C   0  0  0  0  0  0  0  0  0  0  0  0
    2.4496    5.3194   -1.1366 C   0  0  0  0  0  0  0  0  0  0  0  0
    1.6729    6.1184   -1.6335 O   0  0  0  0  0  0  0  0  0  0  0  0
    3.8903    5.7361   -0.8424 C   0  0  2  0  0  0  0  0  0  0  0  0
    4.4420    4.9199   -0.3584 H   0  0  0  0  0  0  0  0  0  0  0  0
    3.8846    6.9543    0.0907 C   0  0  0  0  0  0  0  0  0  0  0  0
    4.5798    6.0734   -2.1713 C   0  0  0  0  0  0  0  0  0  0  0  0
    4.5764    4.7099   -3.4066 S   0  0  0  0  0  0  0  0  0  0  0  0
   -0.1049   -0.7096   -1.4708 H   0  0  0  0  0  0  0  0  0  0  0  0
    2.8023    0.4271    1.4961 H   0  0  0  0  0  0  0  0  0  0  0  0
    1.0702    0.2229    3.2767 H   0  0  0  0  0  0  0  0  0  0  0  0
   -1.2553   -0.4457    2.6786 H   0  0  0  0  0  0  0  0  0  0  0  0
   -1.8370   -0.9286    0.3050 H   0  0  0  0  0  0  0  0  0  0  0  0
    0.2553    1.6029   -2.0193 H   0  0  0  0  0  0  0  0  0  0  0  0
    0.9841    2.6943   -3.2115 H   0  0  0  0  0  0  0  0  0  0  0  0
    1.0474    4.1813    0.9854 H   0  0  0  0  0  0  0  0  0  0  0  0
    3.9637    3.0962   -0.7330 H   0  0  0  0  0  0  0  0  0  0  0  0
    2.7136    2.3919    0.3279 H   0  0  0  0  0  0  0  0  0  0  0  0
    4.9097    7.3190    0.2588 H   0  0  0  0  0  0  0  0  0  0  0  0
    3.4494    6.7015    1.0702 H   0  0  0  0  0  0  0  0  0  0  0  0
    3.2856    7.7648   -0.3493 H   0  0  0  0  0  0  0  0  0  0  0  0
    4.1079    6.9552   -2.6266 H   0  0  0  0  0  0  0  0  0  0  0  0
    5.6398    6.3094   -1.9966 H   0  0  0  0  0  0  0  0  0  0  0  0
    3.3028    4.8967   -3.8227 H   0  0  0  0  0  0  0  0  0  0  0  0
  1  2  2  0
  1  6  1  0
  1 25  1  0
  2  3  1  0
  2  7  1  0
  3  4  2  0
  3 26  1  0
  4  5  1  0
  4 27  1  0
  5  6  2  0
  5 28  1  0
  6 29  1  0
  7  8  1  0
  8  9  1  6
  8 10  1  0
  8 17  1  0
 10 11  1  0
 10 30  1  0
 10 31  1  0
 11 12  1  6
 11 13  1  0
 11 16  1  0
 13 14  2  0
 13 15  1  0
 15 32  1  0
 16 17  1  0
 16 18  1  0
 17 33  1  0
 17 34  1  0
 18 19  2  0
 18 20  1  0
 20 21  1  1
 20 22  1  0
 20 23  1  0
 22 35  1  0
 22 36  1  0
 22 37  1  0
 23 24  1  0
 23 38  1  0
 23 39  1  0
 24 40  1  0
M  END

