rmsd91.gzmat
 OpenBabel08211713403D

 46 48  0  0  0  0  0  0  0  0999 V2000
    0.0000    0.0000    0.0000 C   0  0  0  0  0  0  0  0  0  0  0  0
    1.4884    0.0000    0.0000 C   0  0  0  0  0  0  0  0  0  0  0  0
    2.1888    0.0000    1.2088 C   0  0  0  0  0  0  0  0  0  0  0  0
    3.5823   -0.0078    1.2091 C   0  0  0  0  0  0  0  0  0  0  0  0
    4.2821   -0.0122    0.0044 C   0  0  0  0  0  0  0  0  0  0  0  0
    3.5847   -0.0270   -1.2031 C   0  0  0  0  0  0  0  0  0  0  0  0
    2.1932   -0.0308   -1.2072 C   0  0  0  0  0  0  0  0  0  0  0  0
   -0.7088    1.5199   -0.6659 S   0  0  0  0  0  0  0  0  0  0  0  0
   -0.5639    1.5568   -2.3202 N   0  0  0  0  0  0  0  0  0  0  0  0
   -1.4286    0.7921   -3.0312 N   0  0  0  0  0  0  0  0  0  0  0  0
   -2.3431    1.4385   -3.9447 C   0  0  0  0  0  0  0  0  0  0  0  0
   -2.7665    2.5496   -3.8356 O   0  0  0  0  0  0  0  0  0  0  0  0
   -2.6721    0.3980   -4.9706 C   0  0  0  0  0  0  0  0  0  0  0  0
   -1.8932   -0.7528   -4.7196 C   0  0  0  0  0  0  0  0  0  0  0  0
   -1.9897   -1.8700   -5.5149 C   0  0  0  0  0  0  0  0  0  0  0  0
   -2.8940   -1.8271   -6.5923 C   0  0  0  0  0  0  0  0  0  0  0  0
   -3.6618   -0.6965   -6.8379 C   0  0  0  0  0  0  0  0  0  0  0  0
   -3.5609    0.4434   -6.0182 C   0  0  0  0  0  0  0  0  0  0  0  0
   -1.0426   -0.4979   -3.5201 C   0  0  0  0  0  0  0  0  0  0  0  0
   -0.2591   -1.2282   -2.9759 O   0  0  0  0  0  0  0  0  0  0  0  0
   -1.9855    1.6671   -0.0090 O   0  0  0  0  0  0  0  0  0  0  0  0
    0.3787    2.8868   -0.2445 C   0  0  0  0  0  0  0  0  0  0  0  0
    0.5179    3.0941    1.2239 C   0  0  0  0  0  0  0  0  0  0  0  0
   -0.5944    3.4117    2.0088 C   0  0  0  0  0  0  0  0  0  0  0  0
   -0.4453    3.6169    3.3779 C   0  0  0  0  0  0  0  0  0  0  0  0
    0.8122    3.5152    3.9704 C   0  0  0  0  0  0  0  0  0  0  0  0
    1.9244    3.2111    3.1878 C   0  0  0  0  0  0  0  0  0  0  0  0
    1.7790    3.0029    1.8184 C   0  0  0  0  0  0  0  0  0  0  0  0
   -0.3694   -0.8650   -0.6077 H   0  0  0  0  0  0  0  0  0  0  0  0
   -0.4145   -0.1889    1.0131 H   0  0  0  0  0  0  0  0  0  0  0  0
    1.6509    0.0074    2.1551 H   0  0  0  0  0  0  0  0  0  0  0  0
    4.1237   -0.0142    2.1522 H   0  0  0  0  0  0  0  0  0  0  0  0
    5.3693   -0.0119    0.0059 H   0  0  0  0  0  0  0  0  0  0  0  0
    4.1280   -0.0435   -2.1459 H   0  0  0  0  0  0  0  0  0  0  0  0
    1.6513   -0.0682   -2.1594 H   0  0  0  0  0  0  0  0  0  0  0  0
   -1.3872   -2.7573   -5.3216 H   0  0  0  0  0  0  0  0  0  0  0  0
   -2.9864   -2.6992   -7.2393 H   0  0  0  0  0  0  0  0  0  0  0  0
   -4.3568   -0.6838   -7.6776 H   0  0  0  0  0  0  0  0  0  0  0  0
   -4.1666    1.3287   -6.2105 H   0  0  0  0  0  0  0  0  0  0  0  0
   -0.0163    3.8157   -0.7254 H   0  0  0  0  0  0  0  0  0  0  0  0
    1.3664    2.7450   -0.7407 H   0  0  0  0  0  0  0  0  0  0  0  0
   -1.5883    3.4890    1.5576 H   0  0  0  0  0  0  0  0  0  0  0  0
   -1.3153    3.8572    3.9864 H   0  0  0  0  0  0  0  0  0  0  0  0
    0.9263    3.6747    5.0400 H   0  0  0  0  0  0  0  0  0  0  0  0
    2.9079    3.1369    3.6467 H   0  0  0  0  0  0  0  0  0  0  0  0
    2.6544    2.7635    1.2156 H   0  0  0  0  0  0  0  0  0  0  0  0
  1  2  1  0  0  0  0
  1 30  1  0  0  0  0
  2  3  2  0  0  0  0
  3  4  1  0  0  0  0
  3 31  1  0  0  0  0
  4 32  1  0  0  0  0
  5 33  1  0  0  0  0
  5  4  2  0  0  0  0
  6  5  1  0  0  0  0
  7  6  2  0  0  0  0
  7  2  1  0  0  0  0
  8 22  1  0  0  0  0
  8 21  2  0  0  0  0
  8  1  1  0  0  0  0
 10  9  1  0  0  0  0
 11 12  2  0  0  0  0
 11 10  1  0  0  0  0
 13 14  1  0  0  0  0
 13 11  1  0  0  0  0
 14 19  1  0  0  0  0
 15 36  1  0  0  0  0
 15 14  2  0  0  0  0
 16 15  1  0  0  0  0
 17 16  2  0  0  0  0
 17 18  1  0  0  0  0
 18 13  2  0  0  0  0
 19 10  1  0  0  0  0
 19 20  2  0  0  0  0
 22 23  1  0  0  0  0
 23 28  2  0  0  0  0
 23 24  1  0  0  0  0
 24 25  2  0  0  0  0
 25 26  1  0  0  0  0
 25 43  1  0  0  0  0
 26 44  1  0  0  0  0
 27 45  1  0  0  0  0
 27 26  2  0  0  0  0
 28 27  1  0  0  0  0
 29  1  1  0  0  0  0
 34  6  1  0  0  0  0
 35  7  1  0  0  0  0
 37 16  1  0  0  0  0
 38 17  1  0  0  0  0
 39 18  1  0  0  0  0
 40 22  1  0  0  0  0
 41 22  1  0  0  0  0
 42 24  1  0  0  0  0
 46 28  1  0  0  0  0
M  RAD  1   9   3
M  END
$$$$
