46
rmsd71.gzmat
C          0.00000        0.00000        0.00000
C          1.48860        0.00000        0.00000
C          2.18900        0.00000        1.20880
C          3.58260       -0.01260        1.20910
C          4.28250       -0.02760        0.00450
C          3.58500       -0.04260       -1.20290
C          2.19340       -0.03610       -1.20710
S         -0.71290        1.52560       -0.64660
N         -0.55330        1.59220       -2.29920
N         -1.41650        0.84220       -3.02740
C         -2.33130        1.50100       -3.93100
O         -2.74670        2.61430       -3.81160
C         -2.67420        0.46830       -4.96080
C         -1.90580       -0.69140       -4.71770
C         -2.02060       -1.80690       -5.51310
C         -2.92910       -1.75080       -6.58640
C         -3.68560       -0.61100       -6.82540
C         -3.56820        0.52550       -6.00350
C         -1.04360       -0.44760       -3.52390
O         -0.25840       -1.18540       -2.99210
O         -1.99940        1.64870       -0.00320
C          0.35720        2.89110       -0.17860
C          0.50160        3.04700        1.29620
C          1.77230        2.98670        1.87520
C          1.92450        3.14520        3.25050
C          0.80930        3.36720        4.05610
C         -0.45790        3.43860        3.47990
C         -0.61350        3.28500        2.10460
H         -0.36790       -0.85880       -0.61710
H         -0.41410       -0.20110        1.01070
H          1.65210        0.01020        2.15610
H          4.12410       -0.01600        2.15230
H          5.36990       -0.03480        0.00600
H          4.12890       -0.06750       -2.14550
H          1.65200       -0.06880       -2.15970
H         -1.43030       -2.70290       -5.32210
H         -3.03500       -2.62000       -7.23520
H         -4.38440       -0.58870       -7.66180
H         -4.16460        1.41840       -6.19200
H         -0.05310        3.83160       -0.62260
H          1.34520        2.78050       -0.68270
H          2.65080        2.81030        1.25490
H          2.91570        3.09490        3.69640
H          0.92810        3.48670        5.13070
H         -1.33080        3.61590        4.10600
H         -1.61560        3.34160        1.66720
