46

C         -0.04960       -0.04610       -0.04560
C          1.43020        0.04890        0.18640
C          1.94370        0.28760        1.47180
C          3.32290        0.37090        1.67180
C          4.20310        0.20470        0.59830
C          3.69820       -0.04490       -0.68080
C          2.31880       -0.11730       -0.88540
S         -0.98300        1.41280        0.51050
N         -2.42560        1.05380       -0.07710
N         -3.43740        1.62720        0.66770
C         -3.88990        2.94140        0.52190
O         -3.39660        3.77810       -0.20570
C         -5.04660        3.06760        1.45680
C         -5.19740        1.85370        2.13850
C         -6.19130        1.67800        3.09060
C         -7.04460        2.76320        3.34640
C         -6.89300        3.97800        2.66460
C         -5.88250        4.14760        1.70500
C         -4.14430        0.90510        1.65900
O         -3.91210       -0.22380        2.00430
O         -0.83050        1.67300        1.96010
C         -0.21050        2.86220       -0.33700
C         -0.10830        2.71470       -1.82320
C         -1.26180        2.74570       -2.62430
C         -1.15790        2.57410       -4.00560
C          0.09150        2.37890       -4.60300
C          1.24420        2.36440       -3.81270
C          1.14330        2.52990       -2.42980
H         -0.32050       -0.17580       -1.10100
H         -0.54500       -0.83290        0.54400
H          1.25590        0.42450        2.30770
H          3.71230        0.56230        2.67440
H          5.28200        0.26550        0.75930
H          4.37980       -0.18110       -1.52370
H          1.92430       -0.29880       -1.88730
H         -6.29600        0.72740        3.61720
H         -7.83880        2.66170        4.08970
H         -7.57150        4.80520        2.88600
H         -5.75100        5.08970        1.16930
H          0.76260        2.98200        0.15760
H         -0.89400        3.66620       -0.02900
H         -2.23020        2.90800       -2.15090
H         -2.06010        2.59830       -4.62130
H          0.16750        2.24680       -5.68510
H          2.22550        2.22620       -4.27310
H          2.04380        2.51810       -1.81270
