rmsd109.gzmat
 OpenBabel08211713403D

 46 48  0  0  0  0  0  0  0  0999 V2000
    0.0000    0.0000    0.0000 C   0  0  0  0  0  0  0  0  0  0  0  0
    1.4884    0.0000    0.0000 C   0  0  0  0  0  0  0  0  0  0  0  0
    2.1880    0.0000    1.2093 C   0  0  0  0  0  0  0  0  0  0  0  0
    3.5813   -0.0149    1.2113 C   0  0  0  0  0  0  0  0  0  0  0  0
    4.2823   -0.0299    0.0073 C   0  0  0  0  0  0  0  0  0  0  0  0
    3.5861   -0.0407   -1.2008 C   0  0  0  0  0  0  0  0  0  0  0  0
    2.1944   -0.0319   -1.2069 C   0  0  0  0  0  0  0  0  0  0  0  0
   -0.7079    1.5515   -0.5869 S   0  0  0  0  0  0  0  0  0  0  0  0
   -0.5379    1.6857   -2.2337 N   0  0  0  0  0  0  0  0  0  0  0  0
   -1.4122    0.9915   -3.0030 N   0  0  0  0  0  0  0  0  0  0  0  0
   -1.0651   -0.2881   -3.5451 C   0  0  0  0  0  0  0  0  0  0  0  0
   -0.3245   -1.0747   -3.0194 O   0  0  0  0  0  0  0  0  0  0  0  0
   -1.8905   -0.4500   -4.7780 C   0  0  0  0  0  0  0  0  0  0  0  0
   -2.6145    0.7434   -4.9924 C   0  0  0  0  0  0  0  0  0  0  0  0
   -3.4654    0.8792   -6.0635 C   0  0  0  0  0  0  0  0  0  0  0  0
   -3.5853   -0.2132   -6.9432 C   0  0  0  0  0  0  0  0  0  0  0  0
   -2.8708   -1.3855   -6.7337 C   0  0  0  0  0  0  0  0  0  0  0  0
   -2.0055   -1.5210   -5.6323 C   0  0  0  0  0  0  0  0  0  0  0  0
   -2.2758    1.7180   -3.9059 C   0  0  0  0  0  0  0  0  0  0  0  0
   -2.6589    2.8388   -3.7529 O   0  0  0  0  0  0  0  0  0  0  0  0
   -1.9962    1.6524    0.0565 O   0  0  0  0  0  0  0  0  0  0  0  0
    0.3672    2.8927   -0.0614 C   0  0  0  0  0  0  0  0  0  0  0  0
    0.4829    3.0105    1.4191 C   0  0  0  0  0  0  0  0  0  0  0  0
   -0.6465    3.2357    2.2111 C   0  0  0  0  0  0  0  0  0  0  0  0
   -0.5183    3.3455    3.5934 C   0  0  0  0  0  0  0  0  0  0  0  0
    0.7367    3.2490    4.1921 C   0  0  0  0  0  0  0  0  0  0  0  0
    1.8674    3.0480    3.4024 C   0  0  0  0  0  0  0  0  0  0  0  0
    1.7421    2.9293    2.0205 C   0  0  0  0  0  0  0  0  0  0  0  0
   -0.3711   -0.8341   -0.6489 H   0  0  0  0  0  0  0  0  0  0  0  0
   -0.4132   -0.2402    1.0027 H   0  0  0  0  0  0  0  0  0  0  0  0
    1.6490    0.0143    2.1555 H   0  0  0  0  0  0  0  0  0  0  0  0
    4.1217   -0.0177    2.1553 H   0  0  0  0  0  0  0  0  0  0  0  0
    5.3697   -0.0398    0.0096 H   0  0  0  0  0  0  0  0  0  0  0  0
    4.1311   -0.0635   -2.1427 H   0  0  0  0  0  0  0  0  0  0  0  0
    1.6537   -0.0578   -2.1596 H   0  0  0  0  0  0  0  0  0  0  0  0
   -4.0259    1.7995   -6.2306 H   0  0  0  0  0  0  0  0  0  0  0  0
   -4.2515   -0.1298   -7.8019 H   0  0  0  0  0  0  0  0  0  0  0  0
   -2.9769   -2.2184   -7.4287 H   0  0  0  0  0  0  0  0  0  0  0  0
   -1.4470   -2.4418   -5.4661 H   0  0  0  0  0  0  0  0  0  0  0  0
   -0.0219    3.8493   -0.4897 H   0  0  0  0  0  0  0  0  0  0  0  0
    1.3635    2.7838   -0.5492 H   0  0  0  0  0  0  0  0  0  0  0  0
   -1.6384    3.3175    1.7552 H   0  0  0  0  0  0  0  0  0  0  0  0
   -1.4031    3.5068    4.2071 H   0  0  0  0  0  0  0  0  0  0  0  0
    0.8345    3.3329    5.2721 H   0  0  0  0  0  0  0  0  0  0  0  0
    2.8498    2.9861    3.8653 H   0  0  0  0  0  0  0  0  0  0  0  0
    2.6317    2.7698    1.4118 H   0  0  0  0  0  0  0  0  0  0  0  0
  1  2  1  0  0  0  0
  1 30  1  0  0  0  0
  2  3  2  0  0  0  0
  3  4  1  0  0  0  0
  3 31  1  0  0  0  0
  4 32  1  0  0  0  0
  5 33  1  0  0  0  0
  5  4  2  0  0  0  0
  6  5  1  0  0  0  0
  7  6  2  0  0  0  0
  7  2  1  0  0  0  0
  8 22  1  0  0  0  0
  8  1  1  0  0  0  0
  8 21  2  0  0  0  0
 10  9  1  0  0  0  0
 11 12  2  0  0  0  0
 11 10  1  0  0  0  0
 13 11  1  0  0  0  0
 14 13  1  0  0  0  0
 14 19  1  0  0  0  0
 15 14  2  0  0  0  0
 16 17  2  0  0  0  0
 16 15  1  0  0  0  0
 17 18  1  0  0  0  0
 18 39  1  0  0  0  0
 18 13  2  0  0  0  0
 19 20  2  0  0  0  0
 19 10  1  0  0  0  0
 22 23  1  0  0  0  0
 23 28  2  0  0  0  0
 23 24  1  0  0  0  0
 24 25  2  0  0  0  0
 25 26  1  0  0  0  0
 25 43  1  0  0  0  0
 26 44  1  0  0  0  0
 27 45  1  0  0  0  0
 27 26  2  0  0  0  0
 28 27  1  0  0  0  0
 29  1  1  0  0  0  0
 34  6  1  0  0  0  0
 35  7  1  0  0  0  0
 36 15  1  0  0  0  0
 37 16  1  0  0  0  0
 38 17  1  0  0  0  0
 40 22  1  0  0  0  0
 41 22  1  0  0  0  0
 42 24  1  0  0  0  0
 46 28  1  0  0  0  0
M  RAD  1   9   3
M  END
$$$$
