46
rmsd44.gzmat
C          0.00000        0.00000        0.00000
C          1.48800        0.00000        0.00000
C          2.18840        0.00000        1.20870
C          3.58170       -0.01750        1.20930
C          4.28110       -0.03350        0.00460
C          3.58360       -0.04110       -1.20290
C          2.19210       -0.03150       -1.20750
S         -0.71060        1.55020       -0.59010
N         -0.64290        1.63310       -2.24770
N         -1.52610        0.86730       -2.93460
C         -1.12580       -0.38210       -3.51000
O         -0.27680       -1.10220       -3.05870
C         -2.05360       -0.62110       -4.65500
C         -2.89660        0.50320       -4.79200
C         -3.86850        0.55380       -5.76270
C         -3.99020       -0.55430       -6.62200
C         -3.15770       -1.65790       -6.49060
C         -2.16890       -1.70690       -5.49070
C         -2.53150        1.51270       -3.74760
O         -2.98960        2.59860       -3.55580
O         -1.95350        1.69550        0.12890
C          0.41600        2.88950       -0.18350
C          0.57590        3.10340        1.28200
C         -0.52170        3.43520        2.08100
C         -0.35000        3.65240        3.44570
C          0.91600        3.55120        4.01980
C          2.01370        3.23290        3.22310
C          1.84510        3.01060        1.85850
H         -0.37120       -0.83430       -0.64730
H         -0.41230       -0.23680        1.00420
H          1.65070        0.01410        2.15530
H          4.12340       -0.02090        2.15260
H          5.36840       -0.04630        0.00580
H          4.12820       -0.06210       -2.14490
H          1.64930       -0.06010       -2.15950
H         -4.52330        1.41920       -5.86610
H         -4.75280       -0.53840       -7.40060
H         -3.26670       -2.50460       -7.16780
H         -1.52000       -2.57580       -5.38490
H          0.04100        3.82630       -0.66560
H          1.39520        2.71830       -0.68700
H         -1.52250        3.51580        1.64520
H         -1.20950        3.90350        4.06470
H          1.04750        3.72260        5.08580
H          3.00440        3.16020        3.66620
H          2.70970        2.76110        1.24420
