rmsd44.gzmat
 OpenBabel08211713403D

 46 48  0  0  0  0  0  0  0  0999 V2000
    0.0000    0.0000    0.0000 C   0  0  0  0  0  0  0  0  0  0  0  0
    1.4880    0.0000    0.0000 C   0  0  0  0  0  0  0  0  0  0  0  0
    2.1884    0.0000    1.2087 C   0  0  0  0  0  0  0  0  0  0  0  0
    3.5817   -0.0175    1.2093 C   0  0  0  0  0  0  0  0  0  0  0  0
    4.2811   -0.0335    0.0046 C   0  0  0  0  0  0  0  0  0  0  0  0
    3.5836   -0.0411   -1.2029 C   0  0  0  0  0  0  0  0  0  0  0  0
    2.1921   -0.0315   -1.2075 C   0  0  0  0  0  0  0  0  0  0  0  0
   -0.7106    1.5502   -0.5901 S   0  0  0  0  0  0  0  0  0  0  0  0
   -0.6429    1.6331   -2.2477 N   0  0  0  0  0  0  0  0  0  0  0  0
   -1.5261    0.8673   -2.9346 N   0  0  0  0  0  0  0  0  0  0  0  0
   -1.1258   -0.3821   -3.5100 C   0  0  0  0  0  0  0  0  0  0  0  0
   -0.2768   -1.1022   -3.0587 O   0  0  0  0  0  0  0  0  0  0  0  0
   -2.0536   -0.6211   -4.6550 C   0  0  0  0  0  0  0  0  0  0  0  0
   -2.8966    0.5032   -4.7920 C   0  0  0  0  0  0  0  0  0  0  0  0
   -3.8685    0.5538   -5.7627 C   0  0  0  0  0  0  0  0  0  0  0  0
   -3.9902   -0.5543   -6.6220 C   0  0  0  0  0  0  0  0  0  0  0  0
   -3.1577   -1.6579   -6.4906 C   0  0  0  0  0  0  0  0  0  0  0  0
   -2.1689   -1.7069   -5.4907 C   0  0  0  0  0  0  0  0  0  0  0  0
   -2.5315    1.5127   -3.7476 C   0  0  0  0  0  0  0  0  0  0  0  0
   -2.9896    2.5986   -3.5558 O   0  0  0  0  0  0  0  0  0  0  0  0
   -1.9535    1.6955    0.1289 O   0  0  0  0  0  0  0  0  0  0  0  0
    0.4160    2.8895   -0.1835 C   0  0  0  0  0  0  0  0  0  0  0  0
    0.5759    3.1034    1.2820 C   0  0  0  0  0  0  0  0  0  0  0  0
   -0.5217    3.4352    2.0810 C   0  0  0  0  0  0  0  0  0  0  0  0
   -0.3500    3.6524    3.4457 C   0  0  0  0  0  0  0  0  0  0  0  0
    0.9160    3.5512    4.0198 C   0  0  0  0  0  0  0  0  0  0  0  0
    2.0137    3.2329    3.2231 C   0  0  0  0  0  0  0  0  0  0  0  0
    1.8451    3.0106    1.8585 C   0  0  0  0  0  0  0  0  0  0  0  0
   -0.3712   -0.8343   -0.6473 H   0  0  0  0  0  0  0  0  0  0  0  0
   -0.4123   -0.2368    1.0042 H   0  0  0  0  0  0  0  0  0  0  0  0
    1.6507    0.0141    2.1553 H   0  0  0  0  0  0  0  0  0  0  0  0
    4.1234   -0.0209    2.1526 H   0  0  0  0  0  0  0  0  0  0  0  0
    5.3684   -0.0463    0.0058 H   0  0  0  0  0  0  0  0  0  0  0  0
    4.1282   -0.0621   -2.1449 H   0  0  0  0  0  0  0  0  0  0  0  0
    1.6493   -0.0601   -2.1595 H   0  0  0  0  0  0  0  0  0  0  0  0
   -4.5233    1.4192   -5.8661 H   0  0  0  0  0  0  0  0  0  0  0  0
   -4.7528   -0.5384   -7.4006 H   0  0  0  0  0  0  0  0  0  0  0  0
   -3.2667   -2.5046   -7.1678 H   0  0  0  0  0  0  0  0  0  0  0  0
   -1.5200   -2.5758   -5.3849 H   0  0  0  0  0  0  0  0  0  0  0  0
    0.0410    3.8263   -0.6656 H   0  0  0  0  0  0  0  0  0  0  0  0
    1.3952    2.7183   -0.6870 H   0  0  0  0  0  0  0  0  0  0  0  0
   -1.5225    3.5158    1.6452 H   0  0  0  0  0  0  0  0  0  0  0  0
   -1.2095    3.9035    4.0647 H   0  0  0  0  0  0  0  0  0  0  0  0
    1.0475    3.7226    5.0858 H   0  0  0  0  0  0  0  0  0  0  0  0
    3.0044    3.1602    3.6662 H   0  0  0  0  0  0  0  0  0  0  0  0
    2.7097    2.7611    1.2442 H   0  0  0  0  0  0  0  0  0  0  0  0
  1  2  1  0  0  0  0
  1 30  1  0  0  0  0
  2  3  2  0  0  0  0
  3  4  1  0  0  0  0
  3 31  1  0  0  0  0
  4 32  1  0  0  0  0
  5 33  1  0  0  0  0
  5  4  2  0  0  0  0
  6  5  1  0  0  0  0
  7  6  2  0  0  0  0
  7  2  1  0  0  0  0
  8 22  1  0  0  0  0
  8  1  1  0  0  0  0
  8 21  2  0  0  0  0
 10  9  1  0  0  0  0
 11 12  2  0  0  0  0
 11 10  1  0  0  0  0
 13 11  1  0  0  0  0
 14 13  1  0  0  0  0
 14 19  1  0  0  0  0
 15 14  2  0  0  0  0
 16 17  2  0  0  0  0
 16 15  1  0  0  0  0
 17 18  1  0  0  0  0
 18 39  1  0  0  0  0
 18 13  2  0  0  0  0
 19 20  2  0  0  0  0
 19 10  1  0  0  0  0
 22 23  1  0  0  0  0
 23 28  2  0  0  0  0
 23 24  1  0  0  0  0
 24 25  2  0  0  0  0
 25 26  1  0  0  0  0
 25 43  1  0  0  0  0
 26 44  1  0  0  0  0
 27 45  1  0  0  0  0
 27 26  2  0  0  0  0
 28 27  1  0  0  0  0
 29  1  1  0  0  0  0
 34  6  1  0  0  0  0
 35  7  1  0  0  0  0
 36 15  1  0  0  0  0
 37 16  1  0  0  0  0
 38 17  1  0  0  0  0
 40 22  1  0  0  0  0
 41 22  1  0  0  0  0
 42 24  1  0  0  0  0
 46 28  1  0  0  0  0
M  RAD  1   9   3
M  END
$$$$
