rmsd71.gzmat
 OpenBabel08211713403D

 46 48  0  0  0  0  0  0  0  0999 V2000
    0.0000    0.0000    0.0000 C   0  0  0  0  0  0  0  0  0  0  0  0
    1.4886    0.0000    0.0000 C   0  0  0  0  0  0  0  0  0  0  0  0
    2.1890    0.0000    1.2088 C   0  0  0  0  0  0  0  0  0  0  0  0
    3.5826   -0.0126    1.2091 C   0  0  0  0  0  0  0  0  0  0  0  0
    4.2825   -0.0276    0.0045 C   0  0  0  0  0  0  0  0  0  0  0  0
    3.5850   -0.0426   -1.2029 C   0  0  0  0  0  0  0  0  0  0  0  0
    2.1934   -0.0361   -1.2071 C   0  0  0  0  0  0  0  0  0  0  0  0
   -0.7129    1.5256   -0.6466 S   0  0  0  0  0  0  0  0  0  0  0  0
   -0.5533    1.5922   -2.2992 N   0  0  0  0  0  0  0  0  0  0  0  0
   -1.4165    0.8422   -3.0274 N   0  0  0  0  0  0  0  0  0  0  0  0
   -2.3313    1.5010   -3.9310 C   0  0  0  0  0  0  0  0  0  0  0  0
   -2.7467    2.6143   -3.8116 O   0  0  0  0  0  0  0  0  0  0  0  0
   -2.6742    0.4683   -4.9608 C   0  0  0  0  0  0  0  0  0  0  0  0
   -1.9058   -0.6914   -4.7177 C   0  0  0  0  0  0  0  0  0  0  0  0
   -2.0206   -1.8069   -5.5131 C   0  0  0  0  0  0  0  0  0  0  0  0
   -2.9291   -1.7508   -6.5864 C   0  0  0  0  0  0  0  0  0  0  0  0
   -3.6856   -0.6110   -6.8254 C   0  0  0  0  0  0  0  0  0  0  0  0
   -3.5682    0.5255   -6.0035 C   0  0  0  0  0  0  0  0  0  0  0  0
   -1.0436   -0.4476   -3.5239 C   0  0  0  0  0  0  0  0  0  0  0  0
   -0.2584   -1.1854   -2.9921 O   0  0  0  0  0  0  0  0  0  0  0  0
   -1.9994    1.6487   -0.0032 O   0  0  0  0  0  0  0  0  0  0  0  0
    0.3572    2.8911   -0.1786 C   0  0  0  0  0  0  0  0  0  0  0  0
    0.5016    3.0470    1.2962 C   0  0  0  0  0  0  0  0  0  0  0  0
    1.7723    2.9867    1.8752 C   0  0  0  0  0  0  0  0  0  0  0  0
    1.9245    3.1452    3.2505 C   0  0  0  0  0  0  0  0  0  0  0  0
    0.8093    3.3672    4.0561 C   0  0  0  0  0  0  0  0  0  0  0  0
   -0.4579    3.4386    3.4799 C   0  0  0  0  0  0  0  0  0  0  0  0
   -0.6135    3.2850    2.1046 C   0  0  0  0  0  0  0  0  0  0  0  0
   -0.3679   -0.8588   -0.6171 H   0  0  0  0  0  0  0  0  0  0  0  0
   -0.4141   -0.2011    1.0107 H   0  0  0  0  0  0  0  0  0  0  0  0
    1.6521    0.0102    2.1561 H   0  0  0  0  0  0  0  0  0  0  0  0
    4.1241   -0.0160    2.1523 H   0  0  0  0  0  0  0  0  0  0  0  0
    5.3699   -0.0348    0.0060 H   0  0  0  0  0  0  0  0  0  0  0  0
    4.1289   -0.0675   -2.1455 H   0  0  0  0  0  0  0  0  0  0  0  0
    1.6520   -0.0688   -2.1597 H   0  0  0  0  0  0  0  0  0  0  0  0
   -1.4303   -2.7029   -5.3221 H   0  0  0  0  0  0  0  0  0  0  0  0
   -3.0350   -2.6200   -7.2352 H   0  0  0  0  0  0  0  0  0  0  0  0
   -4.3844   -0.5887   -7.6618 H   0  0  0  0  0  0  0  0  0  0  0  0
   -4.1646    1.4184   -6.1920 H   0  0  0  0  0  0  0  0  0  0  0  0
   -0.0531    3.8316   -0.6226 H   0  0  0  0  0  0  0  0  0  0  0  0
    1.3452    2.7805   -0.6827 H   0  0  0  0  0  0  0  0  0  0  0  0
    2.6508    2.8103    1.2549 H   0  0  0  0  0  0  0  0  0  0  0  0
    2.9157    3.0949    3.6964 H   0  0  0  0  0  0  0  0  0  0  0  0
    0.9281    3.4867    5.1307 H   0  0  0  0  0  0  0  0  0  0  0  0
   -1.3308    3.6159    4.1060 H   0  0  0  0  0  0  0  0  0  0  0  0
   -1.6156    3.3416    1.6672 H   0  0  0  0  0  0  0  0  0  0  0  0
  1 30  1  0  0  0  0
  2  1  1  0  0  0  0
  2  3  2  0  0  0  0
  3  4  1  0  0  0  0
  3 31  1  0  0  0  0
  4 32  1  0  0  0  0
  5 33  1  0  0  0  0
  5  4  2  0  0  0  0
  6  5  1  0  0  0  0
  7  6  2  0  0  0  0
  7  2  1  0  0  0  0
  8 22  1  0  0  0  0
  8 21  2  0  0  0  0
  8  1  1  0  0  0  0
 10  9  1  0  0  0  0
 11 12  2  0  0  0  0
 11 10  1  0  0  0  0
 13 14  1  0  0  0  0
 13 11  1  0  0  0  0
 14 19  1  0  0  0  0
 15 36  1  0  0  0  0
 15 14  2  0  0  0  0
 16 15  1  0  0  0  0
 17 16  2  0  0  0  0
 17 18  1  0  0  0  0
 18 13  2  0  0  0  0
 19 10  1  0  0  0  0
 19 20  2  0  0  0  0
 22 23  1  0  0  0  0
 23 24  2  0  0  0  0
 23 28  1  0  0  0  0
 24 25  1  0  0  0  0
 25 43  1  0  0  0  0
 25 26  2  0  0  0  0
 26 44  1  0  0  0  0
 27 26  1  0  0  0  0
 27 45  1  0  0  0  0
 28 27  2  0  0  0  0
 29  1  1  0  0  0  0
 34  6  1  0  0  0  0
 35  7  1  0  0  0  0
 37 16  1  0  0  0  0
 38 17  1  0  0  0  0
 39 18  1  0  0  0  0
 40 22  1  0  0  0  0
 41 22  1  0  0  0  0
 42 24  1  0  0  0  0
 46 28  1  0  0  0  0
M  RAD  1   9   3
M  END
$$$$
