rmsd145.gzmat
 OpenBabel08211713403D

 46 48  0  0  0  0  0  0  0  0999 V2000
    0.0000    0.0000    0.0000 C   0  0  0  0  0  0  0  0  0  0  0  0
    1.4897    0.0000    0.0000 C   0  0  0  0  0  0  0  0  0  0  0  0
    2.2055    0.0000    1.2004 C   0  0  0  0  0  0  0  0  0  0  0  0
    3.5979   -0.0196    1.1829 C   0  0  0  0  0  0  0  0  0  0  0  0
    4.2847   -0.0464   -0.0294 C   0  0  0  0  0  0  0  0  0  0  0  0
    3.5734   -0.0574   -1.2275 C   0  0  0  0  0  0  0  0  0  0  0  0
    2.1808   -0.0366   -1.2143 C   0  0  0  0  0  0  0  0  0  0  0  0
   -0.7143    1.4230    0.8332 S   0  0  1  0  0  0  0  0  0  0  0  0
   -2.3250    1.1170    0.5692 N   0  0  0  0  0  0  0  0  0  0  0  0
   -3.2176    1.8703    1.2584 N   0  0  0  0  0  0  0  0  0  0  0  0
   -4.1148    1.2135    2.1824 C   0  0  0  0  0  0  0  0  0  0  0  0
   -3.8828    0.2057    2.7794 O   0  0  0  0  0  0  0  0  0  0  0  0
   -5.3176    2.1029    2.2608 C   0  0  0  0  0  0  0  0  0  0  0  0
   -5.1623    3.1632    1.3414 C   0  0  0  0  0  0  0  0  0  0  0  0
   -6.1284    4.1303    1.1932 C   0  0  0  0  0  0  0  0  0  0  0  0
   -7.2827    4.0249    1.9908 C   0  0  0  0  0  0  0  0  0  0  0  0
   -7.4337    2.9854    2.8991 C   0  0  0  0  0  0  0  0  0  0  0  0
   -6.4396    1.9999    3.0482 C   0  0  0  0  0  0  0  0  0  0  0  0
   -3.8510    3.0008    0.6471 C   0  0  0  0  0  0  0  0  0  0  0  0
   -3.3415    3.7035   -0.1836 O   0  0  0  0  0  0  0  0  0  0  0  0
   -0.1726    1.5542    2.1648 O   0  0  0  0  0  0  0  0  0  0  0  0
   -0.1959    2.9126   -0.0414 C   0  0  0  0  0  0  0  0  0  0  0  0
   -0.0708    2.7178   -1.5116 C   0  0  0  0  0  0  0  0  0  0  0  0
   -1.2130    2.5389   -2.2980 C   0  0  0  0  0  0  0  0  0  0  0  0
   -1.0942    2.3799   -3.6752 C   0  0  0  0  0  0  0  0  0  0  0  0
    0.1630    2.4030   -4.2777 C   0  0  0  0  0  0  0  0  0  0  0  0
    1.3021    2.5897   -3.4976 C   0  0  0  0  0  0  0  0  0  0  0  0
    1.1870    2.7494   -2.1182 C   0  0  0  0  0  0  0  0  0  0  0  0
   -0.4157   -0.0741   -1.0313 H   0  0  0  0  0  0  0  0  0  0  0  0
   -0.3797   -0.9274    0.4960 H   0  0  0  0  0  0  0  0  0  0  0  0
    1.6813    0.0258    2.1610 H   0  0  0  0  0  0  0  0  0  0  0  0
    4.1504   -0.0162    2.1211 H   0  0  0  0  0  0  0  0  0  0  0  0
    5.3723   -0.0618   -0.0411 H   0  0  0  0  0  0  0  0  0  0  0  0
    4.1070   -0.0848   -2.1747 H   0  0  0  0  0  0  0  0  0  0  0  0
    1.6347   -0.0443   -2.1572 H   0  0  0  0  0  0  0  0  0  0  0  0
   -6.0082    4.9487    0.4837 H   0  0  0  0  0  0  0  0  0  0  0  0
   -8.0664    4.7751    1.8878 H   0  0  0  0  0  0  0  0  0  0  0  0
   -8.3350    2.9244    3.5092 H   0  0  0  0  0  0  0  0  0  0  0  0
   -6.5605    1.1836    3.7605 H   0  0  0  0  0  0  0  0  0  0  0  0
    0.7455    3.2967    0.4061 H   0  0  0  0  0  0  0  0  0  0  0  0
   -0.9402    3.7243    0.1609 H   0  0  0  0  0  0  0  0  0  0  0  0
   -2.2056    2.5322   -1.8336 H   0  0  0  0  0  0  0  0  0  0  0  0
   -1.9875    2.2451   -4.2821 H   0  0  0  0  0  0  0  0  0  0  0  0
    0.2534    2.2823   -5.3544 H   0  0  0  0  0  0  0  0  0  0  0  0
    2.2835    2.6149   -3.9660 H   0  0  0  0  0  0  0  0  0  0  0  0
    2.0828    2.8987   -1.5175 H   0  0  0  0  0  0  0  0  0  0  0  0
  1  2  1  0  0  0  0
  1 30  1  0  0  0  0
  1  8  1  0  0  0  0
  2  3  2  0  0  0  0
  3 31  1  0  0  0  0
  4  3  1  0  0  0  0
  4 32  1  0  0  0  0
  5  4  2  0  0  0  0
  6  7  2  0  0  0  0
  6  5  1  0  0  0  0
  7  2  1  0  0  0  0
  8 21  1  1  0  0  0
  9  8  1  0  0  0  0
  9 10  1  0  0  0  0
 10 11  1  0  0  0  0
 11 13  1  0  0  0  0
 11 12  2  0  0  0  0
 13 18  2  0  0  0  0
 14 13  1  0  0  0  0
 15 14  2  0  0  0  0
 15 16  1  0  0  0  0
 16 17  2  0  0  0  0
 17 18  1  0  0  0  0
 17 38  1  0  0  0  0
 18 39  1  0  0  0  0
 19 10  1  0  0  0  0
 19 14  1  0  0  0  0
 20 19  2  0  0  0  0
 22 41  1  0  0  0  0
 22 40  1  0  0  0  0
 22  8  1  0  0  0  0
 23 22  1  0  0  0  0
 24 42  1  0  0  0  0
 24 23  2  0  0  0  0
 25 24  1  0  0  0  0
 26 25  2  0  0  0  0
 26 27  1  0  0  0  0
 27 28  2  0  0  0  0
 28 46  1  0  0  0  0
 28 23  1  0  0  0  0
 29  1  1  0  0  0  0
 33  5  1  0  0  0  0
 34  6  1  0  0  0  0
 35  7  1  0  0  0  0
 36 15  1  0  0  0  0
 37 16  1  0  0  0  0
 43 25  1  0  0  0  0
 45 27  1  0  0  0  0
M  RAD  4   9   2  21   2  26   2  44   2
M  END
$$$$
