46
rmsd91.gzmat
C          0.00000        0.00000        0.00000
C          1.48840        0.00000        0.00000
C          2.18880        0.00000        1.20880
C          3.58230       -0.00780        1.20910
C          4.28210       -0.01220        0.00440
C          3.58470       -0.02700       -1.20310
C          2.19320       -0.03080       -1.20720
S         -0.70880        1.51990       -0.66590
N         -0.56390        1.55680       -2.32020
N         -1.42860        0.79210       -3.03120
C         -2.34310        1.43850       -3.94470
O         -2.76650        2.54960       -3.83560
C         -2.67210        0.39800       -4.97060
C         -1.89320       -0.75280       -4.71960
C         -1.98970       -1.87000       -5.51490
C         -2.89400       -1.82710       -6.59230
C         -3.66180       -0.69650       -6.83790
C         -3.56090        0.44340       -6.01820
C         -1.04260       -0.49790       -3.52010
O         -0.25910       -1.22820       -2.97590
O         -1.98550        1.66710       -0.00900
C          0.37870        2.88680       -0.24450
C          0.51790        3.09410        1.22390
C         -0.59440        3.41170        2.00880
C         -0.44530        3.61690        3.37790
C          0.81220        3.51520        3.97040
C          1.92440        3.21110        3.18780
C          1.77900        3.00290        1.81840
H         -0.36940       -0.86500       -0.60770
H         -0.41450       -0.18890        1.01310
H          1.65090        0.00740        2.15510
H          4.12370       -0.01420        2.15220
H          5.36930       -0.01190        0.00590
H          4.12800       -0.04350       -2.14590
H          1.65130       -0.06820       -2.15940
H         -1.38720       -2.75730       -5.32160
H         -2.98640       -2.69920       -7.23930
H         -4.35680       -0.68380       -7.67760
H         -4.16660        1.32870       -6.21050
H         -0.01630        3.81570       -0.72540
H          1.36640        2.74500       -0.74070
H         -1.58830        3.48900        1.55760
H         -1.31530        3.85720        3.98640
H          0.92630        3.67470        5.04000
H          2.90790        3.13690        3.64670
H          2.65440        2.76350        1.21560
