46
rmsd103.gzmat
C          0.00000        0.00000        0.00000
C          1.48830        0.00000        0.00000
C          2.18830        0.00000        1.20900
C          3.58170       -0.00860        1.21000
C          4.28180       -0.01120        0.00520
C          3.58470       -0.02320       -1.20270
C          2.19320       -0.02790       -1.20730
S         -0.70260        1.53410       -0.63670
N         -0.53250        1.60990       -2.28720
N         -1.40650        0.88920       -3.03190
C         -1.05820       -0.40540       -3.53690
O         -0.31200       -1.17290       -2.99140
C         -1.88990       -0.60600       -4.76040
C         -2.61500        0.58010       -5.00810
C         -3.46720        0.68590       -6.08130
C         -3.58840       -0.43000       -6.93040
C         -2.87620       -1.59690       -6.68650
C         -2.01010       -1.70200       -5.58210
C         -2.27560        1.58640       -3.95190
O         -2.66280        2.70940       -3.82870
O         -1.98900        1.66430        0.00520
C          0.37940        2.88720       -0.15960
C          0.53910        3.03050        1.31490
C          1.81750        2.97410        1.87770
C          1.98720        3.13360        3.25070
C          0.88170        3.34880        4.07110
C         -0.39370        3.40890        3.51270
C         -0.56680        3.25730        2.13910
H         -0.37000       -0.85350       -0.62350
H         -0.41510       -0.20750        1.00900
H          1.64990        0.00970        2.15520
H          4.12230       -0.01620        2.15390
H          5.36900       -0.01040        0.00660
H          4.12870       -0.03510       -2.14550
H          1.65170       -0.06130       -2.15960
H         -4.02750        1.60090       -6.27260
H         -4.25430       -0.36970       -7.79140
H         -2.98390       -2.44910       -7.35710
H         -1.45460       -2.61950       -5.38890
H         -0.02650        3.83540       -0.59120
H          1.36230        2.77340       -0.67340
H          2.68840        2.80010        1.24630
H          2.98440        3.09140        3.68270
H          1.01500        3.47100        5.14340
H         -1.25940        3.57670        4.15090
H         -1.57510        3.30830        1.71630
