rmsd245.gzmat
 OpenBabel08211713413D

 34 37  0  0  1  0  0  0  0  0999 V2000
    0.0000    0.0000    0.0000 N   0  0  0  0  0  0  0  0  0  0  0  0
    1.3805    0.0000    0.0000 N   0  0  0  0  0  0  0  0  0  0  0  0
    1.8313    0.0000    1.1918 N   0  0  0  0  0  0  0  0  0  0  0  0
    0.7554    0.0513    2.1063 C   0  0  0  0  0  0  0  0  0  0  0  0
   -0.4470    0.0692    1.3240 C   0  0  2  0  0  0  0  0  0  0  0  0
   -1.7078    0.1252    1.9248 C   0  0  0  0  0  0  0  0  0  0  0  0
   -1.7341    0.1571    3.3072 C   0  0  0  0  0  0  0  0  0  0  0  0
   -0.5519    0.1350    4.0832 C   0  0  0  0  0  0  0  0  0  0  0  0
    0.7018    0.0810    3.5020 C   0  0  0  0  0  0  0  0  0  0  0  0
   -0.7684    0.2154   -1.2165 C   0  0  0  0  0  0  0  0  0  0  0  0
   -1.5525    1.3759   -1.0880 O   0  0  0  0  0  0  0  0  0  0  0  0
   -0.9665    2.6082   -1.2033 C   0  0  0  0  0  0  0  0  0  0  0  0
    0.3601    2.8543   -1.4342 C   0  0  0  0  0  0  0  0  0  0  0  0
    0.7976    4.2044   -1.5266 C   0  0  0  0  0  0  0  0  0  0  0  0
   -0.1382    5.2539   -1.3926 C   0  0  0  0  0  0  0  0  0  0  0  0
   -1.5089    4.9455   -1.1507 C   0  0  0  0  0  0  0  0  0  0  0  0
   -1.9281    3.6479   -1.0535 C   0  0  0  0  0  0  0  0  0  0  0  0
    0.3058    6.5993   -1.4976 C   0  0  0  0  0  0  0  0  0  0  0  0
    1.6305    6.8780   -1.7187 C   0  0  0  0  0  0  0  0  0  0  0  0
    2.5704    5.8251   -1.8426 C   0  0  0  0  0  0  0  0  0  0  0  0
    2.1668    4.5178   -1.7491 C   0  0  0  0  0  0  0  0  0  0  0  0
   -2.6138    0.1546    1.3265 H   0  0  0  0  0  0  0  0  0  0  0  0
   -2.6941    0.2035    3.8253 H   0  0  0  0  0  0  0  0  0  0  0  0
   -0.6432    0.1648    5.1689 H   0  0  0  0  0  0  0  0  0  0  0  0
    1.6183    0.0646    4.0899 H   0  0  0  0  0  0  0  0  0  0  0  0
   -1.5572   -0.5713   -1.3173 H   0  0  0  0  0  0  0  0  0  0  0  0
   -0.0969    0.2507   -2.1044 H   0  0  0  0  0  0  0  0  0  0  0  0
    1.0988    2.0632   -1.5344 H   0  0  0  0  0  0  0  0  0  0  0  0
   -2.2167    5.7677   -1.0427 H   0  0  0  0  0  0  0  0  0  0  0  0
   -2.9661    3.3822   -0.8650 H   0  0  0  0  0  0  0  0  0  0  0  0
   -0.4242    7.4007   -1.3990 H   0  0  0  0  0  0  0  0  0  0  0  0
    1.9790    7.9051   -1.7991 H   0  0  0  0  0  0  0  0  0  0  0  0
    3.6168    6.0733   -2.0111 H   0  0  0  0  0  0  0  0  0  0  0  0
    2.8833    3.7018   -1.8362 H   0  0  0  0  0  0  0  0  0  0  0  0
  1  5  1  0  0  0  0
  2  1  1  0  0  0  0
  2  3  1  0  0  0  0
  3  4  2  0  0  0  0
  4  9  1  0  0  0  0
  5  6  1  1  0  0  0
  5  4  1  0  0  0  0
  6  7  2  0  0  0  0
  7 23  1  0  0  0  0
  7  8  1  0  0  0  0
  8 24  1  0  0  0  0
  9  8  2  0  0  0  0
  9 25  1  0  0  0  0
 10 11  1  0  0  0  0
 10  1  1  0  0  0  0
 12 11  1  0  0  0  0
 12 17  2  0  0  0  0
 13 12  1  0  0  0  0
 14 13  2  0  0  0  0
 14 15  1  0  0  0  0
 15 16  2  0  0  0  0
 16 17  1  0  0  0  0
 16 29  1  0  0  0  0
 17 30  1  0  0  0  0
 18 31  1  0  0  0  0
 18 15  1  0  0  0  0
 19 18  2  0  0  0  0
 20 21  2  0  0  0  0
 20 19  1  0  0  0  0
 21 14  1  0  0  0  0
 22  6  1  0  0  0  0
 26 10  1  0  0  0  0
 27 10  1  0  0  0  0
 28 13  1  0  0  0  0
 32 19  1  0  0  0  0
 33 20  1  0  0  0  0
 34 21  1  0  0  0  0
M  RAD  2   2   2   5   2
M  END
$$$$
