34
rmsd245.gzmat
N          0.00000        0.00000        0.00000
N          1.38050        0.00000        0.00000
N          1.83130        0.00000        1.19180
C          0.75540        0.05130        2.10630
C         -0.44700        0.06920        1.32400
C         -1.70780        0.12520        1.92480
C         -1.73410        0.15710        3.30720
C         -0.55190        0.13500        4.08320
C          0.70180        0.08100        3.50200
C         -0.76840        0.21540       -1.21650
O         -1.55250        1.37590       -1.08800
C         -0.96650        2.60820       -1.20330
C          0.36010        2.85430       -1.43420
C          0.79760        4.20440       -1.52660
C         -0.13820        5.25390       -1.39260
C         -1.50890        4.94550       -1.15070
C         -1.92810        3.64790       -1.05350
C          0.30580        6.59930       -1.49760
C          1.63050        6.87800       -1.71870
C          2.57040        5.82510       -1.84260
C          2.16680        4.51780       -1.74910
H         -2.61380        0.15460        1.32650
H         -2.69410        0.20350        3.82530
H         -0.64320        0.16480        5.16890
H          1.61830        0.06460        4.08990
H         -1.55720       -0.57130       -1.31730
H         -0.09690        0.25070       -2.10440
H          1.09880        2.06320       -1.53440
H         -2.21670        5.76770       -1.04270
H         -2.96610        3.38220       -0.86500
H         -0.42420        7.40070       -1.39900
H          1.97900        7.90510       -1.79910
H          3.61680        6.07330       -2.01110
H          2.88330        3.70180       -1.83620
