rmsd197.gzmat
 OpenBabel08211713413D

 34 37  0  0  1  0  0  0  0  0999 V2000
    0.0000    0.0000    0.0000 N   0  0  0  0  0  0  0  0  0  0  0  0
    1.3817    0.0000    0.0000 N   0  0  0  0  0  0  0  0  0  0  0  0
    1.8338    0.0000    1.1902 N   0  0  0  0  0  0  0  0  0  0  0  0
    0.7583    0.0474    2.1069 C   0  0  0  0  0  0  0  0  0  0  0  0
   -0.4447    0.0662    1.3259 C   0  0  2  0  0  0  0  0  0  0  0  0
   -1.7045    0.1010    1.9296 C   0  0  0  0  0  0  0  0  0  0  0  0
   -1.7285    0.1120    3.3129 C   0  0  0  0  0  0  0  0  0  0  0  0
   -0.5455    0.0903    4.0866 C   0  0  0  0  0  0  0  0  0  0  0  0
    0.7079    0.0595    3.5023 C   0  0  0  0  0  0  0  0  0  0  0  0
   -0.7668    0.2378   -1.2122 C   0  0  0  0  0  0  0  0  0  0  0  0
   -1.3635    1.5117   -1.1642 O   0  0  0  0  0  0  0  0  0  0  0  0
   -0.6061    2.6235   -1.4208 C   0  0  0  0  0  0  0  0  0  0  0  0
    0.7212    2.6372   -1.7555 C   0  0  0  0  0  0  0  0  0  0  0  0
    1.3538    3.8890   -1.9892 C   0  0  0  0  0  0  0  0  0  0  0  0
    0.6054    5.0826   -1.8884 C   0  0  0  0  0  0  0  0  0  0  0  0
   -0.7757    5.0160   -1.5416 C   0  0  0  0  0  0  0  0  0  0  0  0
   -1.3814    3.8130   -1.3059 C   0  0  0  0  0  0  0  0  0  0  0  0
    1.2483    6.3265   -2.1277 C   0  0  0  0  0  0  0  0  0  0  0  0
    2.5801    6.3696   -2.4546 C   0  0  0  0  0  0  0  0  0  0  0  0
    3.3318    5.1721   -2.5477 C   0  0  0  0  0  0  0  0  0  0  0  0
    2.7359    3.9585   -2.3173 C   0  0  0  0  0  0  0  0  0  0  0  0
   -2.6127    0.1262    1.3355 H   0  0  0  0  0  0  0  0  0  0  0  0
   -2.6877    0.1399    3.8329 H   0  0  0  0  0  0  0  0  0  0  0  0
   -0.6351    0.0981    5.1729 H   0  0  0  0  0  0  0  0  0  0  0  0
    1.6258    0.0440    4.0883 H   0  0  0  0  0  0  0  0  0  0  0  0
   -1.6662   -0.4262   -1.2323 H   0  0  0  0  0  0  0  0  0  0  0  0
   -0.1279    0.1039   -2.1144 H   0  0  0  0  0  0  0  0  0  0  0  0
    1.3211    1.7335   -1.8312 H   0  0  0  0  0  0  0  0  0  0  0  0
   -1.3403    5.9454   -1.4649 H   0  0  0  0  0  0  0  0  0  0  0  0
   -2.4310    3.7322   -1.0324 H   0  0  0  0  0  0  0  0  0  0  0  0
    0.6665    7.2422   -2.0428 H   0  0  0  0  0  0  0  0  0  0  0  0
    3.0774    7.3189   -2.6406 H   0  0  0  0  0  0  0  0  0  0  0  0
    4.3890    5.2322   -2.8002 H   0  0  0  0  0  0  0  0  0  0  0  0
    3.3069    3.0324   -2.3715 H   0  0  0  0  0  0  0  0  0  0  0  0
  1  2  1  0  0  0  0
  1  5  1  0  0  0  0
  2  3  1  0  0  0  0
  3  4  2  0  0  0  0
  4  9  1  0  0  0  0
  5  6  1  1  0  0  0
  5  4  1  0  0  0  0
  6  7  2  0  0  0  0
  7 23  1  0  0  0  0
  7  8  1  0  0  0  0
  8 24  1  0  0  0  0
  9  8  2  0  0  0  0
  9 25  1  0  0  0  0
 10 11  1  0  0  0  0
 10  1  1  0  0  0  0
 12 17  1  0  0  0  0
 12 11  1  0  0  0  0
 13 12  2  0  0  0  0
 14 15  1  0  0  0  0
 14 13  1  0  0  0  0
 15 16  1  0  0  0  0
 16 29  1  0  0  0  0
 16 17  2  0  0  0  0
 17 30  1  0  0  0  0
 18 31  1  0  0  0  0
 18 15  2  0  0  0  0
 19 18  1  0  0  0  0
 20 19  2  0  0  0  0
 20 21  1  0  0  0  0
 21 14  2  0  0  0  0
 22  6  1  0  0  0  0
 26 10  1  0  0  0  0
 27 10  1  0  0  0  0
 28 13  1  0  0  0  0
 32 19  1  0  0  0  0
 33 20  1  0  0  0  0
 34 21  1  0  0  0  0
M  RAD  2   2   2   5   2
M  END
$$$$
