34
rmsd160.gzmat
N          0.00000        0.00000        0.00000
N          1.38100        0.00000        0.00000
N          1.83220        0.00000        1.19090
C          0.75590       -0.04440        2.10660
C         -0.44640       -0.06500        1.32480
C         -1.70640       -0.10790        1.92770
C         -1.73180       -0.12230        3.31080
C         -0.54960       -0.09210        4.08560
C          0.70420       -0.05480        3.50260
C         -0.76750       -0.20230       -1.21780
O         -1.37380       -1.47210       -1.20120
C         -0.62730       -2.58290       -1.49110
C          0.69640       -2.59830       -1.83960
C          1.31240       -3.84740       -2.12610
C          0.55320       -5.03630       -2.05540
C         -0.81990       -4.96920       -1.67740
C         -1.41070       -3.76880       -1.39600
C          1.17490       -6.27610       -2.36330
C          2.49850       -6.32030       -2.72180
C          3.26280       -5.12860       -2.77950
C          2.68650       -3.91930       -2.48640
H         -2.61430       -0.13790        1.33330
H         -2.69160       -0.16150        3.82940
H         -0.64020       -0.10170        5.17180
H          1.62090       -0.03570        4.09000
H         -0.12590       -0.05010       -2.11540
H         -1.66130        0.46960       -1.22170
H          1.30370       -1.69790       -1.88970
H         -1.38870       -5.89720       -1.61560
H         -2.45430       -3.68660       -1.09950
H          0.58120       -7.18670       -2.31000
H          2.98010       -7.26510       -2.96370
H          4.31340       -5.19010       -3.05850
H          3.26690       -2.99820       -2.51980
