34
rmsd116.gzmat
N          0.00000        0.00000        0.00000
N          1.38090        0.00000        0.00000
N          1.83120        0.00000        1.19180
C          0.75500        0.05340        2.10650
C         -0.44710        0.07330        1.32400
C         -1.70780        0.13530        1.92450
C         -1.73400        0.17030        3.30700
C         -0.55220        0.14320        4.08300
C          0.70140        0.08460        3.50190
C         -0.76990        0.21870       -1.21440
O         -1.50760        1.41110       -1.10150
C         -0.87360        2.61620       -1.24570
C          0.44770        2.80340       -1.55160
C          0.93550        4.13340       -1.68000
C          0.05460        5.22250       -1.49800
C         -1.31030        4.97520       -1.16930
C         -1.77880        3.69730       -1.04300
C          0.54700        6.54700       -1.64240
C          1.86590        6.76850       -1.94860
C          2.75150        5.67620       -2.12010
C          2.30020        4.38770       -1.98740
H         -2.61370        0.16870        1.32620
H         -2.69330        0.22550        3.82510
H         -0.64320        0.17430        5.16870
H          1.61760        0.06570        4.09010
H         -1.58850       -0.53920       -1.29200
H         -0.10580        0.21160       -2.10830
H          1.14450        1.98000       -1.68540
H         -1.97230        5.82780       -1.01630
H         -2.81420        3.47630       -0.79250
H         -0.14140        7.37910       -1.50590
H          2.25040        7.77990       -2.05960
H          3.79500        5.87910       -2.35590
H          2.97620        3.54200       -2.10630
