34
rmsd95.gzmat
N          0.00000        0.00000        0.00000
N          1.38000        0.00000        0.00000
N          1.82980        0.00000        1.19280
C          0.75300        0.04640        2.10610
C         -0.44900        0.06400        1.32260
C         -1.71060        0.11740        1.92270
C         -1.73760        0.14320        3.30490
C         -0.55600        0.11480        4.08200
C          0.69830        0.06930        3.50200
C         -0.77120        0.17590       -1.22060
O         -1.57180        1.32670       -1.11450
C         -1.00920        2.56280       -1.29100
C          0.31360        2.82530       -1.52590
C          0.71870        4.17790       -1.69930
C         -0.24200        5.21110       -1.63340
C         -1.60580        4.88660       -1.37310
C         -1.99460        3.58740       -1.20190
C          0.17010        6.55650       -1.82700
C          1.48740        6.85160       -2.07110
C          2.45320        5.81630       -2.12320
C          2.08010        4.50930       -1.94060
H         -2.61600        0.14820        1.32380
H         -2.69720        0.19000        3.82310
H         -0.65020        0.13020        5.16760
H          1.61480        0.05180        4.09000
H         -1.54750       -0.62520       -1.30360
H         -0.09970        0.20240       -2.10890
H          1.07170        2.04730       -1.57140
H         -2.33220        5.69690       -1.31270
H         -3.02600        3.30650       -1.00070
H         -0.57820        7.34560       -1.77760
H          1.80890        7.87950       -2.22380
H          3.49390        6.07750       -2.30970
H          2.81470        3.70590       -1.97250
