rmsd223.gzmat
 OpenBabel08211713413D

 34 37  0  0  1  0  0  0  0  0999 V2000
    0.0000    0.0000    0.0000 N   0  0  0  0  0  0  0  0  0  0  0  0
    1.3805    0.0000    0.0000 N   0  0  0  0  0  0  0  0  0  0  0  0
    1.8309    0.0000    1.1919 N   0  0  0  0  0  0  0  0  0  0  0  0
    0.7544   -0.0481    2.1061 C   0  0  0  0  0  0  0  0  0  0  0  0
   -0.4478   -0.0684    1.3235 C   0  0  1  0  0  0  0  0  0  0  0  0
   -1.7080   -0.1288    1.9256 C   0  0  0  0  0  0  0  0  0  0  0  0
   -1.7336   -0.1567    3.3081 C   0  0  0  0  0  0  0  0  0  0  0  0
   -0.5517   -0.1244    4.0838 C   0  0  0  0  0  0  0  0  0  0  0  0
    0.7018   -0.0703    3.5021 C   0  0  0  0  0  0  0  0  0  0  0  0
   -0.7678   -0.1875   -1.2211 C   0  0  0  0  0  0  0  0  0  0  0  0
   -1.5285   -1.3672   -1.1352 O   0  0  0  0  0  0  0  0  0  0  0  0
   -0.9137   -2.5833   -1.2710 C   0  0  0  0  0  0  0  0  0  0  0  0
    0.4123   -2.7945   -1.5377 C   0  0  0  0  0  0  0  0  0  0  0  0
    0.8825   -4.1330   -1.6380 C   0  0  0  0  0  0  0  0  0  0  0  0
   -0.0187   -5.2067   -1.4639 C   0  0  0  0  0  0  0  0  0  0  0  0
   -1.3924   -4.9343   -1.1975 C   0  0  0  0  0  0  0  0  0  0  0  0
   -1.8445   -3.6479   -1.1009 C   0  0  0  0  0  0  0  0  0  0  0  0
    0.4631   -6.5402   -1.5517 C   0  0  0  0  0  0  0  0  0  0  0  0
    1.7890   -6.7844   -1.8042 C   0  0  0  0  0  0  0  0  0  0  0  0
    2.6914   -5.7073   -1.9859 C   0  0  0  0  0  0  0  0  0  0  0  0
    2.2513   -4.4109   -1.9044 C   0  0  0  0  0  0  0  0  0  0  0  0
   -2.6152   -0.1650    1.3299 H   0  0  0  0  0  0  0  0  0  0  0  0
   -2.6928   -0.2083    3.8265 H   0  0  0  0  0  0  0  0  0  0  0  0
   -0.6427   -0.1470    5.1697 H   0  0  0  0  0  0  0  0  0  0  0  0
    1.6184   -0.0481    4.0892 H   0  0  0  0  0  0  0  0  0  0  0  0
   -0.0980   -0.1779   -2.1110 H   0  0  0  0  0  0  0  0  0  0  0  0
   -1.5729    0.5857   -1.2911 H   0  0  0  0  0  0  0  0  0  0  0  0
    1.1263   -1.9834   -1.6556 H   0  0  0  0  0  0  0  0  0  0  0  0
   -2.0755   -5.7742   -1.0698 H   0  0  0  0  0  0  0  0  0  0  0  0
   -2.8860   -3.4089   -0.8975 H   0  0  0  0  0  0  0  0  0  0  0  0
   -0.2382   -7.3608   -1.4110 H   0  0  0  0  0  0  0  0  0  0  0  0
    2.1669   -7.8022   -1.8645 H   0  0  0  0  0  0  0  0  0  0  0  0
    3.7383   -5.9279   -2.1877 H   0  0  0  0  0  0  0  0  0  0  0  0
    2.9384   -3.5760   -2.0357 H   0  0  0  0  0  0  0  0  0  0  0  0
  1  5  1  0  0  0  0
  2  1  1  0  0  0  0
  2  3  1  0  0  0  0
  3  4  2  0  0  0  0
  4  9  1  0  0  0  0
  5  6  1  1  0  0  0
  5  4  1  0  0  0  0
  6  7  2  0  0  0  0
  7 23  1  0  0  0  0
  7  8  1  0  0  0  0
  8 24  1  0  0  0  0
  9  8  2  0  0  0  0
  9 25  1  0  0  0  0
 10 11  1  0  0  0  0
 10  1  1  0  0  0  0
 12 11  1  0  0  0  0
 12 17  2  0  0  0  0
 13 12  1  0  0  0  0
 14 13  2  0  0  0  0
 14 15  1  0  0  0  0
 15 16  2  0  0  0  0
 16 17  1  0  0  0  0
 16 29  1  0  0  0  0
 17 30  1  0  0  0  0
 18 15  1  0  0  0  0
 18 31  1  0  0  0  0
 19 18  2  0  0  0  0
 20 21  2  0  0  0  0
 20 19  1  0  0  0  0
 21 14  1  0  0  0  0
 22  6  1  0  0  0  0
 26 10  1  0  0  0  0
 27 10  1  0  0  0  0
 28 13  1  0  0  0  0
 32 19  1  0  0  0  0
 33 20  1  0  0  0  0
 34 21  1  0  0  0  0
M  RAD  2   2   2   5   2
M  END
$$$$
