rmsd160.gzmat
 OpenBabel08211713413D

 34 37  0  0  1  0  0  0  0  0999 V2000
    0.0000    0.0000    0.0000 N   0  0  0  0  0  0  0  0  0  0  0  0
    1.3810    0.0000    0.0000 N   0  0  0  0  0  0  0  0  0  0  0  0
    1.8322    0.0000    1.1909 N   0  0  0  0  0  0  0  0  0  0  0  0
    0.7559   -0.0444    2.1066 C   0  0  0  0  0  0  0  0  0  0  0  0
   -0.4464   -0.0650    1.3248 C   0  0  1  0  0  0  0  0  0  0  0  0
   -1.7064   -0.1079    1.9277 C   0  0  0  0  0  0  0  0  0  0  0  0
   -1.7318   -0.1223    3.3108 C   0  0  0  0  0  0  0  0  0  0  0  0
   -0.5496   -0.0921    4.0856 C   0  0  0  0  0  0  0  0  0  0  0  0
    0.7042   -0.0548    3.5026 C   0  0  0  0  0  0  0  0  0  0  0  0
   -0.7675   -0.2023   -1.2178 C   0  0  0  0  0  0  0  0  0  0  0  0
   -1.3738   -1.4721   -1.2012 O   0  0  0  0  0  0  0  0  0  0  0  0
   -0.6273   -2.5829   -1.4911 C   0  0  0  0  0  0  0  0  0  0  0  0
    0.6964   -2.5983   -1.8396 C   0  0  0  0  0  0  0  0  0  0  0  0
    1.3124   -3.8474   -2.1261 C   0  0  0  0  0  0  0  0  0  0  0  0
    0.5532   -5.0363   -2.0554 C   0  0  0  0  0  0  0  0  0  0  0  0
   -0.8199   -4.9692   -1.6774 C   0  0  0  0  0  0  0  0  0  0  0  0
   -1.4107   -3.7688   -1.3960 C   0  0  0  0  0  0  0  0  0  0  0  0
    1.1749   -6.2761   -2.3633 C   0  0  0  0  0  0  0  0  0  0  0  0
    2.4985   -6.3203   -2.7218 C   0  0  0  0  0  0  0  0  0  0  0  0
    3.2628   -5.1286   -2.7795 C   0  0  0  0  0  0  0  0  0  0  0  0
    2.6865   -3.9193   -2.4864 C   0  0  0  0  0  0  0  0  0  0  0  0
   -2.6143   -0.1379    1.3333 H   0  0  0  0  0  0  0  0  0  0  0  0
   -2.6916   -0.1615    3.8294 H   0  0  0  0  0  0  0  0  0  0  0  0
   -0.6402   -0.1017    5.1718 H   0  0  0  0  0  0  0  0  0  0  0  0
    1.6209   -0.0357    4.0900 H   0  0  0  0  0  0  0  0  0  0  0  0
   -0.1259   -0.0501   -2.1154 H   0  0  0  0  0  0  0  0  0  0  0  0
   -1.6613    0.4696   -1.2217 H   0  0  0  0  0  0  0  0  0  0  0  0
    1.3037   -1.6979   -1.8897 H   0  0  0  0  0  0  0  0  0  0  0  0
   -1.3887   -5.8972   -1.6156 H   0  0  0  0  0  0  0  0  0  0  0  0
   -2.4543   -3.6866   -1.0995 H   0  0  0  0  0  0  0  0  0  0  0  0
    0.5812   -7.1867   -2.3100 H   0  0  0  0  0  0  0  0  0  0  0  0
    2.9801   -7.2651   -2.9637 H   0  0  0  0  0  0  0  0  0  0  0  0
    4.3134   -5.1901   -3.0585 H   0  0  0  0  0  0  0  0  0  0  0  0
    3.2669   -2.9982   -2.5198 H   0  0  0  0  0  0  0  0  0  0  0  0
  1  2  1  0  0  0  0
  1  5  1  0  0  0  0
  2  3  1  0  0  0  0
  3  4  2  0  0  0  0
  4  9  1  0  0  0  0
  5  6  1  1  0  0  0
  5  4  1  0  0  0  0
  6  7  2  0  0  0  0
  7 23  1  0  0  0  0
  7  8  1  0  0  0  0
  8 24  1  0  0  0  0
  9  8  2  0  0  0  0
  9 25  1  0  0  0  0
 10 11  1  0  0  0  0
 10  1  1  0  0  0  0
 12 17  1  0  0  0  0
 12 11  1  0  0  0  0
 13 12  2  0  0  0  0
 14 15  1  0  0  0  0
 14 13  1  0  0  0  0
 15 16  1  0  0  0  0
 16 29  1  0  0  0  0
 16 17  2  0  0  0  0
 17 30  1  0  0  0  0
 18 31  1  0  0  0  0
 18 15  2  0  0  0  0
 19 18  1  0  0  0  0
 20 19  2  0  0  0  0
 20 21  1  0  0  0  0
 21 14  2  0  0  0  0
 22  6  1  0  0  0  0
 26 10  1  0  0  0  0
 27 10  1  0  0  0  0
 28 13  1  0  0  0  0
 32 19  1  0  0  0  0
 33 20  1  0  0  0  0
 34 21  1  0  0  0  0
M  RAD  2   2   2   5   2
M  END
$$$$
