rmsd101.gzmat
 OpenBabel08211713423D

 88 93  0  0  1  0  0  0  0  0999 V2000
    0.0000    0.0000    0.0000 C   0  0  0  0  0  0  0  0  0  0  0  0
    1.3970    0.0000    0.0000 C   0  0  0  0  0  0  0  0  0  0  0  0
    2.1007    0.0000    1.2028 C   0  0  0  0  0  0  0  0  0  0  0  0
    1.4197    0.0015    2.4183 C   0  0  0  0  0  0  0  0  0  0  0  0
    0.0260    0.0160    2.3869 C   0  0  0  0  0  0  0  0  0  0  0  0
   -0.7067    0.0178    1.2016 C   0  0  0  0  0  0  0  0  0  0  0  0
   -0.6316    0.0237    3.5371 F   0  0  0  0  0  0  0  0  0  0  0  0
   -0.7461    0.0197   -1.3001 C   0  0  0  0  0  0  0  0  0  0  0  0
   -1.3151    1.2916   -1.5852 O   0  0  0  0  0  0  0  0  0  0  0  0
   -0.4127    2.3726   -1.4622 C   0  0  2  0  0  0  0  0  0  0  0  0
    0.0465    2.3657   -0.4381 H   0  0  0  0  0  0  0  0  0  0  0  0
   -1.2797    3.6290   -1.6471 C   0  0  1  0  0  0  0  0  0  0  0  0
   -2.1148    3.6293   -0.9052 H   0  0  0  0  0  0  0  0  0  0  0  0
   -0.4771    4.9544   -1.5984 C   0  0  2  0  0  0  0  0  0  0  0  0
   -0.0474    5.1951   -2.6069 H   0  0  0  0  0  0  0  0  0  0  0  0
    0.6355    4.9637   -0.5418 C   0  0  1  0  0  0  0  0  0  0  0  0
    1.3423    4.1039   -0.7038 H   0  0  0  0  0  0  0  0  0  0  0  0
    1.2971    6.2068   -0.6677 O   0  0  0  0  0  0  0  0  0  0  0  0
    2.6831    6.0945   -0.9707 C   0  0  0  0  0  0  0  0  0  0  0  0
    3.4228    5.5605    0.2209 C   0  0  0  0  0  0  0  0  0  0  0  0
    3.7519    4.2065    0.2852 C   0  0  0  0  0  0  0  0  0  0  0  0
    4.3853    3.7487    1.4381 C   0  0  0  0  0  0  0  0  0  0  0  0
    4.7055    4.5778    2.5120 C   0  0  0  0  0  0  0  0  0  0  0  0
    4.3722    5.9268    2.4170 C   0  0  0  0  0  0  0  0  0  0  0  0
    3.7340    6.4168    1.2788 C   0  0  0  0  0  0  0  0  0  0  0  0
    4.6994    2.4638    1.5212 F   0  0  0  0  0  0  0  0  0  0  0  0
    0.0722    4.8414    0.8756 C   0  0  0  0  0  0  0  0  0  0  0  0
   -0.6368    3.8996    1.1809 O   0  0  0  0  0  0  0  0  0  0  0  0
    0.3714    5.8467    1.7569 N   0  0  0  0  0  0  0  0  0  0  0  0
    0.0491    5.6800    3.1726 C   0  0  1  0  0  0  0  0  0  0  0  0
   -0.9731    5.2278    3.2671 H   0  0  0  0  0  0  0  0  0  0  0  0
    1.0762    4.8357    3.8872 C   0  0  0  0  0  0  0  0  0  0  0  0
    1.7830    5.5805    4.8438 C   0  0  0  0  0  0  0  0  0  0  0  0
    2.7804    4.9888    5.6000 C   0  0  0  0  0  0  0  0  0  0  0  0
    3.0639    3.6350    5.3886 C   0  0  0  0  0  0  0  0  0  0  0  0
    2.3577    2.8978    4.4415 C   0  0  0  0  0  0  0  0  0  0  0  0
    1.3494    3.4963    3.6791 C   0  0  0  0  0  0  0  0  0  0  0  0
    1.3141    6.9972    4.9002 C   0  0  0  0  0  0  0  0  0  0  0  0
    0.1270    7.0731    3.9103 C   0  0  1  0  0  0  0  0  0  0  0  0
   -0.8310    7.3113    4.4090 H   0  0  0  0  0  0  0  0  0  0  0  0
    0.4576    8.1099    3.0154 O   0  0  0  0  0  0  0  0  0  0  0  0
   -1.4298    5.9742   -1.4020 O   0  0  0  0  0  0  0  0  0  0  0  0
   -1.8270    3.5348   -2.9541 O   0  0  0  0  0  0  0  0  0  0  0  0
    0.6751    2.3144   -2.5387 C   0  0  0  0  0  0  0  0  0  0  0  0
    1.8245    2.6477   -2.3104 O   0  0  0  0  0  0  0  0  0  0  0  0
    0.2601    1.8654   -3.7633 N   0  0  0  0  0  0  0  0  0  0  0  0
    1.1416    1.9049   -4.9234 C   0  0  1  0  0  0  0  0  0  0  0  0
    2.2097    1.9125   -4.5884 H   0  0  0  0  0  0  0  0  0  0  0  0
    0.8141    0.7441   -5.8269 C   0  0  0  0  0  0  0  0  0  0  0  0
    0.1390    1.1719   -6.9829 C   0  0  0  0  0  0  0  0  0  0  0  0
   -0.2858    0.2531   -7.9277 C   0  0  0  0  0  0  0  0  0  0  0  0
   -0.0259   -1.1040   -7.7057 C   0  0  0  0  0  0  0  0  0  0  0  0
    0.6472   -1.5246   -6.5613 C   0  0  0  0  0  0  0  0  0  0  0  0
    1.0749   -0.5956   -5.6054 C   0  0  0  0  0  0  0  0  0  0  0  0
   -0.0254    2.6554   -7.0087 C   0  0  0  0  0  0  0  0  0  0  0  0
    0.8438    3.1703   -5.8293 C   0  0  1  0  0  0  0  0  0  0  0  0
    1.7904    3.6308   -6.1805 H   0  0  0  0  0  0  0  0  0  0  0  0
    0.2167    4.2165   -5.1603 O   0  0  0  0  0  0  0  0  0  0  0  0
    1.9442    0.0174   -0.9427 H   0  0  0  0  0  0  0  0  0  0  0  0
    3.1907    0.0038    1.1923 H   0  0  0  0  0  0  0  0  0  0  0  0
    1.9628   -0.0088    3.3603 H   0  0  0  0  0  0  0  0  0  0  0  0
   -1.7952    0.0522    1.2082 H   0  0  0  0  0  0  0  0  0  0  0  0
   -1.6518   -0.6214   -1.2816 H   0  0  0  0  0  0  0  0  0  0  0  0
   -0.1162   -0.2877   -2.1568 H   0  0  0  0  0  0  0  0  0  0  0  0
    2.9438    7.1458   -1.2075 H   0  0  0  0  0  0  0  0  0  0  0  0
    2.8255    5.4809   -1.8825 H   0  0  0  0  0  0  0  0  0  0  0  0
    3.5198    3.5269   -0.5410 H   0  0  0  0  0  0  0  0  0  0  0  0
    5.1898    4.1860    3.4043 H   0  0  0  0  0  0  0  0  0  0  0  0
    4.6035    6.5999    3.2421 H   0  0  0  0  0  0  0  0  0  0  0  0
    3.4728    7.4731    1.2214 H   0  0  0  0  0  0  0  0  0  0  0  0
    1.0771    6.5466    1.5289 H   0  0  0  0  0  0  0  0  0  0  0  0
    3.3305    5.5576    6.3429 H   0  0  0  0  0  0  0  0  0  0  0  0
    3.8442    3.1538    5.9757 H   0  0  0  0  0  0  0  0  0  0  0  0
    2.5901    1.8454    4.2912 H   0  0  0  0  0  0  0  0  0  0  0  0
    0.7903    2.9202    2.9383 H   0  0  0  0  0  0  0  0  0  0  0  0
    1.0170    7.3037    5.9172 H   0  0  0  0  0  0  0  0  0  0  0  0
    2.1119    7.7048    4.5883 H   0  0  0  0  0  0  0  0  0  0  0  0
   -0.3003    8.3283    2.4349 H   0  0  0  0  0  0  0  0  0  0  0  0
   -1.4200    6.2924   -0.4765 H   0  0  0  0  0  0  0  0  0  0  0  0
   -2.4675    4.2680   -3.0937 H   0  0  0  0  0  0  0  0  0  0  0  0
   -0.7213    1.6505   -3.9216 H   0  0  0  0  0  0  0  0  0  0  0  0
   -0.8118    0.5740   -8.8224 H   0  0  0  0  0  0  0  0  0  0  0  0
   -0.3561   -1.8382   -8.4390 H   0  0  0  0  0  0  0  0  0  0  0  0
    0.8426   -2.5834   -6.4063 H   0  0  0  0  0  0  0  0  0  0  0  0
    1.5964   -0.9231   -4.7088 H   0  0  0  0  0  0  0  0  0  0  0  0
    0.2883    3.1043   -7.9660 H   0  0  0  0  0  0  0  0  0  0  0  0
   -1.0822    2.9569   -6.8716 H   0  0  0  0  0  0  0  0  0  0  0  0
   -0.4667    3.9053   -4.5218 H   0  0  0  0  0  0  0  0  0  0  0  0
  1  6  1  0  0  0  0
  2  1  2  0  0  0  0
  2  3  1  0  0  0  0
  3  4  2  0  0  0  0
  4 61  1  0  0  0  0
  5  4  1  0  0  0  0
  5  7  1  0  0  0  0
  6 62  1  0  0  0  0
  6  5  2  0  0  0  0
  8 63  1  0  0  0  0
  8  1  1  0  0  0  0
  9 10  1  0  0  0  0
  9  8  1  0  0  0  0
 10 11  1  1  0  0  0
 12 14  1  0  0  0  0
 12 10  1  0  0  0  0
 12 13  1  1  0  0  0
 14 15  1  6  0  0  0
 14 42  1  0  0  0  0
 14 16  1  0  0  0  0
 16 17  1  6  0  0  0
 16 27  1  0  0  0  0
 18 16  1  0  0  0  0
 19 18  1  0  0  0  0
 19 20  1  0  0  0  0
 20 21  2  0  0  0  0
 20 25  1  0  0  0  0
 21 22  1  0  0  0  0
 22 26  1  0  0  0  0
 22 23  2  0  0  0  0
 23 68  1  0  0  0  0
 24 23  1  0  0  0  0
 24 69  1  0  0  0  0
 25 24  2  0  0  0  0
 27 28  2  0  0  0  0
 27 29  1  0  0  0  0
 29 30  1  0  0  0  0
 30 31  1  1  0  0  0
 30 32  1  0  0  0  0
 30 39  1  0  0  0  0
 32 33  1  0  0  0  0
 33 38  1  0  0  0  0
 33 34  2  0  0  0  0
 34 72  1  0  0  0  0
 35 34  1  0  0  0  0
 35 73  1  0  0  0  0
 36 35  2  0  0  0  0
 37 32  2  0  0  0  0
 37 36  1  0  0  0  0
 38 76  1  0  0  0  0
 39 40  1  1  0  0  0
 39 38  1  0  0  0  0
 41 39  1  0  0  0  0
 42 79  1  0  0  0  0
 43 12  1  0  0  0  0
 44 45  2  0  0  0  0
 44 10  1  0  0  0  0
 46 44  1  0  0  0  0
 47 56  1  0  0  0  0
 47 48  1  1  0  0  0
 47 46  1  0  0  0  0
 49 54  1  0  0  0  0
 49 47  1  0  0  0  0
 50 49  2  0  0  0  0
 51 52  2  0  0  0  0
 51 50  1  0  0  0  0
 52 53  1  0  0  0  0
 53 84  1  0  0  0  0
 53 54  2  0  0  0  0
 54 85  1  0  0  0  0
 55 50  1  0  0  0  0
 55 87  1  0  0  0  0
 55 56  1  0  0  0  0
 56 57  1  6  0  0  0
 56 58  1  0  0  0  0
 58 88  1  0  0  0  0
 59  2  1  0  0  0  0
 60  3  1  0  0  0  0
 64  8  1  0  0  0  0
 65 19  1  0  0  0  0
 66 19  1  0  0  0  0
 67 21  1  0  0  0  0
 70 25  1  0  0  0  0
 71 29  1  0  0  0  0
 74 36  1  0  0  0  0
 75 37  1  0  0  0  0
 77 38  1  0  0  0  0
 78 41  1  0  0  0  0
 80 43  1  0  0  0  0
 81 46  1  0  0  0  0
 82 51  1  0  0  0  0
 83 52  1  0  0  0  0
 86 55  1  0  0  0  0
M  END
$$$$
