88

C          0.22270       -0.06400        0.05900
C          1.60790       -0.15920        0.25610
C          2.13870       -0.19390        1.54940
C          1.30040       -0.12420        2.66150
C         -0.07130       -0.01700        2.45030
C         -0.62490        0.00940        1.17570
F         -0.88820        0.05140        3.51670
C         -0.36910       -0.17090       -1.32770
O         -0.79840       -1.50270       -1.62650
C          0.23090       -2.47050       -1.73590
H          1.20750       -2.01120       -1.52940
C          0.30120       -3.08210       -3.15300
H         -0.22590       -2.39260       -3.82920
C          1.75380       -3.27520       -3.65280
H          2.35080       -3.70790       -2.82640
C          2.41950       -1.98570       -4.15980
H          1.88800       -1.72360       -5.09260
O          2.26870       -0.96170       -3.20790
C          2.77380        0.33720       -3.55870
C          2.41880        0.74540       -4.96730
C          1.09900        1.09680       -5.28440
C          0.77120        1.39430       -6.60310
C          1.71670        1.34690       -7.62660
C          3.02930        0.99360       -7.30700
C          3.38100        0.69640       -5.98590
F         -0.49230        1.73380       -6.89830
C          3.90110       -2.21960       -4.52540
O          4.81160       -1.66280       -3.93540
N          4.08140       -3.04450       -5.59870
C          5.41400       -3.39240       -6.07900
H          6.12220       -3.01850       -5.32780
C          5.53470       -4.86970       -6.36380
C          5.42050       -5.11680       -7.74180
C          5.48180       -6.42560       -8.22330
C          5.64740       -7.47850       -7.31610
C          5.74920       -7.22820       -5.94160
C          5.69080       -5.91740       -5.45660
C          5.22040       -3.82520       -8.49640
C          5.68160       -2.75000       -7.48040
H          6.77060       -2.61600       -7.58240
O          5.09890       -1.48660       -7.64030
O          1.72070       -4.16230       -4.75550
O         -0.36170       -4.33300       -3.25470
C          0.07370       -3.55310       -0.66770
O          0.67300       -4.62940       -0.77500
N         -0.71350       -3.22060        0.36030
C         -0.88850       -4.02510        1.55220
H         -0.83580       -5.07940        1.24040
C          0.14380       -3.72390        2.61890
C         -0.44510       -3.16320        3.75630
C          0.34980       -2.78760        4.84190
C          1.73300       -2.97830        4.76900
C          2.31870       -3.53440        3.62280
C          1.52500       -3.91240        2.53630
C         -1.93380       -3.01020        3.58840
C         -2.26600       -3.67970        2.23760
H         -2.81540       -4.62220        2.40510
O         -3.05570       -2.78540        1.47510
H          2.27350       -0.22350       -0.60700
H          3.21730       -0.28490        1.69330
H          1.68510       -0.16630        3.68020
H         -1.71020        0.06590        1.06670
H          0.35680        0.16290       -2.08350
H         -1.27550        0.44520       -1.41210
H          3.86150        0.35320       -3.41740
H          2.30570        1.01850       -2.83260
H          0.32060        1.13650       -4.51940
H          1.41280        1.58340       -8.64780
H          3.78650        0.93020       -8.09120
H          4.40470        0.40040       -5.75080
H          3.29590       -3.65680       -5.82260
H          5.40050       -6.62840       -9.29440
H          5.69830       -8.50660       -7.68320
H          5.87860       -8.06120       -5.24650
H          5.76840       -5.71580       -4.38520
H          5.77130       -3.77470       -9.44770
H          4.15220       -3.67050       -8.73580
H          4.21810       -1.53250       -7.23520
H          0.92460       -4.70790       -4.60790
H         -0.02550       -4.86470       -2.50270
H         -1.18600       -2.32380        0.31650
H         -0.10120       -2.33990        5.73090
H          2.36480       -2.68940        5.61290
H          3.40130       -3.67650        3.58130
H          1.96460       -4.34740        1.63620
H         -2.50250       -3.45580        4.41950
H         -2.21560       -1.94700        3.53690
H         -3.36610       -3.24270        0.68170
