88

C         -0.44980        0.23770        0.24060
C          0.91830       -0.04280        0.11290
C          1.71740       -0.18970        1.24890
C          1.16970       -0.06520        2.52910
C         -0.19210        0.20630        2.64130
C         -1.00640        0.36670        1.52160
F         -0.73660        0.33170        3.86330
C         -1.32860        0.40330       -0.98270
O         -1.44300        1.74610       -1.46060
C         -0.46210        2.26270       -2.35060
H         -0.95510        3.13310       -2.81590
C         -0.05970        1.29290       -3.48460
H         -0.97640        0.72000       -3.71080
C          0.27780        2.05300       -4.79580
H         -0.69660        2.32390       -5.23980
C          0.94070        1.12410       -5.84590
H          0.52990        0.10840       -5.72580
O          0.63350        1.48860       -7.18000
C          0.91490        2.83870       -7.54310
C          1.39650        2.90470       -8.97000
C          2.29230        3.91620       -9.34770
C          2.72550        3.98590      -10.67040
C          2.30860        3.06790      -11.63120
C          1.42330        2.05980      -11.24310
C          0.96570        1.97680       -9.92620
F          3.58120        4.95820      -11.02110
C          2.46620        1.01060       -5.64470
O          2.98650        1.08910       -4.52880
N          3.16430        0.80410       -6.77040
C          4.61970        0.78380       -6.83640
H          4.99830        1.72150       -6.39560
C          5.26320       -0.42800       -6.18710
C          5.63960       -1.36680       -7.15960
C          6.25690       -2.56040       -6.78340
C          6.49290       -2.80360       -5.42580
C          6.11820       -1.86290       -4.45820
C          5.49930       -0.66540       -4.83230
C          5.27790       -0.88090       -8.53830
C          5.04090        0.62620       -8.33890
H          5.99770        1.16370       -8.46830
O          4.07680        1.07020       -9.26280
O          0.98770        3.25100       -4.62140
O          0.91210        0.35940       -3.08280
C          0.75070        2.84540       -1.60270
O          1.84510        3.01040       -2.14930
N          0.49500        3.22020       -0.34360
C          1.45840        3.86910        0.51250
H          2.45250        3.47000        0.25170
C          1.47490        5.38260        0.41940
C          1.56970        5.94840        1.69610
C          1.60800        7.33490        1.84670
C          1.54860        8.14300        0.70520
C          1.45780        7.57080       -0.57030
C          1.42290        6.18020       -0.72280
C          1.63330        4.86550        2.74760
C          1.13700        3.60170        2.01690
H          1.64370        2.69040        2.36800
O         -0.26560        3.47740        2.20210
H          1.34030       -0.13410       -0.88880
H          2.78240       -0.40620        1.13930
H          1.76950       -0.18360        3.43300
H         -2.07120        0.56820        1.66060
H         -2.35890        0.11380       -0.72840
H         -0.96990       -0.26710       -1.77580
H          1.65740        3.28490       -6.86630
H         -0.00250        3.44600       -7.42640
H          2.65270        4.65570       -8.62880
H          2.68270        3.15080      -12.65270
H          1.09240        1.32480      -11.98030
H          0.28930        1.17760       -9.62210
H          2.66500        0.79190       -7.65760
H          6.55700       -3.29340       -7.53690
H          6.97810       -3.73340       -5.11830
H          6.31270       -2.06550       -3.40220
H          5.18760        0.06920       -4.08980
H          6.04490       -1.08790       -9.29970
H          4.33700       -1.33870       -8.89140
H          4.02190        2.03670       -9.26540
H          1.58360        3.14940       -3.84200
H          1.79870        0.69170       -3.36290
H         -0.44410        3.09700        0.02380
H          1.67460        7.78630        2.84010
H          1.57040        9.23060        0.80990
H          1.41420        8.21530       -1.45170
H          1.36280        5.72500       -1.71380
H          2.67120        4.72430        3.09810
H          1.00710        5.06430        3.62990
H         -0.47570        2.54080        2.30780
