
     RDKit          3D

 88 93  0  0  0  0  0  0  0  0999 V2000
    0.1575    0.1865   -0.1357 C   0  0  0  0  0  0  0  0  0  0  0  0
    1.5100    0.4989    0.0656 C   0  0  0  0  0  0  0  0  0  0  0  0
    2.1017    0.3135    1.3161 C   0  0  0  0  0  0  0  0  0  0  0  0
    1.3500   -0.1767    2.3891 C   0  0  0  0  0  0  0  0  0  0  0  0
    0.0064   -0.4681    2.1749 C   0  0  0  0  0  0  0  0  0  0  0  0
   -0.6013   -0.3095    0.9332 C   0  0  0  0  0  0  0  0  0  0  0  0
   -0.7184   -0.9712    3.1949 F   0  0  0  0  0  0  0  0  0  0  0  0
   -0.4429    0.2580   -1.5228 C   0  0  0  0  0  0  0  0  0  0  0  0
    0.0852   -0.7387   -2.3946 O   0  0  0  0  0  0  0  0  0  0  0  0
    0.0138   -2.0751   -1.9346 C   0  0  2  0  0  0  0  0  0  0  0  0
    0.1378   -2.0818   -0.8435 H   0  0  0  0  0  0  0  0  0  0  0  0
    1.2045   -2.8307   -2.5776 C   0  0  1  0  0  0  0  0  0  0  0  0
    1.4397   -2.3046   -3.5143 H   0  0  0  0  0  0  0  0  0  0  0  0
    2.4714   -2.7824   -1.6991 C   0  0  2  0  0  0  0  0  0  0  0  0
    3.1708   -3.5120   -2.1584 H   0  0  0  0  0  0  0  0  0  0  0  0
    2.1987   -3.2598   -0.2449 C   0  0  1  0  0  0  0  0  0  0  0  0
    1.6303   -2.4737    0.2771 H   0  0  0  0  0  0  0  0  0  0  0  0
    1.4630   -4.4777   -0.2687 O   0  0  0  0  0  0  0  0  0  0  0  0
    0.3404   -4.5889    0.6286 C   0  0  0  0  0  0  0  0  0  0  0  0
    0.7545   -4.9321    2.0375 C   0  0  0  0  0  0  0  0  0  0  0  0
    0.8254   -3.9337    3.0154 C   0  0  0  0  0  0  0  0  0  0  0  0
    1.2698   -4.2567    4.2937 C   0  0  0  0  0  0  0  0  0  0  0  0
    1.6474   -5.5496    4.6396 C   0  0  0  0  0  0  0  0  0  0  0  0
    1.5502   -6.5500    3.6673 C   0  0  0  0  0  0  0  0  0  0  0  0
    1.1094   -6.2474    2.3753 C   0  0  0  0  0  0  0  0  0  0  0  0
    1.3388   -3.2853    5.2152 F   0  0  0  0  0  0  0  0  0  0  0  0
    3.5301   -3.3610    0.4924 C   0  0  0  0  0  0  0  0  0  0  0  0
    4.2502   -2.3616    0.5812 O   0  0  0  0  0  0  0  0  0  0  0  0
    3.8473   -4.5658    0.9808 N   0  0  0  0  0  0  0  0  0  0  0  0
    5.0367   -4.8313    1.7569 C   0  0  1  0  0  0  0  0  0  0  0  0
    5.8743   -4.2728    1.3051 H   0  0  0  0  0  0  0  0  0  0  0  0
    4.9391   -4.4869    3.2341 C   0  0  0  0  0  0  0  0  0  0  0  0
    5.5401   -5.4939    4.0029 C   0  0  0  0  0  0  0  0  0  0  0  0
    5.5558   -5.3988    5.3947 C   0  0  0  0  0  0  0  0  0  0  0  0
    4.9760   -4.2788    6.0035 C   0  0  0  0  0  0  0  0  0  0  0  0
    4.3961   -3.2662    5.2299 C   0  0  0  0  0  0  0  0  0  0  0  0
    4.3718   -3.3644    3.8344 C   0  0  0  0  0  0  0  0  0  0  0  0
    6.1183   -6.5605    3.0991 C   0  0  0  0  0  0  0  0  0  0  0  0
    5.3415   -6.3587    1.7828 C   0  0  1  0  0  0  0  0  0  0  0  0
    5.9056   -6.6783    0.8956 H   0  0  0  0  0  0  0  0  0  0  0  0
    4.1393   -7.1067    1.7636 O   0  0  0  0  0  0  0  0  0  0  0  0
    3.0058   -1.4910   -1.6905 O   0  0  0  0  0  0  0  0  0  0  0  0
    0.9408   -4.1872   -2.9119 O   0  0  0  0  0  0  0  0  0  0  0  0
   -1.4199   -2.6137   -2.0938 C   0  0  0  0  0  0  0  0  0  0  0  0
   -2.2921   -2.1806   -1.3447 O   0  0  0  0  0  0  0  0  0  0  0  0
   -1.6627   -3.5356   -3.0568 N   0  0  0  0  0  0  0  0  0  0  0  0
   -2.8922   -4.2889   -3.0304 C   0  0  1  0  0  0  0  0  0  0  0  0
   -3.7217   -3.5786   -2.8749 H   0  0  0  0  0  0  0  0  0  0  0  0
   -3.1258   -5.1227   -4.2693 C   0  0  0  0  0  0  0  0  0  0  0  0
   -3.7425   -6.3361   -3.9227 C   0  0  0  0  0  0  0  0  0  0  0  0
   -4.0608   -7.2674   -4.9106 C   0  0  0  0  0  0  0  0  0  0  0  0
   -3.7515   -6.9751   -6.2453 C   0  0  0  0  0  0  0  0  0  0  0  0
   -3.1321   -5.7665   -6.5855 C   0  0  0  0  0  0  0  0  0  0  0  0
   -2.8147   -4.8287   -5.5953 C   0  0  0  0  0  0  0  0  0  0  0  0
   -3.9602   -6.3945   -2.4253 C   0  0  0  0  0  0  0  0  0  0  0  0
   -2.9521   -5.3578   -1.8899 C   0  0  1  0  0  0  0  0  0  0  0  0
   -3.2488   -4.9060   -0.9352 H   0  0  0  0  0  0  0  0  0  0  0  0
   -1.6752   -5.9349   -1.6583 O   0  0  0  0  0  0  0  0  0  0  0  0
    2.1068    0.8430   -0.7791 H   0  0  0  0  0  0  0  0  0  0  0  0
    3.1622    0.5301    1.4578 H   0  0  0  0  0  0  0  0  0  0  0  0
    1.7847   -0.3423    3.3766 H   0  0  0  0  0  0  0  0  0  0  0  0
   -1.6401   -0.6109    0.7882 H   0  0  0  0  0  0  0  0  0  0  0  0
   -0.1822    1.2119   -2.0045 H   0  0  0  0  0  0  0  0  0  0  0  0
   -1.5398    0.1793   -1.4627 H   0  0  0  0  0  0  0  0  0  0  0  0
   -0.2904   -5.3732    0.1896 H   0  0  0  0  0  0  0  0  0  0  0  0
   -0.2343   -3.6486    0.6157 H   0  0  0  0  0  0  0  0  0  0  0  0
    0.5183   -2.9102    2.8105 H   0  0  0  0  0  0  0  0  0  0  0  0
    2.0062   -5.7547    5.6487 H   0  0  0  0  0  0  0  0  0  0  0  0
    1.8125   -7.5788    3.9280 H   0  0  0  0  0  0  0  0  0  0  0  0
    1.0468   -7.0346    1.6206 H   0  0  0  0  0  0  0  0  0  0  0  0
    3.1922   -5.3322    0.8528 H   0  0  0  0  0  0  0  0  0  0  0  0
    6.0127   -6.1844    6.0024 H   0  0  0  0  0  0  0  0  0  0  0  0
    4.9776   -4.1928    7.0928 H   0  0  0  0  0  0  0  0  0  0  0  0
    3.9425   -2.4029    5.7200 H   0  0  0  0  0  0  0  0  0  0  0  0
    3.9190   -2.5811    3.2244 H   0  0  0  0  0  0  0  0  0  0  0  0
    7.1973   -6.3854    2.9388 H   0  0  0  0  0  0  0  0  0  0  0  0
    6.0052   -7.5895    3.4729 H   0  0  0  0  0  0  0  0  0  0  0  0
    3.6349   -6.8945    2.5653 H   0  0  0  0  0  0  0  0  0  0  0  0
    3.6433   -1.4588   -0.9486 H   0  0  0  0  0  0  0  0  0  0  0  0
    0.9611   -4.6781   -2.0689 H   0  0  0  0  0  0  0  0  0  0  0  0
   -0.8261   -4.0063   -3.4076 H   0  0  0  0  0  0  0  0  0  0  0  0
   -4.5374   -8.2159   -4.6494 H   0  0  0  0  0  0  0  0  0  0  0  0
   -3.9891   -7.7002   -7.0274 H   0  0  0  0  0  0  0  0  0  0  0  0
   -2.8914   -5.5560   -7.6303 H   0  0  0  0  0  0  0  0  0  0  0  0
   -2.3264   -3.8853   -5.8509 H   0  0  0  0  0  0  0  0  0  0  0  0
   -4.9907   -6.0866   -2.1727 H   0  0  0  0  0  0  0  0  0  0  0  0
   -3.7959   -7.3880   -1.9806 H   0  0  0  0  0  0  0  0  0  0  0  0
   -1.3878   -6.3714   -2.4742 H   0  0  0  0  0  0  0  0  0  0  0  0
  1  2  2  0
  1  6  1  0
  1  8  1  0
  2  3  1  0
  2 59  1  0
  3  4  2  0
  3 60  1  0
  4  5  1  0
  4 61  1  0
  5  6  2  0
  5  7  1  0
  6 62  1  0
  8  9  1  0
  8 63  1  0
  8 64  1  0
  9 10  1  0
 10 11  1  1
 10 12  1  0
 10 44  1  0
 12 13  1  6
 12 14  1  0
 12 43  1  0
 14 15  1  6
 14 16  1  0
 14 42  1  0
 16 17  1  1
 16 18  1  0
 16 27  1  0
 18 19  1  0
 19 20  1  0
 19 65  1  0
 19 66  1  0
 20 21  2  0
 20 25  1  0
 21 22  1  0
 21 67  1  0
 22 23  2  0
 22 26  1  0
 23 24  1  0
 23 68  1  0
 24 25  2  0
 24 69  1  0
 25 70  1  0
 27 28  2  0
 27 29  1  0
 29 30  1  0
 29 71  1  0
 30 31  1  6
 30 32  1  0
 30 39  1  0
 32 33  1  0
 32 37  2  0
 33 34  2  0
 33 38  1  0
 34 35  1  0
 34 72  1  0
 35 36  2  0
 35 73  1  0
 36 37  1  0
 36 74  1  0
 37 75  1  0
 38 39  1  0
 38 76  1  0
 38 77  1  0
 39 40  1  6
 39 41  1  0
 41 78  1  0
 42 79  1  0
 43 80  1  0
 44 45  2  0
 44 46  1  0
 46 47  1  0
 46 81  1  0
 47 48  1  1
 47 49  1  0
 47 56  1  0
 49 50  1  0
 49 54  2  0
 50 51  2  0
 50 55  1  0
 51 52  1  0
 51 82  1  0
 52 53  2  0
 52 83  1  0
 53 54  1  0
 53 84  1  0
 54 85  1  0
 55 56  1  0
 55 86  1  0
 55 87  1  0
 56 57  1  1
 56 58  1  0
 58 88  1  0
M  END

