rmsd90.gzmat
 OpenBabel08211713423D

 88 93  0  0  1  0  0  0  0  0999 V2000
    0.0000    0.0000    0.0000 C   0  0  0  0  0  0  0  0  0  0  0  0
    1.3956    0.0000    0.0000 C   0  0  0  0  0  0  0  0  0  0  0  0
    2.1040    0.0000    1.2006 C   0  0  0  0  0  0  0  0  0  0  0  0
    1.4275   -0.0088    2.4181 C   0  0  0  0  0  0  0  0  0  0  0  0
    0.0334   -0.0323    2.3903 C   0  0  0  0  0  0  0  0  0  0  0  0
   -0.7022   -0.0166    1.2066 C   0  0  0  0  0  0  0  0  0  0  0  0
   -0.6205   -0.0742    3.5411 F   0  0  0  0  0  0  0  0  0  0  0  0
   -0.7518   -0.0195   -1.2983 C   0  0  0  0  0  0  0  0  0  0  0  0
   -1.0501    1.2951   -1.7418 O   0  0  0  0  0  0  0  0  0  0  0  0
   -0.1286    1.9636   -2.5675 C   0  0  2  0  0  0  0  0  0  0  0  0
   -0.7818    2.7861   -2.9736 H   0  0  0  0  0  0  0  0  0  0  0  0
    0.3945    1.1138   -3.7375 C   0  0  1  0  0  0  0  0  0  0  0  0
   -0.4060    0.4133   -4.0826 H   0  0  0  0  0  0  0  0  0  0  0  0
    0.8473    2.0395   -4.8967 C   0  0  2  0  0  0  0  0  0  0  0  0
   -0.0305    2.5368   -5.3797 H   0  0  0  0  0  0  0  0  0  0  0  0
    1.6153    1.2174   -5.9506 C   0  0  1  0  0  0  0  0  0  0  0  0
    1.1449    0.2021   -6.0596 H   0  0  0  0  0  0  0  0  0  0  0  0
    1.4405    1.7381   -7.2449 O   0  0  0  0  0  0  0  0  0  0  0  0
    1.9994    3.0344   -7.4622 C   0  0  0  0  0  0  0  0  0  0  0  0
    1.2471    3.6333   -8.6106 C   0  0  0  0  0  0  0  0  0  0  0  0
    1.7794    4.7611   -9.2399 C   0  0  0  0  0  0  0  0  0  0  0  0
    1.0655    5.3115  -10.3011 C   0  0  0  0  0  0  0  0  0  0  0  0
   -0.1426    4.7880  -10.7601 C   0  0  0  0  0  0  0  0  0  0  0  0
   -0.6508    3.6653  -10.1114 C   0  0  0  0  0  0  0  0  0  0  0  0
    0.0365    3.0910   -9.0425 C   0  0  0  0  0  0  0  0  0  0  0  0
    1.5597    6.3831  -10.9036 F   0  0  0  0  0  0  0  0  0  0  0  0
    3.1023    1.0415   -5.6298 C   0  0  0  0  0  0  0  0  0  0  0  0
    3.6133    1.3593   -4.5690 O   0  0  0  0  0  0  0  0  0  0  0  0
    3.8493    0.5008   -6.6461 N   0  0  0  0  0  0  0  0  0  0  0  0
    5.2450    0.1340   -6.4091 C   0  0  1  0  0  0  0  0  0  0  0  0
    5.7176    0.8904   -5.7295 H   0  0  0  0  0  0  0  0  0  0  0  0
    5.3512   -1.2585   -5.8368 C   0  0  0  0  0  0  0  0  0  0  0  0
    5.9208   -2.1526   -6.7573 C   0  0  0  0  0  0  0  0  0  0  0  0
    6.0901   -3.4864   -6.4271 C   0  0  0  0  0  0  0  0  0  0  0  0
    5.6799   -3.9180   -5.1602 C   0  0  0  0  0  0  0  0  0  0  0  0
    5.1246   -3.0261   -4.2456 C   0  0  0  0  0  0  0  0  0  0  0  0
    4.9558   -1.6782   -4.5799 C   0  0  0  0  0  0  0  0  0  0  0  0
    6.2883   -1.4714   -8.0353 C   0  0  0  0  0  0  0  0  0  0  0  0
    6.0278    0.0318   -7.7768 C   0  0  1  0  0  0  0  0  0  0  0  0
    6.9631    0.6227   -7.7390 H   0  0  0  0  0  0  0  0  0  0  0  0
    5.2459    0.4733   -8.8602 O   0  0  0  0  0  0  0  0  0  0  0  0
    1.5861    3.1151   -4.4034 O   0  0  0  0  0  0  0  0  0  0  0  0
    1.4287    0.2533   -3.3679 O   0  0  0  0  0  0  0  0  0  0  0  0
    0.9779    2.5891   -1.7086 C   0  0  0  0  0  0  0  0  0  0  0  0
    2.1627    2.3200   -1.8068 O   0  0  0  0  0  0  0  0  0  0  0  0
    0.5170    3.5210   -0.8141 N   0  0  0  0  0  0  0  0  0  0  0  0
    1.4055    4.2180    0.1085 C   0  0  1  0  0  0  0  0  0  0  0  0
    2.4689    3.9110   -0.0759 H   0  0  0  0  0  0  0  0  0  0  0  0
    1.2453    5.7135   -0.0132 C   0  0  0  0  0  0  0  0  0  0  0  0
    0.8271    6.2875    1.1985 C   0  0  0  0  0  0  0  0  0  0  0  0
    0.6214    7.6533    1.2994 C   0  0  0  0  0  0  0  0  0  0  0  0
    0.8399    8.4474    0.1687 C   0  0  0  0  0  0  0  0  0  0  0  0
    1.2562    7.8776   -1.0320 C   0  0  0  0  0  0  0  0  0  0  0  0
    1.4613    6.4968   -1.1328 C   0  0  0  0  0  0  0  0  0  0  0  0
    0.6468    5.2642    2.2698 C   0  0  0  0  0  0  0  0  0  0  0  0
    0.9928    3.9102    1.6069 C   0  0  1  0  0  0  0  0  0  0  0  0
    1.7892    3.3553    2.1358 H   0  0  0  0  0  0  0  0  0  0  0  0
   -0.1962    3.1640    1.6735 O   0  0  0  0  0  0  0  0  0  0  0  0
    1.9395    0.0073   -0.9496 H   0  0  0  0  0  0  0  0  0  0  0  0
    3.1948    0.0022    1.1846 H   0  0  0  0  0  0  0  0  0  0  0  0
    1.9698   -0.0001    3.3610 H   0  0  0  0  0  0  0  0  0  0  0  0
   -1.7912   -0.0190    1.2224 H   0  0  0  0  0  0  0  0  0  0  0  0
   -1.7769   -0.4345   -1.1854 H   0  0  0  0  0  0  0  0  0  0  0  0
   -0.2197   -0.6122   -2.0688 H   0  0  0  0  0  0  0  0  0  0  0  0
    3.0720    2.8897   -7.6977 H   0  0  0  0  0  0  0  0  0  0  0  0
    1.9147    3.6701   -6.5533 H   0  0  0  0  0  0  0  0  0  0  0  0
    2.7198    5.1975   -8.9112 H   0  0  0  0  0  0  0  0  0  0  0  0
   -0.6715    5.2376  -11.5975 H   0  0  0  0  0  0  0  0  0  0  0  0
   -1.5939    3.2312  -10.4423 H   0  0  0  0  0  0  0  0  0  0  0  0
   -0.3725    2.2108   -8.5455 H   0  0  0  0  0  0  0  0  0  0  0  0
    3.4285    0.1650   -7.5082 H   0  0  0  0  0  0  0  0  0  0  0  0
    6.5321   -4.1863   -7.1296 H   0  0  0  0  0  0  0  0  0  0  0  0
    5.7984   -4.9659   -4.8891 H   0  0  0  0  0  0  0  0  0  0  0  0
    4.8182   -3.3760   -3.2615 H   0  0  0  0  0  0  0  0  0  0  0  0
    4.5214   -0.9741   -3.8682 H   0  0  0  0  0  0  0  0  0  0  0  0
    7.3333   -1.6626   -8.3324 H   0  0  0  0  0  0  0  0  0  0  0  0
    5.6630   -1.8256   -8.8834 H   0  0  0  0  0  0  0  0  0  0  0  0
    5.0378    1.4276   -8.7770 H   0  0  0  0  0  0  0  0  0  0  0  0
    2.4224    2.7961   -3.9581 H   0  0  0  0  0  0  0  0  0  0  0  0
    2.2228    0.7736   -3.0521 H   0  0  0  0  0  0  0  0  0  0  0  0
   -0.4735    3.7136   -0.7027 H   0  0  0  0  0  0  0  0  0  0  0  0
    0.2940    8.1017    2.2327 H   0  0  0  0  0  0  0  0  0  0  0  0
    0.6797    9.5224    0.2313 H   0  0  0  0  0  0  0  0  0  0  0  0
    1.4244    8.5098   -1.9011 H   0  0  0  0  0  0  0  0  0  0  0  0
    1.7803    6.0515   -2.0738 H   0  0  0  0  0  0  0  0  0  0  0  0
    1.2767    5.4620    3.1529 H   0  0  0  0  0  0  0  0  0  0  0  0
   -0.4020    5.2425    2.6415 H   0  0  0  0  0  0  0  0  0  0  0  0
   -0.1234    2.3274    1.1613 H   0  0  0  0  0  0  0  0  0  0  0  0
  1  2  2  0  0  0  0
  1  6  1  0  0  0  0
  2  3  1  0  0  0  0
  3  4  2  0  0  0  0
  4 61  1  0  0  0  0
  5  4  1  0  0  0  0
  5  7  1  0  0  0  0
  6 62  1  0  0  0  0
  6  5  2  0  0  0  0
  8 63  1  0  0  0  0
  8  1  1  0  0  0  0
  9  8  1  0  0  0  0
 10 11  1  6  0  0  0
 10  9  1  0  0  0  0
 10 44  1  0  0  0  0
 12 13  1  6  0  0  0
 12 43  1  0  0  0  0
 12 10  1  0  0  0  0
 14 15  1  6  0  0  0
 14 42  1  0  0  0  0
 14 12  1  0  0  0  0
 16 17  1  6  0  0  0
 16 27  1  0  0  0  0
 16 14  1  0  0  0  0
 18 16  1  0  0  0  0
 19 18  1  0  0  0  0
 19 66  1  0  0  0  0
 20 19  1  0  0  0  0
 21 67  1  0  0  0  0
 21 20  2  0  0  0  0
 22 21  1  0  0  0  0
 23 22  2  0  0  0  0
 23 24  1  0  0  0  0
 24 25  2  0  0  0  0
 25 20  1  0  0  0  0
 25 70  1  0  0  0  0
 26 22  1  0  0  0  0
 27 28  2  0  0  0  0
 29 30  1  0  0  0  0
 29 27  1  0  0  0  0
 30 39  1  0  0  0  0
 30 32  1  0  0  0  0
 30 31  1  1  0  0  0
 32 37  2  0  0  0  0
 33 34  2  0  0  0  0
 33 32  1  0  0  0  0
 34 35  1  0  0  0  0
 35 73  1  0  0  0  0
 35 36  2  0  0  0  0
 36 74  1  0  0  0  0
 37 36  1  0  0  0  0
 37 75  1  0  0  0  0
 38 39  1  0  0  0  0
 38 33  1  0  0  0  0
 39 40  1  1  0  0  0
 41 78  1  0  0  0  0
 41 39  1  0  0  0  0
 42 79  1  0  0  0  0
 43 80  1  0  0  0  0
 44 46  1  0  0  0  0
 45 44  2  0  0  0  0
 46 81  1  0  0  0  0
 46 47  1  0  0  0  0
 47 56  1  0  0  0  0
 47 48  1  6  0  0  0
 49 47  1  0  0  0  0
 49 50  2  0  0  0  0
 50 51  1  0  0  0  0
 50 55  1  0  0  0  0
 51 82  1  0  0  0  0
 52 83  1  0  0  0  0
 52 51  2  0  0  0  0
 53 52  1  0  0  0  0
 54 53  2  0  0  0  0
 54 49  1  0  0  0  0
 55 87  1  0  0  0  0
 55 86  1  0  0  0  0
 56 58  1  0  0  0  0
 56 57  1  1  0  0  0
 56 55  1  0  0  0  0
 59  2  1  0  0  0  0
 60  3  1  0  0  0  0
 64  8  1  0  0  0  0
 65 19  1  0  0  0  0
 68 23  1  0  0  0  0
 69 24  1  0  0  0  0
 71 29  1  0  0  0  0
 72 34  1  0  0  0  0
 76 38  1  0  0  0  0
 77 38  1  0  0  0  0
 84 53  1  0  0  0  0
 85 54  1  0  0  0  0
 88 58  1  0  0  0  0
M  END
$$$$
