88
rmsd168.gzmat
C          0.00000        0.00000        0.00000
C          1.39690        0.00000        0.00000
C          2.10080        0.00000        1.20260
C          1.42000       -0.00130        2.41880
C          0.02620       -0.01260        2.38690
C         -0.70670       -0.01470        1.20170
F         -0.63070       -0.02610        3.53680
C         -0.73430        0.01120       -1.30840
O         -0.54540       -1.24230       -1.95410
C         -1.57030       -2.19510       -1.81780
H         -1.15550       -3.05520       -2.42070
C         -2.90250       -1.71580       -2.43250
H         -3.24500       -0.76810       -1.95740
C         -2.81330       -1.53070       -3.97050
H         -3.74480       -1.03360       -4.34200
C         -2.62460       -2.86440       -4.72340
H         -3.13120       -3.70060       -4.15950
O         -3.35170       -2.87370       -5.92790
C         -2.98740       -1.88840       -6.89450
C         -2.61130       -2.62130       -8.14910
C         -1.57770       -2.14500       -8.95410
C         -1.28830       -2.84820      -10.12170
C         -1.96520       -4.00560      -10.50240
C         -2.98140       -4.46890       -9.66940
C         -3.30930       -3.77870       -8.50460
F         -0.32140       -2.39680      -10.90820
C         -1.16070       -3.22860       -4.97300
O         -0.23750       -2.80190       -4.28350
N         -0.93000       -4.13580       -5.96450
C          0.42490       -4.59730       -6.27020
H          0.82580       -5.12340       -5.36420
C          0.37810       -5.50310       -7.47250
C          1.14690       -4.99750       -8.53290
C          1.20280       -5.66930       -9.74330
C          0.47560       -6.85540       -9.88440
C         -0.28430       -7.35680       -8.83010
C         -0.33690       -6.68020       -7.60720
C          1.81920       -3.71640       -8.17230
C          1.44360       -3.45690       -6.69440
H          2.32500       -3.47280       -6.02240
O          0.87790       -2.17760       -6.66280
O         -1.80360       -0.61240       -4.27680
O         -3.89410       -2.69630       -2.24540
C         -1.75030       -2.65810       -0.37610
O         -2.81270       -2.53740        0.21920
N         -0.71350       -3.29360        0.25950
C          0.61380       -3.46620       -0.32720
H          0.98080       -2.48340       -0.73600
C          1.58020       -4.00570        0.69240
C          2.20580       -5.17800        0.23750
C          3.13570       -5.83130        1.02910
C          3.43460       -5.30020        2.28830
C          2.81400       -4.13720        2.73770
C          1.87710       -3.47730        1.93580
C          1.73610       -5.56460       -1.12490
C          0.62950       -4.54340       -1.48800
H          0.78400       -4.07040       -2.48470
O         -0.60540       -5.17760       -1.63590
H          1.93650       -0.00150       -0.94650
H          3.19060        0.00180        1.19410
H          1.96310        0.01030        3.36150
H         -1.79750       -0.04300        1.21510
H         -0.27930        0.71980       -2.03400
H         -1.80030        0.27630       -1.19940
H         -2.18740       -1.21410       -6.53100
H         -3.91170       -1.29150       -7.04180
H         -1.00020       -1.26560       -8.66690
H         -1.70830       -4.53560      -11.41660
H         -3.52500       -5.37520       -9.93480
H         -4.11770       -4.13770       -7.86610
H         -1.65890       -4.36820       -6.63610
H          1.79100       -5.27950      -10.57010
H          0.50460       -7.39110      -10.83200
H         -0.84420       -8.28060       -8.95710
H         -0.93040       -7.07140       -6.78380
H          2.91170       -3.75350       -8.31750
H          1.46000       -2.87270       -8.80210
H          0.64140       -1.93660       -5.73630
H         -0.94070       -0.91360       -3.88570
H         -4.02030       -2.84910       -1.27190
H         -0.83920       -3.60210        1.21810
H          3.62320       -6.73900        0.68470
H          4.16090       -5.80570        2.92320
H          3.05620       -3.73630        3.72020
H          1.39660       -2.56430        2.28600
H          2.55870       -5.53910       -1.86290
H          1.33880       -6.59710       -1.15740
H         -0.93500       -5.54390       -0.78850
