rmsd168.gzmat
 OpenBabel08211713423D

 88 93  0  0  1  0  0  0  0  0999 V2000
    0.0000    0.0000    0.0000 C   0  0  0  0  0  0  0  0  0  0  0  0
    1.3969    0.0000    0.0000 C   0  0  0  0  0  0  0  0  0  0  0  0
    2.1008    0.0000    1.2026 C   0  0  0  0  0  0  0  0  0  0  0  0
    1.4200   -0.0013    2.4188 C   0  0  0  0  0  0  0  0  0  0  0  0
    0.0262   -0.0126    2.3869 C   0  0  0  0  0  0  0  0  0  0  0  0
   -0.7067   -0.0147    1.2017 C   0  0  0  0  0  0  0  0  0  0  0  0
   -0.6307   -0.0261    3.5368 F   0  0  0  0  0  0  0  0  0  0  0  0
   -0.7343    0.0112   -1.3084 C   0  0  0  0  0  0  0  0  0  0  0  0
   -0.5454   -1.2423   -1.9541 O   0  0  0  0  0  0  0  0  0  0  0  0
   -1.5703   -2.1951   -1.8178 C   0  0  2  0  0  0  0  0  0  0  0  0
   -1.1555   -3.0552   -2.4207 H   0  0  0  0  0  0  0  0  0  0  0  0
   -2.9025   -1.7158   -2.4325 C   0  0  1  0  0  0  0  0  0  0  0  0
   -3.2450   -0.7681   -1.9574 H   0  0  0  0  0  0  0  0  0  0  0  0
   -2.8133   -1.5307   -3.9705 C   0  0  2  0  0  0  0  0  0  0  0  0
   -3.7448   -1.0336   -4.3420 H   0  0  0  0  0  0  0  0  0  0  0  0
   -2.6246   -2.8644   -4.7234 C   0  0  1  0  0  0  0  0  0  0  0  0
   -3.1312   -3.7006   -4.1595 H   0  0  0  0  0  0  0  0  0  0  0  0
   -3.3517   -2.8737   -5.9279 O   0  0  0  0  0  0  0  0  0  0  0  0
   -2.9874   -1.8884   -6.8945 C   0  0  0  0  0  0  0  0  0  0  0  0
   -2.6113   -2.6213   -8.1491 C   0  0  0  0  0  0  0  0  0  0  0  0
   -1.5777   -2.1450   -8.9541 C   0  0  0  0  0  0  0  0  0  0  0  0
   -1.2883   -2.8482  -10.1217 C   0  0  0  0  0  0  0  0  0  0  0  0
   -1.9652   -4.0056  -10.5024 C   0  0  0  0  0  0  0  0  0  0  0  0
   -2.9814   -4.4689   -9.6694 C   0  0  0  0  0  0  0  0  0  0  0  0
   -3.3093   -3.7787   -8.5046 C   0  0  0  0  0  0  0  0  0  0  0  0
   -0.3214   -2.3968  -10.9082 F   0  0  0  0  0  0  0  0  0  0  0  0
   -1.1607   -3.2286   -4.9730 C   0  0  0  0  0  0  0  0  0  0  0  0
   -0.2375   -2.8019   -4.2835 O   0  0  0  0  0  0  0  0  0  0  0  0
   -0.9300   -4.1358   -5.9645 N   0  0  0  0  0  0  0  0  0  0  0  0
    0.4249   -4.5973   -6.2702 C   0  0  1  0  0  0  0  0  0  0  0  0
    0.8258   -5.1234   -5.3642 H   0  0  0  0  0  0  0  0  0  0  0  0
    0.3781   -5.5031   -7.4725 C   0  0  0  0  0  0  0  0  0  0  0  0
    1.1469   -4.9975   -8.5329 C   0  0  0  0  0  0  0  0  0  0  0  0
    1.2028   -5.6693   -9.7433 C   0  0  0  0  0  0  0  0  0  0  0  0
    0.4756   -6.8554   -9.8844 C   0  0  0  0  0  0  0  0  0  0  0  0
   -0.2843   -7.3568   -8.8301 C   0  0  0  0  0  0  0  0  0  0  0  0
   -0.3369   -6.6802   -7.6072 C   0  0  0  0  0  0  0  0  0  0  0  0
    1.8192   -3.7164   -8.1723 C   0  0  0  0  0  0  0  0  0  0  0  0
    1.4436   -3.4569   -6.6944 C   0  0  1  0  0  0  0  0  0  0  0  0
    2.3250   -3.4728   -6.0224 H   0  0  0  0  0  0  0  0  0  0  0  0
    0.8779   -2.1776   -6.6628 O   0  0  0  0  0  0  0  0  0  0  0  0
   -1.8036   -0.6124   -4.2768 O   0  0  0  0  0  0  0  0  0  0  0  0
   -3.8941   -2.6963   -2.2454 O   0  0  0  0  0  0  0  0  0  0  0  0
   -1.7503   -2.6581   -0.3761 C   0  0  0  0  0  0  0  0  0  0  0  0
   -2.8127   -2.5374    0.2192 O   0  0  0  0  0  0  0  0  0  0  0  0
   -0.7135   -3.2936    0.2595 N   0  0  0  0  0  0  0  0  0  0  0  0
    0.6138   -3.4662   -0.3272 C   0  0  1  0  0  0  0  0  0  0  0  0
    0.9808   -2.4834   -0.7360 H   0  0  0  0  0  0  0  0  0  0  0  0
    1.5802   -4.0057    0.6924 C   0  0  0  0  0  0  0  0  0  0  0  0
    2.2058   -5.1780    0.2375 C   0  0  0  0  0  0  0  0  0  0  0  0
    3.1357   -5.8313    1.0291 C   0  0  0  0  0  0  0  0  0  0  0  0
    3.4346   -5.3002    2.2883 C   0  0  0  0  0  0  0  0  0  0  0  0
    2.8140   -4.1372    2.7377 C   0  0  0  0  0  0  0  0  0  0  0  0
    1.8771   -3.4773    1.9358 C   0  0  0  0  0  0  0  0  0  0  0  0
    1.7361   -5.5646   -1.1249 C   0  0  0  0  0  0  0  0  0  0  0  0
    0.6295   -4.5434   -1.4880 C   0  0  1  0  0  0  0  0  0  0  0  0
    0.7840   -4.0704   -2.4847 H   0  0  0  0  0  0  0  0  0  0  0  0
   -0.6054   -5.1776   -1.6359 O   0  0  0  0  0  0  0  0  0  0  0  0
    1.9365   -0.0015   -0.9465 H   0  0  0  0  0  0  0  0  0  0  0  0
    3.1906    0.0018    1.1941 H   0  0  0  0  0  0  0  0  0  0  0  0
    1.9631    0.0103    3.3615 H   0  0  0  0  0  0  0  0  0  0  0  0
   -1.7975   -0.0430    1.2151 H   0  0  0  0  0  0  0  0  0  0  0  0
   -0.2793    0.7198   -2.0340 H   0  0  0  0  0  0  0  0  0  0  0  0
   -1.8003    0.2763   -1.1994 H   0  0  0  0  0  0  0  0  0  0  0  0
   -2.1874   -1.2141   -6.5310 H   0  0  0  0  0  0  0  0  0  0  0  0
   -3.9117   -1.2915   -7.0418 H   0  0  0  0  0  0  0  0  0  0  0  0
   -1.0002   -1.2656   -8.6669 H   0  0  0  0  0  0  0  0  0  0  0  0
   -1.7083   -4.5356  -11.4166 H   0  0  0  0  0  0  0  0  0  0  0  0
   -3.5250   -5.3752   -9.9348 H   0  0  0  0  0  0  0  0  0  0  0  0
   -4.1177   -4.1377   -7.8661 H   0  0  0  0  0  0  0  0  0  0  0  0
   -1.6589   -4.3682   -6.6361 H   0  0  0  0  0  0  0  0  0  0  0  0
    1.7910   -5.2795  -10.5701 H   0  0  0  0  0  0  0  0  0  0  0  0
    0.5046   -7.3911  -10.8320 H   0  0  0  0  0  0  0  0  0  0  0  0
   -0.8442   -8.2806   -8.9571 H   0  0  0  0  0  0  0  0  0  0  0  0
   -0.9304   -7.0714   -6.7838 H   0  0  0  0  0  0  0  0  0  0  0  0
    2.9117   -3.7535   -8.3175 H   0  0  0  0  0  0  0  0  0  0  0  0
    1.4600   -2.8727   -8.8021 H   0  0  0  0  0  0  0  0  0  0  0  0
    0.6414   -1.9366   -5.7363 H   0  0  0  0  0  0  0  0  0  0  0  0
   -0.9407   -0.9136   -3.8857 H   0  0  0  0  0  0  0  0  0  0  0  0
   -4.0203   -2.8491   -1.2719 H   0  0  0  0  0  0  0  0  0  0  0  0
   -0.8392   -3.6021    1.2181 H   0  0  0  0  0  0  0  0  0  0  0  0
    3.6232   -6.7390    0.6847 H   0  0  0  0  0  0  0  0  0  0  0  0
    4.1609   -5.8057    2.9232 H   0  0  0  0  0  0  0  0  0  0  0  0
    3.0562   -3.7363    3.7202 H   0  0  0  0  0  0  0  0  0  0  0  0
    1.3966   -2.5643    2.2860 H   0  0  0  0  0  0  0  0  0  0  0  0
    2.5587   -5.5391   -1.8629 H   0  0  0  0  0  0  0  0  0  0  0  0
    1.3388   -6.5971   -1.1574 H   0  0  0  0  0  0  0  0  0  0  0  0
   -0.9350   -5.5439   -0.7885 H   0  0  0  0  0  0  0  0  0  0  0  0
  1  2  2  0  0  0  0
  1  6  1  0  0  0  0
  2  3  1  0  0  0  0
  3  4  2  0  0  0  0
  4 61  1  0  0  0  0
  5  4  1  0  0  0  0
  5  7  1  0  0  0  0
  6 62  1  0  0  0  0
  6  5  2  0  0  0  0
  8 64  1  0  0  0  0
  8  1  1  0  0  0  0
  9 10  1  0  0  0  0
  9  8  1  0  0  0  0
 10 11  1  6  0  0  0
 10 44  1  0  0  0  0
 12 43  1  0  0  0  0
 12 13  1  1  0  0  0
 12 10  1  0  0  0  0
 14 15  1  6  0  0  0
 14 12  1  0  0  0  0
 16 17  1  1  0  0  0
 16 14  1  0  0  0  0
 18 16  1  0  0  0  0
 19 65  1  0  0  0  0
 19 18  1  0  0  0  0
 20 19  1  0  0  0  0
 21 67  1  0  0  0  0
 21 20  2  0  0  0  0
 22 21  1  0  0  0  0
 23 22  2  0  0  0  0
 23 24  1  0  0  0  0
 24 25  2  0  0  0  0
 25 20  1  0  0  0  0
 25 70  1  0  0  0  0
 26 22  1  0  0  0  0
 27 16  1  0  0  0  0
 27 28  2  0  0  0  0
 29 27  1  0  0  0  0
 30 39  1  0  0  0  0
 30 29  1  0  0  0  0
 30 31  1  1  0  0  0
 32 30  1  0  0  0  0
 33 38  1  0  0  0  0
 33 32  2  0  0  0  0
 34 33  1  0  0  0  0
 35 34  2  0  0  0  0
 35 36  1  0  0  0  0
 36 37  2  0  0  0  0
 37 32  1  0  0  0  0
 37 75  1  0  0  0  0
 38 39  1  0  0  0  0
 39 41  1  0  0  0  0
 39 40  1  1  0  0  0
 41 78  1  0  0  0  0
 42 14  1  0  0  0  0
 42 79  1  0  0  0  0
 43 80  1  0  0  0  0
 44 45  2  0  0  0  0
 44 46  1  0  0  0  0
 46 81  1  0  0  0  0
 47 56  1  0  0  0  0
 47 46  1  0  0  0  0
 47 49  1  0  0  0  0
 47 48  1  6  0  0  0
 49 54  1  0  0  0  0
 50 49  2  0  0  0  0
 50 51  1  0  0  0  0
 51 52  2  0  0  0  0
 52 53  1  0  0  0  0
 52 83  1  0  0  0  0
 53 84  1  0  0  0  0
 54 85  1  0  0  0  0
 54 53  2  0  0  0  0
 55 50  1  0  0  0  0
 56 57  1  6  0  0  0
 56 55  1  0  0  0  0
 58 56  1  0  0  0  0
 58 88  1  0  0  0  0
 59  2  1  0  0  0  0
 60  3  1  0  0  0  0
 63  8  1  0  0  0  0
 66 19  1  0  0  0  0
 68 23  1  0  0  0  0
 69 24  1  0  0  0  0
 71 29  1  0  0  0  0
 72 34  1  0  0  0  0
 73 35  1  0  0  0  0
 74 36  1  0  0  0  0
 76 38  1  0  0  0  0
 77 38  1  0  0  0  0
 82 51  1  0  0  0  0
 86 55  1  0  0  0  0
 87 55  1  0  0  0  0
M  END
$$$$
