88
rmsd90.gzmat
C          0.00000        0.00000        0.00000
C          1.39560        0.00000        0.00000
C          2.10400        0.00000        1.20060
C          1.42750       -0.00880        2.41810
C          0.03340       -0.03230        2.39030
C         -0.70220       -0.01660        1.20660
F         -0.62050       -0.07420        3.54110
C         -0.75180       -0.01950       -1.29830
O         -1.05010        1.29510       -1.74180
C         -0.12860        1.96360       -2.56750
H         -0.78180        2.78610       -2.97360
C          0.39450        1.11380       -3.73750
H         -0.40600        0.41330       -4.08260
C          0.84730        2.03950       -4.89670
H         -0.03050        2.53680       -5.37970
C          1.61530        1.21740       -5.95060
H          1.14490        0.20210       -6.05960
O          1.44050        1.73810       -7.24490
C          1.99940        3.03440       -7.46220
C          1.24710        3.63330       -8.61060
C          1.77940        4.76110       -9.23990
C          1.06550        5.31150      -10.30110
C         -0.14260        4.78800      -10.76010
C         -0.65080        3.66530      -10.11140
C          0.03650        3.09100       -9.04250
F          1.55970        6.38310      -10.90360
C          3.10230        1.04150       -5.62980
O          3.61330        1.35930       -4.56900
N          3.84930        0.50080       -6.64610
C          5.24500        0.13400       -6.40910
H          5.71760        0.89040       -5.72950
C          5.35120       -1.25850       -5.83680
C          5.92080       -2.15260       -6.75730
C          6.09010       -3.48640       -6.42710
C          5.67990       -3.91800       -5.16020
C          5.12460       -3.02610       -4.24560
C          4.95580       -1.67820       -4.57990
C          6.28830       -1.47140       -8.03530
C          6.02780        0.03180       -7.77680
H          6.96310        0.62270       -7.73900
O          5.24590        0.47330       -8.86020
O          1.58610        3.11510       -4.40340
O          1.42870        0.25330       -3.36790
C          0.97790        2.58910       -1.70860
O          2.16270        2.32000       -1.80680
N          0.51700        3.52100       -0.81410
C          1.40550        4.21800        0.10850
H          2.46890        3.91100       -0.07590
C          1.24530        5.71350       -0.01320
C          0.82710        6.28750        1.19850
C          0.62140        7.65330        1.29940
C          0.83990        8.44740        0.16870
C          1.25620        7.87760       -1.03200
C          1.46130        6.49680       -1.13280
C          0.64680        5.26420        2.26980
C          0.99280        3.91020        1.60690
H          1.78920        3.35530        2.13580
O         -0.19620        3.16400        1.67350
H          1.93950        0.00730       -0.94960
H          3.19480        0.00220        1.18460
H          1.96980       -0.00010        3.36100
H         -1.79120       -0.01900        1.22240
H         -1.77690       -0.43450       -1.18540
H         -0.21970       -0.61220       -2.06880
H          3.07200        2.88970       -7.69770
H          1.91470        3.67010       -6.55330
H          2.71980        5.19750       -8.91120
H         -0.67150        5.23760      -11.59750
H         -1.59390        3.23120      -10.44230
H         -0.37250        2.21080       -8.54550
H          3.42850        0.16500       -7.50820
H          6.53210       -4.18630       -7.12960
H          5.79840       -4.96590       -4.88910
H          4.81820       -3.37600       -3.26150
H          4.52140       -0.97410       -3.86820
H          7.33330       -1.66260       -8.33240
H          5.66300       -1.82560       -8.88340
H          5.03780        1.42760       -8.77700
H          2.42240        2.79610       -3.95810
H          2.22280        0.77360       -3.05210
H         -0.47350        3.71360       -0.70270
H          0.29400        8.10170        2.23270
H          0.67970        9.52240        0.23130
H          1.42440        8.50980       -1.90110
H          1.78030        6.05150       -2.07380
H          1.27670        5.46200        3.15290
H         -0.40200        5.24250        2.64150
H         -0.12340        2.32740        1.16130
