88

C          0.18310        0.01140       -0.10450
C          1.50290        0.26210       -0.50860
C          2.53250        0.31400        0.43310
C          2.26290        0.11550        1.79050
C          0.94710       -0.12010        2.17430
C         -0.09500       -0.17140        1.25450
F          0.67240       -0.34380        3.47230
C         -0.90260       -0.17250       -1.13490
O         -0.70170       -1.40720       -1.83680
C         -1.72760       -2.38980       -1.72250
H         -1.32770       -3.27620       -2.22600
C         -3.01490       -1.96520       -2.45520
H         -3.32550       -0.97640       -2.06510
C         -2.82000       -1.77380       -3.97600
H         -3.77380       -1.35630       -4.33390
C         -2.68080       -3.10610       -4.76240
H         -3.18010       -3.88040       -4.15840
O         -3.38750       -3.08990       -5.98990
C         -3.01660       -2.06860       -6.92580
C         -2.64610       -2.69070       -8.25190
C         -1.47060       -2.30380       -8.90540
C         -1.12850       -2.92530      -10.10160
C         -1.90850       -3.92600      -10.67010
C         -3.07710       -4.31060      -10.00820
C         -3.44820       -3.69870       -8.80910
F          0.01870       -2.56960      -10.71070
C         -1.22700       -3.55140       -4.97160
O         -0.32780       -3.28880       -4.16280
N         -1.00170       -4.24890       -6.09480
C          0.32470       -4.67910       -6.49560
H          0.72300       -5.32290       -5.69300
C          0.27950       -5.41490       -7.81250
C          1.16390       -4.85690       -8.74190
C          1.27270       -5.40660      -10.02090
C          0.48090       -6.50710      -10.36040
C         -0.41480       -7.05420       -9.43270
C         -0.51870       -6.51010       -8.14960
C          1.87210       -3.65290       -8.18140
C          1.35200       -3.49170       -6.73420
H          2.17740       -3.62350       -6.01400
O          0.78830       -2.21170       -6.58440
O         -1.81860       -0.82360       -4.26810
O         -4.02890       -2.91940       -2.27290
C         -1.98160       -2.77690       -0.26090
O         -3.10370       -2.72120        0.24430
N         -0.90810       -3.17890        0.46140
C          0.46190       -3.40610        0.02590
H          0.88940       -2.45980       -0.33880
C          1.30940       -3.94600        1.15770
C          2.18960       -4.92930        0.68240
C          3.07580       -5.55830        1.55760
C          3.07420       -5.19420        2.90920
C          2.19980       -4.20690        3.37830
C          1.31150       -3.57220        2.50230
C          2.01300       -5.11260       -0.80500
C          0.63410       -4.48000       -1.10510
H          0.60750       -4.02230       -2.10130
O         -0.41320       -5.42500       -1.09900
H          1.72280        0.39940       -1.56970
H          3.55880        0.50400        0.11130
H          3.04920        0.13440        2.54650
H         -1.10770       -0.38020        1.60380
H         -0.88280        0.63520       -1.88420
H         -1.88930       -0.15340       -0.64860
H         -2.18240       -1.46420       -6.54240
H         -3.88220       -1.39380       -7.05080
H         -0.79400       -1.57360       -8.46090
H         -1.58460       -4.40030      -11.59670
H         -3.69870       -5.10230      -10.43250
H         -4.35170       -4.01430       -8.28410
H         -1.76840       -4.34130       -6.75400
H          1.95260       -4.96720      -10.75430
H          0.55520       -6.94050      -11.36090
H         -1.03280       -7.91060       -9.71260
H         -1.21370       -6.93630       -7.42140
H          2.96730       -3.77170       -8.20930
H          1.63370       -2.74730       -8.76010
H          0.56510       -2.10920       -5.64600
H         -1.03510       -1.08880       -3.75450
H         -4.14530       -2.98500       -1.30610
H         -1.14330       -3.45410        1.41070
H          3.76060       -6.32920        1.19450
H          3.76030       -5.68460        3.60400
H          2.21120       -3.92560        4.43390
H          0.64800       -2.78960        2.87540
H          2.80610       -4.57350       -1.35320
H          2.04190       -6.16090       -1.13940
H         -0.49880       -5.78420       -0.20430
