rmsd170.gzmat
 OpenBabel08211713423D

 88 93  0  0  1  0  0  0  0  0999 V2000
    0.0000    0.0000    0.0000 C   0  0  0  0  0  0  0  0  0  0  0  0
    1.3967    0.0000    0.0000 C   0  0  0  0  0  0  0  0  0  0  0  0
    2.1040    0.0000    1.2002 C   0  0  0  0  0  0  0  0  0  0  0  0
    1.4258    0.0277    2.4174 C   0  0  0  0  0  0  0  0  0  0  0  0
    0.0327    0.0587    2.3870 C   0  0  0  0  0  0  0  0  0  0  0  0
   -0.7031    0.0355    1.2035 C   0  0  0  0  0  0  0  0  0  0  0  0
   -0.6250    0.1002    3.5365 F   0  0  0  0  0  0  0  0  0  0  0  0
   -0.7399   -0.0974   -1.3021 C   0  0  0  0  0  0  0  0  0  0  0  0
   -0.1348   -1.0310   -2.1909 O   0  0  0  0  0  0  0  0  0  0  0  0
   -0.0372   -2.3365   -1.6548 C   0  0  2  0  0  0  0  0  0  0  0  0
    0.2022   -2.2829   -0.5628 H   0  0  0  0  0  0  0  0  0  0  0  0
    1.1095   -3.0078   -2.4412 C   0  0  1  0  0  0  0  0  0  0  0  0
    1.2679   -2.4886   -3.4187 H   0  0  0  0  0  0  0  0  0  0  0  0
    2.4439   -3.1097   -1.6654 C   0  0  2  0  0  0  0  0  0  0  0  0
    3.1178   -3.8228   -2.2016 H   0  0  0  0  0  0  0  0  0  0  0  0
    2.2458   -3.5558   -0.1929 C   0  0  1  0  0  0  0  0  0  0  0  0
    1.7100   -2.7693    0.3944 H   0  0  0  0  0  0  0  0  0  0  0  0
    1.5486   -4.7831   -0.2304 O   0  0  0  0  0  0  0  0  0  0  0  0
    0.4146   -4.8834    0.6271 C   0  0  0  0  0  0  0  0  0  0  0  0
    0.8243   -4.9204    2.0674 C   0  0  0  0  0  0  0  0  0  0  0  0
    0.8770   -3.7388    2.8069 C   0  0  0  0  0  0  0  0  0  0  0  0
    1.2859   -3.8191    4.1368 C   0  0  0  0  0  0  0  0  0  0  0  0
    1.6204   -5.0223    4.7576 C   0  0  0  0  0  0  0  0  0  0  0  0
    1.5385   -6.1898    4.0033 C   0  0  0  0  0  0  0  0  0  0  0  0
    1.1516   -6.1397    2.6643 C   0  0  0  0  0  0  0  0  0  0  0  0
    1.3557   -2.7030    4.8452 F   0  0  0  0  0  0  0  0  0  0  0  0
    3.6258   -3.7411    0.4406 C   0  0  0  0  0  0  0  0  0  0  0  0
    4.4379   -2.8246    0.3889 O   0  0  0  0  0  0  0  0  0  0  0  0
    3.8881   -4.9211    1.0590 N   0  0  0  0  0  0  0  0  0  0  0  0
    5.1198   -5.1067    1.8154 C   0  0  1  0  0  0  0  0  0  0  0  0
    5.9858   -4.6927    1.2298 H   0  0  0  0  0  0  0  0  0  0  0  0
    5.0826   -4.4683    3.1846 C   0  0  0  0  0  0  0  0  0  0  0  0
    5.5373   -5.3668    4.1653 C   0  0  0  0  0  0  0  0  0  0  0  0
    5.5719   -4.9975    5.4978 C   0  0  0  0  0  0  0  0  0  0  0  0
    5.1490   -3.7086    5.8446 C   0  0  0  0  0  0  0  0  0  0  0  0
    4.7174   -2.8136    4.8699 C   0  0  0  0  0  0  0  0  0  0  0  0
    4.6857   -3.1881    3.5215 C   0  0  0  0  0  0  0  0  0  0  0  0
    5.9348   -6.6766    3.5615 C   0  0  0  0  0  0  0  0  0  0  0  0
    5.3466   -6.6360    2.1305 C   0  0  1  0  0  0  0  0  0  0  0  0
    5.9558   -7.1468    1.3629 H   0  0  0  0  0  0  0  0  0  0  0  0
    4.1261   -7.3288    2.0888 O   0  0  0  0  0  0  0  0  0  0  0  0
    3.0340   -1.8379   -1.6907 O   0  0  0  0  0  0  0  0  0  0  0  0
    0.7559   -4.3262   -2.7940 O   0  0  0  0  0  0  0  0  0  0  0  0
   -1.4127   -3.0132   -1.7616 C   0  0  0  0  0  0  0  0  0  0  0  0
   -2.1852   -2.9525   -0.8214 O   0  0  0  0  0  0  0  0  0  0  0  0
   -1.7662   -3.6322   -2.9360 N   0  0  0  0  0  0  0  0  0  0  0  0
   -2.9678   -4.4579   -2.9482 C   0  0  1  0  0  0  0  0  0  0  0  0
   -3.8115   -3.8819   -2.4780 H   0  0  0  0  0  0  0  0  0  0  0  0
   -3.3235   -4.8953   -4.3425 C   0  0  0  0  0  0  0  0  0  0  0  0
   -3.5673   -6.2786   -4.3927 C   0  0  0  0  0  0  0  0  0  0  0  0
   -3.9149   -6.8878   -5.5862 C   0  0  0  0  0  0  0  0  0  0  0  0
   -4.0112   -6.0976   -6.7375 C   0  0  0  0  0  0  0  0  0  0  0  0
   -3.7666   -4.7280   -6.6858 C   0  0  0  0  0  0  0  0  0  0  0  0
   -3.4209   -4.1120   -5.4779 C   0  0  0  0  0  0  0  0  0  0  0  0
   -3.3876   -6.9196   -3.0553 C   0  0  0  0  0  0  0  0  0  0  0  0
   -2.7720   -5.8171   -2.1574 C   0  0  1  0  0  0  0  0  0  0  0  0
   -3.1994   -5.7694   -1.1373 H   0  0  0  0  0  0  0  0  0  0  0  0
   -1.4207   -6.0941   -1.9174 O   0  0  0  0  0  0  0  0  0  0  0  0
    1.9321   -0.0224   -0.9557 H   0  0  0  0  0  0  0  0  0  0  0  0
    3.1949   -0.0264    1.1871 H   0  0  0  0  0  0  0  0  0  0  0  0
    1.9697    0.0317    3.3600 H   0  0  0  0  0  0  0  0  0  0  0  0
   -1.7918    0.0304    1.2187 H   0  0  0  0  0  0  0  0  0  0  0  0
   -0.6744    0.8408   -1.8902 H   0  0  0  0  0  0  0  0  0  0  0  0
   -1.8061   -0.3703   -1.1691 H   0  0  0  0  0  0  0  0  0  0  0  0
   -0.0340   -5.8404    0.2723 H   0  0  0  0  0  0  0  0  0  0  0  0
   -0.3160   -4.0769    0.4133 H   0  0  0  0  0  0  0  0  0  0  0  0
    0.5935   -2.7802    2.3695 H   0  0  0  0  0  0  0  0  0  0  0  0
    1.9338   -5.0499    5.8000 H   0  0  0  0  0  0  0  0  0  0  0  0
    1.7676   -7.1479    4.4697 H   0  0  0  0  0  0  0  0  0  0  0  0
    1.0923   -7.0609    2.0832 H   0  0  0  0  0  0  0  0  0  0  0  0
    3.2097   -5.6808    1.0681 H   0  0  0  0  0  0  0  0  0  0  0  0
    5.9189   -5.6875    6.2611 H   0  0  0  0  0  0  0  0  0  0  0  0
    5.1620   -3.4046    6.8901 H   0  0  0  0  0  0  0  0  0  0  0  0
    4.3977   -1.8120    5.1545 H   0  0  0  0  0  0  0  0  0  0  0  0
    4.3625   -2.4820    2.7555 H   0  0  0  0  0  0  0  0  0  0  0  0
    7.0348   -6.7911    3.5426 H   0  0  0  0  0  0  0  0  0  0  0  0
    5.5522   -7.5472    4.1242 H   0  0  0  0  0  0  0  0  0  0  0  0
    3.5501   -7.0760    2.8461 H   0  0  0  0  0  0  0  0  0  0  0  0
    3.8108   -1.8252   -1.0635 H   0  0  0  0  0  0  0  0  0  0  0  0
    0.7965   -4.9085   -1.9942 H   0  0  0  0  0  0  0  0  0  0  0  0
   -1.0726   -3.8084   -3.6540 H   0  0  0  0  0  0  0  0  0  0  0  0
   -4.1064   -7.9560   -5.6336 H   0  0  0  0  0  0  0  0  0  0  0  0
   -4.2810   -6.5629   -7.6842 H   0  0  0  0  0  0  0  0  0  0  0  0
   -3.8430   -4.1286   -7.5909 H   0  0  0  0  0  0  0  0  0  0  0  0
   -3.2315   -3.0409   -5.4344 H   0  0  0  0  0  0  0  0  0  0  0  0
   -4.3480   -7.2815   -2.6457 H   0  0  0  0  0  0  0  0  0  0  0  0
   -2.7248   -7.8044   -3.0949 H   0  0  0  0  0  0  0  0  0  0  0  0
   -0.8878   -6.0306   -2.7392 H   0  0  0  0  0  0  0  0  0  0  0  0
  1  6  1  0  0  0  0
  2  1  2  0  0  0  0
  2  3  1  0  0  0  0
  3  4  2  0  0  0  0
  4 61  1  0  0  0  0
  5  4  1  0  0  0  0
  5  7  1  0  0  0  0
  6 62  1  0  0  0  0
  6  5  2  0  0  0  0
  8 64  1  0  0  0  0
  8  1  1  0  0  0  0
  9 10  1  0  0  0  0
  9  8  1  0  0  0  0
 10 11  1  1  0  0  0
 12 13  1  6  0  0  0
 12 14  1  0  0  0  0
 12 10  1  0  0  0  0
 14 15  1  6  0  0  0
 14 16  1  0  0  0  0
 16 17  1  1  0  0  0
 16 27  1  0  0  0  0
 18 16  1  0  0  0  0
 18 19  1  0  0  0  0
 19 20  1  0  0  0  0
 20 25  2  0  0  0  0
 20 21  1  0  0  0  0
 21 22  2  0  0  0  0
 22 23  1  0  0  0  0
 22 26  1  0  0  0  0
 23 68  1  0  0  0  0
 24 69  1  0  0  0  0
 24 23  2  0  0  0  0
 25 24  1  0  0  0  0
 27 29  1  0  0  0  0
 28 27  2  0  0  0  0
 29 71  1  0  0  0  0
 29 30  1  0  0  0  0
 30 39  1  0  0  0  0
 30 32  1  0  0  0  0
 30 31  1  6  0  0  0
 32 37  2  0  0  0  0
 32 33  1  0  0  0  0
 33 34  2  0  0  0  0
 34 35  1  0  0  0  0
 34 72  1  0  0  0  0
 35 73  1  0  0  0  0
 36 74  1  0  0  0  0
 36 35  2  0  0  0  0
 37 36  1  0  0  0  0
 38 77  1  0  0  0  0
 38 33  1  0  0  0  0
 39 40  1  6  0  0  0
 39 38  1  0  0  0  0
 41 39  1  0  0  0  0
 41 78  1  0  0  0  0
 42 14  1  0  0  0  0
 42 79  1  0  0  0  0
 43 12  1  0  0  0  0
 43 80  1  0  0  0  0
 44 10  1  0  0  0  0
 44 45  2  0  0  0  0
 46 44  1  0  0  0  0
 47 46  1  0  0  0  0
 47 48  1  1  0  0  0
 47 56  1  0  0  0  0
 49 47  1  0  0  0  0
 50 49  1  0  0  0  0
 50 55  1  0  0  0  0
 51 50  2  0  0  0  0
 52 53  2  0  0  0  0
 52 51  1  0  0  0  0
 53 54  1  0  0  0  0
 54 85  1  0  0  0  0
 54 49  2  0  0  0  0
 55 86  1  0  0  0  0
 55 56  1  0  0  0  0
 56 58  1  0  0  0  0
 56 57  1  1  0  0  0
 59  2  1  0  0  0  0
 60  3  1  0  0  0  0
 63  8  1  0  0  0  0
 65 19  1  0  0  0  0
 66 19  1  0  0  0  0
 67 21  1  0  0  0  0
 70 25  1  0  0  0  0
 75 37  1  0  0  0  0
 76 38  1  0  0  0  0
 81 46  1  0  0  0  0
 82 51  1  0  0  0  0
 83 52  1  0  0  0  0
 84 53  1  0  0  0  0
 87 55  1  0  0  0  0
 88 58  1  0  0  0  0
M  END
$$$$
