88

C          0.15750        0.18650       -0.13570
C          1.51000        0.49890        0.06560
C          2.10170        0.31350        1.31610
C          1.35000       -0.17670        2.38910
C          0.00640       -0.46810        2.17490
C         -0.60130       -0.30950        0.93320
F         -0.71840       -0.97120        3.19490
C         -0.44290        0.25800       -1.52280
O          0.08520       -0.73870       -2.39460
C          0.01380       -2.07510       -1.93460
H          0.13780       -2.08180       -0.84350
C          1.20450       -2.83070       -2.57760
H          1.43970       -2.30460       -3.51430
C          2.47140       -2.78240       -1.69910
H          3.17080       -3.51200       -2.15840
C          2.19870       -3.25980       -0.24490
H          1.63030       -2.47370        0.27710
O          1.46300       -4.47770       -0.26870
C          0.34040       -4.58890        0.62860
C          0.75450       -4.93210        2.03750
C          0.82540       -3.93370        3.01540
C          1.26980       -4.25670        4.29370
C          1.64740       -5.54960        4.63960
C          1.55020       -6.55000        3.66730
C          1.10940       -6.24740        2.37530
F          1.33880       -3.28530        5.21520
C          3.53010       -3.36100        0.49240
O          4.25020       -2.36160        0.58120
N          3.84730       -4.56580        0.98080
C          5.03670       -4.83130        1.75690
H          5.87430       -4.27280        1.30510
C          4.93910       -4.48690        3.23410
C          5.54010       -5.49390        4.00290
C          5.55580       -5.39880        5.39470
C          4.97600       -4.27880        6.00350
C          4.39610       -3.26620        5.22990
C          4.37180       -3.36440        3.83440
C          6.11830       -6.56050        3.09910
C          5.34150       -6.35870        1.78280
H          5.90560       -6.67830        0.89560
O          4.13930       -7.10670        1.76360
O          3.00580       -1.49100       -1.69050
O          0.94080       -4.18720       -2.91190
C         -1.41990       -2.61370       -2.09380
O         -2.29210       -2.18060       -1.34470
N         -1.66270       -3.53560       -3.05680
C         -2.89220       -4.28890       -3.03040
H         -3.72170       -3.57860       -2.87490
C         -3.12580       -5.12270       -4.26930
C         -3.74250       -6.33610       -3.92270
C         -4.06080       -7.26740       -4.91060
C         -3.75150       -6.97510       -6.24530
C         -3.13210       -5.76650       -6.58550
C         -2.81470       -4.82870       -5.59530
C         -3.96020       -6.39450       -2.42530
C         -2.95210       -5.35780       -1.88990
H         -3.24880       -4.90600       -0.93520
O         -1.67520       -5.93490       -1.65830
H          2.10680        0.84300       -0.77910
H          3.16220        0.53010        1.45780
H          1.78470       -0.34230        3.37660
H         -1.64010       -0.61090        0.78820
H         -0.18220        1.21190       -2.00450
H         -1.53980        0.17930       -1.46270
H         -0.29040       -5.37320        0.18960
H         -0.23430       -3.64860        0.61570
H          0.51830       -2.91020        2.81050
H          2.00620       -5.75470        5.64870
H          1.81250       -7.57880        3.92800
H          1.04680       -7.03460        1.62060
H          3.19220       -5.33220        0.85280
H          6.01270       -6.18440        6.00240
H          4.97760       -4.19280        7.09280
H          3.94250       -2.40290        5.72000
H          3.91900       -2.58110        3.22440
H          7.19730       -6.38540        2.93880
H          6.00520       -7.58950        3.47290
H          3.63490       -6.89450        2.56530
H          3.64330       -1.45880       -0.94860
H          0.96110       -4.67810       -2.06890
H         -0.82610       -4.00630       -3.40760
H         -4.53740       -8.21590       -4.64940
H         -3.98910       -7.70020       -7.02740
H         -2.89140       -5.55600       -7.63030
H         -2.32640       -3.88530       -5.85090
H         -4.99070       -6.08660       -2.17270
H         -3.79590       -7.38800       -1.98060
H         -1.38780       -6.37140       -2.47420
