
     RDKit          3D

 88 93  0  0  0  0  0  0  0  0999 V2000
    0.0163   -0.1230    0.3426 C   0  0  0  0  0  0  0  0  0  0  0  0
    1.3788    0.2016    0.4309 C   0  0  0  0  0  0  0  0  0  0  0  0
    1.9492    0.5144    1.6635 C   0  0  0  0  0  0  0  0  0  0  0  0
    1.1806    0.5037    2.8302 C   0  0  0  0  0  0  0  0  0  0  0  0
   -0.1643    0.1715    2.7264 C   0  0  0  0  0  0  0  0  0  0  0  0
   -0.7627   -0.1359    1.5052 C   0  0  0  0  0  0  0  0  0  0  0  0
   -0.9191    0.1427    3.8378 F   0  0  0  0  0  0  0  0  0  0  0  0
   -0.5634   -0.4515   -1.0095 C   0  0  0  0  0  0  0  0  0  0  0  0
   -1.9396   -0.7733   -0.8752 O   0  0  0  0  0  0  0  0  0  0  0  0
   -2.6267   -1.3795   -1.9527 C   0  0  2  0  0  0  0  0  0  0  0  0
   -3.6822   -1.3446   -1.6538 H   0  0  0  0  0  0  0  0  0  0  0  0
   -2.2506   -2.8544   -2.1663 C   0  0  1  0  0  0  0  0  0  0  0  0
   -1.1603   -2.9205   -2.3375 H   0  0  0  0  0  0  0  0  0  0  0  0
   -2.6580   -3.8033   -1.0174 C   0  0  2  0  0  0  0  0  0  0  0  0
   -3.7110   -3.6015   -0.7581 H   0  0  0  0  0  0  0  0  0  0  0  0
   -1.8355   -3.6248    0.2654 C   0  0  1  0  0  0  0  0  0  0  0  0
   -1.8420   -2.5558    0.5068 H   0  0  0  0  0  0  0  0  0  0  0  0
   -2.4390   -4.2466    1.3910 O   0  0  0  0  0  0  0  0  0  0  0  0
   -2.3266   -5.6552    1.5325 C   0  0  0  0  0  0  0  0  0  0  0  0
   -1.0359   -6.0716    2.2065 C   0  0  0  0  0  0  0  0  0  0  0  0
   -0.4764   -5.2462    3.1898 C   0  0  0  0  0  0  0  0  0  0  0  0
    0.7096   -5.6345    3.7924 C   0  0  0  0  0  0  0  0  0  0  0  0
    1.3677   -6.8172    3.4739 C   0  0  0  0  0  0  0  0  0  0  0  0
    0.7990   -7.6372    2.4955 C   0  0  0  0  0  0  0  0  0  0  0  0
   -0.3881   -7.2631    1.8600 C   0  0  0  0  0  0  0  0  0  0  0  0
    1.2788   -4.7977    4.7015 F   0  0  0  0  0  0  0  0  0  0  0  0
   -0.3784   -4.0656    0.0422 C   0  0  0  0  0  0  0  0  0  0  0  0
   -0.0981   -4.9881   -0.7367 O   0  0  0  0  0  0  0  0  0  0  0  0
    0.5437   -3.3923    0.7384 N   0  0  0  0  0  0  0  0  0  0  0  0
    1.9597   -3.6951    0.6865 C   0  0  1  0  0  0  0  0  0  0  0  0
    2.0495   -4.7585    0.4169 H   0  0  0  0  0  0  0  0  0  0  0  0
    2.7086   -2.8274   -0.3020 C   0  0  0  0  0  0  0  0  0  0  0  0
    3.8089   -2.2085    0.2974 C   0  0  0  0  0  0  0  0  0  0  0  0
    4.5995   -1.3242   -0.4400 C   0  0  0  0  0  0  0  0  0  0  0  0
    4.2708   -1.0682   -1.7759 C   0  0  0  0  0  0  0  0  0  0  0  0
    3.1733   -1.7019   -2.3755 C   0  0  0  0  0  0  0  0  0  0  0  0
    2.3874   -2.5940   -1.6396 C   0  0  0  0  0  0  0  0  0  0  0  0
    3.9506   -2.6318    1.7370 C   0  0  0  0  0  0  0  0  0  0  0  0
    2.6493   -3.4054    2.0705 C   0  0  1  0  0  0  0  0  0  0  0  0
    2.8761   -4.3578    2.5695 H   0  0  0  0  0  0  0  0  0  0  0  0
    1.8015   -2.6289    2.8965 O   0  0  0  0  0  0  0  0  0  0  0  0
   -2.6062   -5.1317   -1.5227 O   0  0  0  0  0  0  0  0  0  0  0  0
   -2.9370   -3.2985   -3.3257 O   0  0  0  0  0  0  0  0  0  0  0  0
   -2.4020   -0.6352   -3.2823 C   0  0  0  0  0  0  0  0  0  0  0  0
   -1.2776   -0.5695   -3.7574 O   0  0  0  0  0  0  0  0  0  0  0  0
   -3.4777   -0.0704   -3.8897 N   0  0  0  0  0  0  0  0  0  0  0  0
   -4.8867   -0.1803   -3.5558 C   0  0  1  0  0  0  0  0  0  0  0  0
   -5.0138    0.0099   -2.4759 H   0  0  0  0  0  0  0  0  0  0  0  0
   -5.7147    0.8155   -4.3368 C   0  0  0  0  0  0  0  0  0  0  0  0
   -6.8985    0.2235   -4.7942 C   0  0  0  0  0  0  0  0  0  0  0  0
   -7.8122    0.9734   -5.5351 C   0  0  0  0  0  0  0  0  0  0  0  0
   -7.5256    2.3144   -5.8166 C   0  0  0  0  0  0  0  0  0  0  0  0
   -6.3388    2.9007   -5.3603 C   0  0  0  0  0  0  0  0  0  0  0  0
   -5.4231    2.1506   -4.6136 C   0  0  0  0  0  0  0  0  0  0  0  0
   -6.9741   -1.2188   -4.3583 C   0  0  0  0  0  0  0  0  0  0  0  0
   -5.5355   -1.5683   -3.9286 C   0  0  1  0  0  0  0  0  0  0  0  0
   -5.5271   -2.2392   -3.0503 H   0  0  0  0  0  0  0  0  0  0  0  0
   -4.8648   -2.1594   -5.0050 O   0  0  0  0  0  0  0  0  0  0  0  0
    1.9960    0.1977   -0.4693 H   0  0  0  0  0  0  0  0  0  0  0  0
    3.0128    0.7560    1.7191 H   0  0  0  0  0  0  0  0  0  0  0  0
    1.6077    0.7266    3.8087 H   0  0  0  0  0  0  0  0  0  0  0  0
   -1.8271   -0.3642    1.4641 H   0  0  0  0  0  0  0  0  0  0  0  0
    0.0038   -1.2830   -1.4583 H   0  0  0  0  0  0  0  0  0  0  0  0
   -0.4269    0.4030   -1.6919 H   0  0  0  0  0  0  0  0  0  0  0  0
   -2.4452   -6.1687    0.5679 H   0  0  0  0  0  0  0  0  0  0  0  0
   -3.1794   -5.9467    2.1684 H   0  0  0  0  0  0  0  0  0  0  0  0
   -0.9464   -4.2977    3.4514 H   0  0  0  0  0  0  0  0  0  0  0  0
    2.3020   -7.0728    3.9762 H   0  0  0  0  0  0  0  0  0  0  0  0
    1.2987   -8.5670    2.2151 H   0  0  0  0  0  0  0  0  0  0  0  0
   -0.8058   -7.8931    1.0717 H   0  0  0  0  0  0  0  0  0  0  0  0
    0.2735   -2.6470    1.3767 H   0  0  0  0  0  0  0  0  0  0  0  0
    5.4575   -0.8279    0.0212 H   0  0  0  0  0  0  0  0  0  0  0  0
    4.8758   -0.3694   -2.3585 H   0  0  0  0  0  0  0  0  0  0  0  0
    2.9276   -1.4961   -3.4197 H   0  0  0  0  0  0  0  0  0  0  0  0
    1.5367   -3.1005   -2.0999 H   0  0  0  0  0  0  0  0  0  0  0  0
    4.8376   -3.2742    1.8718 H   0  0  0  0  0  0  0  0  0  0  0  0
    4.0541   -1.7813    2.4275 H   0  0  0  0  0  0  0  0  0  0  0  0
    1.5910   -3.1403    3.6890 H   0  0  0  0  0  0  0  0  0  0  0  0
   -1.6517   -5.3766   -1.4653 H   0  0  0  0  0  0  0  0  0  0  0  0
   -2.9894   -4.2681   -3.2216 H   0  0  0  0  0  0  0  0  0  0  0  0
   -3.2722    0.2658   -4.8271 H   0  0  0  0  0  0  0  0  0  0  0  0
   -8.7361    0.5184   -5.9015 H   0  0  0  0  0  0  0  0  0  0  0  0
   -8.2315    2.9078   -6.4030 H   0  0  0  0  0  0  0  0  0  0  0  0
   -6.1262    3.9476   -5.5898 H   0  0  0  0  0  0  0  0  0  0  0  0
   -4.4941    2.6020   -4.2557 H   0  0  0  0  0  0  0  0  0  0  0  0
   -7.6734   -1.3319   -3.5114 H   0  0  0  0  0  0  0  0  0  0  0  0
   -7.3038   -1.9023   -5.1550 H   0  0  0  0  0  0  0  0  0  0  0  0
   -4.0543   -2.5554   -4.6373 H   0  0  0  0  0  0  0  0  0  0  0  0
  1  2  2  0
  1  6  1  0
  1  8  1  0
  2  3  1  0
  2 59  1  0
  3  4  2  0
  3 60  1  0
  4  5  1  0
  4 61  1  0
  5  6  2  0
  5  7  1  0
  6 62  1  0
  8  9  1  0
  8 63  1  0
  8 64  1  0
  9 10  1  0
 10 11  1  1
 10 12  1  0
 10 44  1  0
 12 13  1  6
 12 14  1  0
 12 43  1  0
 14 15  1  1
 14 16  1  0
 14 42  1  0
 16 17  1  1
 16 18  1  0
 16 27  1  0
 18 19  1  0
 19 20  1  0
 19 65  1  0
 19 66  1  0
 20 21  2  0
 20 25  1  0
 21 22  1  0
 21 67  1  0
 22 23  2  0
 22 26  1  0
 23 24  1  0
 23 68  1  0
 24 25  2  0
 24 69  1  0
 25 70  1  0
 27 28  2  0
 27 29  1  0
 29 30  1  0
 29 71  1  0
 30 31  1  6
 30 32  1  0
 30 39  1  0
 32 33  1  0
 32 37  2  0
 33 34  2  0
 33 38  1  0
 34 35  1  0
 34 72  1  0
 35 36  2  0
 35 73  1  0
 36 37  1  0
 36 74  1  0
 37 75  1  0
 38 39  1  0
 38 76  1  0
 38 77  1  0
 39 40  1  1
 39 41  1  0
 41 78  1  0
 42 79  1  0
 43 80  1  0
 44 45  2  0
 44 46  1  0
 46 47  1  0
 46 81  1  0
 47 48  1  1
 47 49  1  0
 47 56  1  0
 49 50  1  0
 49 54  2  0
 50 51  2  0
 50 55  1  0
 51 52  1  0
 51 82  1  0
 52 53  2  0
 52 83  1  0
 53 54  1  0
 53 84  1  0
 54 85  1  0
 55 56  1  0
 55 86  1  0
 55 87  1  0
 56 57  1  1
 56 58  1  0
 58 88  1  0
M  END

