rmsd228.gzmat
 OpenBabel08211713423D

 88 93  0  0  1  0  0  0  0  0999 V2000
    0.0000    0.0000    0.0000 C   0  0  0  0  0  0  0  0  0  0  0  0
    1.3954    0.0000    0.0000 C   0  0  0  0  0  0  0  0  0  0  0  0
    2.0996    0.0000    1.2027 C   0  0  0  0  0  0  0  0  0  0  0  0
    1.4214    0.0096    2.4197 C   0  0  0  0  0  0  0  0  0  0  0  0
    0.0278    0.0271    2.3875 C   0  0  0  0  0  0  0  0  0  0  0  0
   -0.7058    0.0230    1.2036 C   0  0  0  0  0  0  0  0  0  0  0  0
   -0.6302    0.0436    3.5376 F   0  0  0  0  0  0  0  0  0  0  0  0
   -0.7632   -0.0018   -1.2884 C   0  0  0  0  0  0  0  0  0  0  0  0
    0.0399   -0.3787   -2.3933 O   0  0  0  0  0  0  0  0  0  0  0  0
    0.3337   -1.7597   -2.4491 C   0  0  2  0  0  0  0  0  0  0  0  0
    0.6222   -2.1254   -1.4315 H   0  0  0  0  0  0  0  0  0  0  0  0
    1.5357   -1.9175   -3.4045 C   0  0  1  0  0  0  0  0  0  0  0  0
    1.4287   -2.8147   -4.0638 H   0  0  0  0  0  0  0  0  0  0  0  0
    1.8234   -0.6379   -4.2285 C   0  0  2  0  0  0  0  0  0  0  0  0
    1.8098    0.2798   -3.5848 H   0  0  0  0  0  0  0  0  0  0  0  0
    0.8198   -0.4860   -5.3925 C   0  0  1  0  0  0  0  0  0  0  0  0
   -0.0772   -1.1428   -5.2414 H   0  0  0  0  0  0  0  0  0  0  0  0
    0.4511    0.8792   -5.4768 O   0  0  0  0  0  0  0  0  0  0  0  0
   -0.8107    1.1988   -4.9035 C   0  0  0  0  0  0  0  0  0  0  0  0
   -0.6172    2.2439   -3.8466 C   0  0  0  0  0  0  0  0  0  0  0  0
   -1.7569    2.7700   -3.2302 C   0  0  0  0  0  0  0  0  0  0  0  0
   -1.5748    3.6973   -2.2085 C   0  0  0  0  0  0  0  0  0  0  0  0
   -0.3177    4.1174   -1.7766 C   0  0  0  0  0  0  0  0  0  0  0  0
    0.7993    3.5940   -2.4233 C   0  0  0  0  0  0  0  0  0  0  0  0
    0.6523    2.6703   -3.4574 C   0  0  0  0  0  0  0  0  0  0  0  0
   -2.6491    4.1959   -1.6137 F   0  0  0  0  0  0  0  0  0  0  0  0
    1.4383   -0.8119   -6.7551 C   0  0  0  0  0  0  0  0  0  0  0  0
    2.2495   -1.7132   -6.9017 O   0  0  0  0  0  0  0  0  0  0  0  0
    1.0105   -0.0526   -7.8114 N   0  0  0  0  0  0  0  0  0  0  0  0
    1.6568   -0.1652   -9.1128 C   0  0  1  0  0  0  0  0  0  0  0  0
    2.1982   -1.1489   -9.1842 H   0  0  0  0  0  0  0  0  0  0  0  0
    0.6669   -0.0293  -10.2386 C   0  0  0  0  0  0  0  0  0  0  0  0
    1.0461    0.9845  -11.1337 C   0  0  0  0  0  0  0  0  0  0  0  0
    0.2928    1.2390  -12.2674 C   0  0  0  0  0  0  0  0  0  0  0  0
   -0.8601    0.4778  -12.4897 C   0  0  0  0  0  0  0  0  0  0  0  0
   -1.2466   -0.5116  -11.5888 C   0  0  0  0  0  0  0  0  0  0  0  0
   -0.4768   -0.7779  -10.4514 C   0  0  0  0  0  0  0  0  0  0  0  0
    2.2858    1.6876  -10.6886 C   0  0  0  0  0  0  0  0  0  0  0  0
    2.6807    1.0214   -9.3492 C   0  0  1  0  0  0  0  0  0  0  0  0
    3.7249    0.6556   -9.3322 H   0  0  0  0  0  0  0  0  0  0  0  0
    2.5655    2.0404   -8.3869 O   0  0  0  0  0  0  0  0  0  0  0  0
    3.1652   -0.6942   -4.6339 O   0  0  0  0  0  0  0  0  0  0  0  0
    2.6247   -2.1966   -2.5455 O   0  0  0  0  0  0  0  0  0  0  0  0
   -0.8953   -2.4796   -3.0023 C   0  0  0  0  0  0  0  0  0  0  0  0
   -1.6476   -1.9623   -3.8073 O   0  0  0  0  0  0  0  0  0  0  0  0
   -1.2059   -3.7371   -2.5272 N   0  0  0  0  0  0  0  0  0  0  0  0
   -0.3068   -4.5331   -1.7027 C   0  0  1  0  0  0  0  0  0  0  0  0
    0.1149   -3.9017   -0.8746 H   0  0  0  0  0  0  0  0  0  0  0  0
   -1.0091   -5.7276   -1.1146 C   0  0  0  0  0  0  0  0  0  0  0  0
   -0.2809   -6.9071   -1.3419 C   0  0  0  0  0  0  0  0  0  0  0  0
   -0.7455   -8.1211   -0.8648 C   0  0  0  0  0  0  0  0  0  0  0  0
   -1.9463   -8.1420   -0.1463 C   0  0  0  0  0  0  0  0  0  0  0  0
   -2.6633   -6.9698    0.0819 C   0  0  0  0  0  0  0  0  0  0  0  0
   -2.1951   -5.7441   -0.4032 C   0  0  0  0  0  0  0  0  0  0  0  0
    0.9771   -6.6404   -2.1017 C   0  0  0  0  0  0  0  0  0  0  0  0
    0.8919   -5.1562   -2.5317 C   0  0  1  0  0  0  0  0  0  0  0  0
    1.8392   -4.5927   -2.3827 H   0  0  0  0  0  0  0  0  0  0  0  0
    0.6761   -5.0353   -3.9057 O   0  0  0  0  0  0  0  0  0  0  0  0
    1.9389   -0.0041   -0.9485 H   0  0  0  0  0  0  0  0  0  0  0  0
    3.1894   -0.0081    1.1921 H   0  0  0  0  0  0  0  0  0  0  0  0
    1.9646    0.0053    3.3616 H   0  0  0  0  0  0  0  0  0  0  0  0
   -1.7934    0.0427    1.2170 H   0  0  0  0  0  0  0  0  0  0  0  0
   -1.0558    1.0360   -1.5744 H   0  0  0  0  0  0  0  0  0  0  0  0
   -1.6772   -0.6233   -1.2474 H   0  0  0  0  0  0  0  0  0  0  0  0
   -1.3177    0.3023   -4.4755 H   0  0  0  0  0  0  0  0  0  0  0  0
   -1.4077    1.5808   -5.7570 H   0  0  0  0  0  0  0  0  0  0  0  0
   -2.7530    2.4618   -3.5390 H   0  0  0  0  0  0  0  0  0  0  0  0
   -0.2092    4.8330   -0.9652 H   0  0  0  0  0  0  0  0  0  0  0  0
    1.7973    3.9091   -2.1173 H   0  0  0  0  0  0  0  0  0  0  0  0
    1.5364    2.2803   -3.9657 H   0  0  0  0  0  0  0  0  0  0  0  0
    0.3683    0.7236   -7.6836 H   0  0  0  0  0  0  0  0  0  0  0  0
    0.5864    2.0132  -12.9703 H   0  0  0  0  0  0  0  0  0  0  0  0
   -1.4608    0.6646  -13.3783 H   0  0  0  0  0  0  0  0  0  0  0  0
   -2.1532   -1.0853  -11.7694 H   0  0  0  0  0  0  0  0  0  0  0  0
   -0.7721   -1.5566   -9.7514 H   0  0  0  0  0  0  0  0  0  0  0  0
    3.0984    1.6239  -11.4315 H   0  0  0  0  0  0  0  0  0  0  0  0
    2.1012    2.7729  -10.5266 H   0  0  0  0  0  0  0  0  0  0  0  0
    2.5116    1.6757   -7.4790 H   0  0  0  0  0  0  0  0  0  0  0  0
    3.2867   -1.3429   -5.3761 H   0  0  0  0  0  0  0  0  0  0  0  0
    3.4489   -1.7866   -2.9045 H   0  0  0  0  0  0  0  0  0  0  0  0
   -2.0087   -4.2160   -2.9188 H   0  0  0  0  0  0  0  0  0  0  0  0
   -0.1927   -9.0402   -1.0402 H   0  0  0  0  0  0  0  0  0  0  0  0
   -2.3207   -9.0879    0.2436 H   0  0  0  0  0  0  0  0  0  0  0  0
   -3.5937   -7.0041    0.6467 H   0  0  0  0  0  0  0  0  0  0  0  0
   -2.7491   -4.8256   -0.2159 H   0  0  0  0  0  0  0  0  0  0  0  0
    1.8700   -6.8183   -1.4719 H   0  0  0  0  0  0  0  0  0  0  0  0
    1.0986   -7.3016   -2.9797 H   0  0  0  0  0  0  0  0  0  0  0  0
   -0.1230   -5.5210   -4.1956 H   0  0  0  0  0  0  0  0  0  0  0  0
  1  6  1  0  0  0  0
  2  1  2  0  0  0  0
  2  3  1  0  0  0  0
  3  4  2  0  0  0  0
  4 61  1  0  0  0  0
  5  4  1  0  0  0  0
  5  7  1  0  0  0  0
  6 62  1  0  0  0  0
  6  5  2  0  0  0  0
  8 64  1  0  0  0  0
  8  1  1  0  0  0  0
  9  8  1  0  0  0  0
 10  9  1  0  0  0  0
 10 11  1  1  0  0  0
 12 13  1  6  0  0  0
 12 43  1  0  0  0  0
 12 10  1  0  0  0  0
 14 15  1  1  0  0  0
 14 12  1  0  0  0  0
 16 17  1  1  0  0  0
 16 14  1  0  0  0  0
 18 16  1  0  0  0  0
 18 19  1  0  0  0  0
 19 65  1  0  0  0  0
 19 20  1  0  0  0  0
 20 25  2  0  0  0  0
 20 21  1  0  0  0  0
 21 22  2  0  0  0  0
 22 23  1  0  0  0  0
 22 26  1  0  0  0  0
 23 68  1  0  0  0  0
 24 69  1  0  0  0  0
 24 23  2  0  0  0  0
 25 24  1  0  0  0  0
 27 16  1  0  0  0  0
 28 27  2  0  0  0  0
 29 71  1  0  0  0  0
 29 27  1  0  0  0  0
 30 39  1  0  0  0  0
 30 29  1  0  0  0  0
 30 31  1  6  0  0  0
 32 30  1  0  0  0  0
 33 38  1  0  0  0  0
 33 32  2  0  0  0  0
 34 33  1  0  0  0  0
 35 34  2  0  0  0  0
 35 36  1  0  0  0  0
 36 37  2  0  0  0  0
 37 32  1  0  0  0  0
 37 75  1  0  0  0  0
 38 77  1  0  0  0  0
 38 39  1  0  0  0  0
 39 40  1  6  0  0  0
 39 41  1  0  0  0  0
 41 78  1  0  0  0  0
 42 14  1  0  0  0  0
 44 46  1  0  0  0  0
 44 10  1  0  0  0  0
 45 44  2  0  0  0  0
 46 47  1  0  0  0  0
 47 56  1  0  0  0  0
 47 49  1  0  0  0  0
 47 48  1  1  0  0  0
 49 54  1  0  0  0  0
 50 49  2  0  0  0  0
 50 51  1  0  0  0  0
 51 52  2  0  0  0  0
 52 53  1  0  0  0  0
 52 83  1  0  0  0  0
 53 84  1  0  0  0  0
 54 85  1  0  0  0  0
 54 53  2  0  0  0  0
 55 86  1  0  0  0  0
 55 50  1  0  0  0  0
 56 57  1  1  0  0  0
 56 55  1  0  0  0  0
 58 56  1  0  0  0  0
 59  2  1  0  0  0  0
 60  3  1  0  0  0  0
 63  8  1  0  0  0  0
 66 19  1  0  0  0  0
 67 21  1  0  0  0  0
 70 25  1  0  0  0  0
 72 34  1  0  0  0  0
 73 35  1  0  0  0  0
 74 36  1  0  0  0  0
 76 38  1  0  0  0  0
 79 42  1  0  0  0  0
 80 43  1  0  0  0  0
 81 46  1  0  0  0  0
 82 51  1  0  0  0  0
 87 55  1  0  0  0  0
 88 58  1  0  0  0  0
M  END
$$$$
