88
rmsd170.gzmat
C          0.00000        0.00000        0.00000
C          1.39670        0.00000        0.00000
C          2.10400        0.00000        1.20020
C          1.42580        0.02770        2.41740
C          0.03270        0.05870        2.38700
C         -0.70310        0.03550        1.20350
F         -0.62500        0.10020        3.53650
C         -0.73990       -0.09740       -1.30210
O         -0.13480       -1.03100       -2.19090
C         -0.03720       -2.33650       -1.65480
H          0.20220       -2.28290       -0.56280
C          1.10950       -3.00780       -2.44120
H          1.26790       -2.48860       -3.41870
C          2.44390       -3.10970       -1.66540
H          3.11780       -3.82280       -2.20160
C          2.24580       -3.55580       -0.19290
H          1.71000       -2.76930        0.39440
O          1.54860       -4.78310       -0.23040
C          0.41460       -4.88340        0.62710
C          0.82430       -4.92040        2.06740
C          0.87700       -3.73880        2.80690
C          1.28590       -3.81910        4.13680
C          1.62040       -5.02230        4.75760
C          1.53850       -6.18980        4.00330
C          1.15160       -6.13970        2.66430
F          1.35570       -2.70300        4.84520
C          3.62580       -3.74110        0.44060
O          4.43790       -2.82460        0.38890
N          3.88810       -4.92110        1.05900
C          5.11980       -5.10670        1.81540
H          5.98580       -4.69270        1.22980
C          5.08260       -4.46830        3.18460
C          5.53730       -5.36680        4.16530
C          5.57190       -4.99750        5.49780
C          5.14900       -3.70860        5.84460
C          4.71740       -2.81360        4.86990
C          4.68570       -3.18810        3.52150
C          5.93480       -6.67660        3.56150
C          5.34660       -6.63600        2.13050
H          5.95580       -7.14680        1.36290
O          4.12610       -7.32880        2.08880
O          3.03400       -1.83790       -1.69070
O          0.75590       -4.32620       -2.79400
C         -1.41270       -3.01320       -1.76160
O         -2.18520       -2.95250       -0.82140
N         -1.76620       -3.63220       -2.93600
C         -2.96780       -4.45790       -2.94820
H         -3.81150       -3.88190       -2.47800
C         -3.32350       -4.89530       -4.34250
C         -3.56730       -6.27860       -4.39270
C         -3.91490       -6.88780       -5.58620
C         -4.01120       -6.09760       -6.73750
C         -3.76660       -4.72800       -6.68580
C         -3.42090       -4.11200       -5.47790
C         -3.38760       -6.91960       -3.05530
C         -2.77200       -5.81710       -2.15740
H         -3.19940       -5.76940       -1.13730
O         -1.42070       -6.09410       -1.91740
H          1.93210       -0.02240       -0.95570
H          3.19490       -0.02640        1.18710
H          1.96970        0.03170        3.36000
H         -1.79180        0.03040        1.21870
H         -0.67440        0.84080       -1.89020
H         -1.80610       -0.37030       -1.16910
H         -0.03400       -5.84040        0.27230
H         -0.31600       -4.07690        0.41330
H          0.59350       -2.78020        2.36950
H          1.93380       -5.04990        5.80000
H          1.76760       -7.14790        4.46970
H          1.09230       -7.06090        2.08320
H          3.20970       -5.68080        1.06810
H          5.91890       -5.68750        6.26110
H          5.16200       -3.40460        6.89010
H          4.39770       -1.81200        5.15450
H          4.36250       -2.48200        2.75550
H          7.03480       -6.79110        3.54260
H          5.55220       -7.54720        4.12420
H          3.55010       -7.07600        2.84610
H          3.81080       -1.82520       -1.06350
H          0.79650       -4.90850       -1.99420
H         -1.07260       -3.80840       -3.65400
H         -4.10640       -7.95600       -5.63360
H         -4.28100       -6.56290       -7.68420
H         -3.84300       -4.12860       -7.59090
H         -3.23150       -3.04090       -5.43440
H         -4.34800       -7.28150       -2.64570
H         -2.72480       -7.80440       -3.09490
H         -0.88780       -6.03060       -2.73920
