
     RDKit          3D

 88 93  0  0  0  0  0  0  0  0999 V2000
   -0.0320   -0.3529   -0.2079 C   0  0  0  0  0  0  0  0  0  0  0  0
    1.2445   -0.3382    0.3758 C   0  0  0  0  0  0  0  0  0  0  0  0
    1.5041   -1.0897    1.5232 C   0  0  0  0  0  0  0  0  0  0  0  0
    0.4976   -1.8655    2.1098 C   0  0  0  0  0  0  0  0  0  0  0  0
   -0.7643   -1.8619    1.5245 C   0  0  0  0  0  0  0  0  0  0  0  0
   -1.0424   -1.1245    0.3771 C   0  0  0  0  0  0  0  0  0  0  0  0
   -1.7418   -2.6088    2.0660 F   0  0  0  0  0  0  0  0  0  0  0  0
   -0.2947    0.3653   -1.5113 C   0  0  0  0  0  0  0  0  0  0  0  0
    0.4837   -0.1409   -2.5961 O   0  0  0  0  0  0  0  0  0  0  0  0
    0.6258   -1.5389   -2.6587 C   0  0  2  0  0  0  0  0  0  0  0  0
    1.1867   -1.8896   -1.7820 H   0  0  0  0  0  0  0  0  0  0  0  0
    1.5100   -1.9269   -3.8613 C   0  0  1  0  0  0  0  0  0  0  0  0
    1.1265   -2.8724   -4.2931 H   0  0  0  0  0  0  0  0  0  0  0  0
    1.5514   -0.8769   -4.9791 C   0  0  2  0  0  0  0  0  0  0  0  0
    1.8619    0.0826   -4.5523 H   0  0  0  0  0  0  0  0  0  0  0  0
    0.1744   -0.6402   -5.6705 C   0  0  1  0  0  0  0  0  0  0  0  0
   -0.6012   -1.2233   -5.1540 H   0  0  0  0  0  0  0  0  0  0  0  0
   -0.1532    0.7331   -5.6599 O   0  0  0  0  0  0  0  0  0  0  0  0
   -1.3531    1.1105   -5.0093 C   0  0  0  0  0  0  0  0  0  0  0  0
   -1.1317    2.2726   -4.0706 C   0  0  0  0  0  0  0  0  0  0  0  0
   -2.2057    2.7216   -3.2899 C   0  0  0  0  0  0  0  0  0  0  0  0
   -2.0051    3.7581   -2.3855 C   0  0  0  0  0  0  0  0  0  0  0  0
   -0.7639    4.3732   -2.2306 C   0  0  0  0  0  0  0  0  0  0  0  0
    0.2969    3.9268   -3.0219 C   0  0  0  0  0  0  0  0  0  0  0  0
    0.1187    2.8848   -3.9372 C   0  0  0  0  0  0  0  0  0  0  0  0
   -3.0373    4.1731   -1.6334 F   0  0  0  0  0  0  0  0  0  0  0  0
    0.2808   -1.1702   -7.0967 C   0  0  0  0  0  0  0  0  0  0  0  0
    0.5763   -2.3522   -7.2883 O   0  0  0  0  0  0  0  0  0  0  0  0
    0.1741   -0.2435   -8.0635 N   0  0  0  0  0  0  0  0  0  0  0  0
    0.7476   -0.4654   -9.3745 C   0  0  1  0  0  0  0  0  0  0  0  0
    0.3906   -1.4427   -9.7388 H   0  0  0  0  0  0  0  0  0  0  0  0
    0.4155    0.6395  -10.3461 C   0  0  0  0  0  0  0  0  0  0  0  0
    1.5439    0.9800  -11.1039 C   0  0  0  0  0  0  0  0  0  0  0  0
    1.4591    1.9817  -12.0706 C   0  0  0  0  0  0  0  0  0  0  0  0
    0.2398    2.6427  -12.2634 C   0  0  0  0  0  0  0  0  0  0  0  0
   -0.8831    2.3041  -11.4988 C   0  0  0  0  0  0  0  0  0  0  0  0
   -0.8006    1.2951  -10.5321 C   0  0  0  0  0  0  0  0  0  0  0  0
    2.7252    0.1278  -10.7058 C   0  0  0  0  0  0  0  0  0  0  0  0
    2.3244   -0.4702   -9.3421 C   0  0  1  0  0  0  0  0  0  0  0  0
    2.6965   -1.5018   -9.2211 H   0  0  0  0  0  0  0  0  0  0  0  0
    2.8145    0.3649   -8.3225 O   0  0  0  0  0  0  0  0  0  0  0  0
    2.5868   -1.2670   -5.8884 O   0  0  0  0  0  0  0  0  0  0  0  0
    2.8225   -2.1167   -3.3634 O   0  0  0  0  0  0  0  0  0  0  0  0
   -0.7285   -2.2563   -2.6987 C   0  0  0  0  0  0  0  0  0  0  0  0
   -1.7015   -1.7787   -3.2732 O   0  0  0  0  0  0  0  0  0  0  0  0
   -0.7981   -3.4522   -2.0605 N   0  0  0  0  0  0  0  0  0  0  0  0
    0.2344   -4.1461   -1.3142 C   0  0  1  0  0  0  0  0  0  0  0  0
    0.7334   -3.4263   -0.6425 H   0  0  0  0  0  0  0  0  0  0  0  0
   -0.3351   -5.2727   -0.4796 C   0  0  0  0  0  0  0  0  0  0  0  0
    0.5325   -6.3749   -0.4921 C   0  0  0  0  0  0  0  0  0  0  0  0
    0.2070   -7.5278    0.2228 C   0  0  0  0  0  0  0  0  0  0  0  0
   -0.9895   -7.5633    0.9494 C   0  0  0  0  0  0  0  0  0  0  0  0
   -1.8457   -6.4558    0.9683 C   0  0  0  0  0  0  0  0  0  0  0  0
   -1.5213   -5.2970    0.2534 C   0  0  0  0  0  0  0  0  0  0  0  0
    1.7591   -6.0634   -1.3171 C   0  0  0  0  0  0  0  0  0  0  0  0
    1.3259   -4.8618   -2.1864 C   0  0  1  0  0  0  0  0  0  0  0  0
    2.1601   -4.1862   -2.4130 H   0  0  0  0  0  0  0  0  0  0  0  0
    0.8135   -5.2564   -3.4395 O   0  0  0  0  0  0  0  0  0  0  0  0
    2.0397    0.2471   -0.0913 H   0  0  0  0  0  0  0  0  0  0  0  0
    2.5013   -1.0789    1.9689 H   0  0  0  0  0  0  0  0  0  0  0  0
    0.6753   -2.4663    3.0031 H   0  0  0  0  0  0  0  0  0  0  0  0
   -2.0392   -1.1726   -0.0650 H   0  0  0  0  0  0  0  0  0  0  0  0
   -0.0256    1.4281   -1.4404 H   0  0  0  0  0  0  0  0  0  0  0  0
   -1.3651    0.3009   -1.7597 H   0  0  0  0  0  0  0  0  0  0  0  0
   -1.7534    0.2596   -4.4358 H   0  0  0  0  0  0  0  0  0  0  0  0
   -2.1084    1.3886   -5.7697 H   0  0  0  0  0  0  0  0  0  0  0  0
   -3.1951    2.2640   -3.3631 H   0  0  0  0  0  0  0  0  0  0  0  0
   -0.6506    5.1825   -1.5075 H   0  0  0  0  0  0  0  0  0  0  0  0
    1.2777    4.3974   -2.9206 H   0  0  0  0  0  0  0  0  0  0  0  0
    0.9471    2.5273   -4.5468 H   0  0  0  0  0  0  0  0  0  0  0  0
    0.1226    0.7147   -7.7252 H   0  0  0  0  0  0  0  0  0  0  0  0
    2.3353    2.2577  -12.6632 H   0  0  0  0  0  0  0  0  0  0  0  0
    0.1655    3.4351  -13.0123 H   0  0  0  0  0  0  0  0  0  0  0  0
   -1.8269    2.8318  -11.6563 H   0  0  0  0  0  0  0  0  0  0  0  0
   -1.6721    1.0273   -9.9291 H   0  0  0  0  0  0  0  0  0  0  0  0
    2.8909   -0.6741  -11.4464 H   0  0  0  0  0  0  0  0  0  0  0  0
    3.6641    0.6930  -10.6096 H   0  0  0  0  0  0  0  0  0  0  0  0
    2.8141   -0.1218   -7.4786 H   0  0  0  0  0  0  0  0  0  0  0  0
    2.2264   -2.0278   -6.3916 H   0  0  0  0  0  0  0  0  0  0  0  0
    3.4033   -2.0810   -4.1411 H   0  0  0  0  0  0  0  0  0  0  0  0
   -1.6846   -3.9322   -2.1866 H   0  0  0  0  0  0  0  0  0  0  0  0
    0.8739   -8.3937    0.2145 H   0  0  0  0  0  0  0  0  0  0  0  0
   -1.2569   -8.4632    1.5084 H   0  0  0  0  0  0  0  0  0  0  0  0
   -2.7710   -6.4938    1.5475 H   0  0  0  0  0  0  0  0  0  0  0  0
   -2.1781   -4.4257    0.2872 H   0  0  0  0  0  0  0  0  0  0  0  0
    2.5985   -5.7759   -0.6590 H   0  0  0  0  0  0  0  0  0  0  0  0
    2.1093   -6.8974   -1.9441 H   0  0  0  0  0  0  0  0  0  0  0  0
    0.0584   -5.8450   -3.2962 H   0  0  0  0  0  0  0  0  0  0  0  0
  1  2  2  0
  1  6  1  0
  1  8  1  0
  2  3  1  0
  2 59  1  0
  3  4  2  0
  3 60  1  0
  4  5  1  0
  4 61  1  0
  5  6  2  0
  5  7  1  0
  6 62  1  0
  8  9  1  0
  8 63  1  0
  8 64  1  0
  9 10  1  0
 10 11  1  1
 10 12  1  0
 10 44  1  0
 12 13  1  6
 12 14  1  0
 12 43  1  0
 14 15  1  1
 14 16  1  0
 14 42  1  0
 16 17  1  1
 16 18  1  0
 16 27  1  0
 18 19  1  0
 19 20  1  0
 19 65  1  0
 19 66  1  0
 20 21  2  0
 20 25  1  0
 21 22  1  0
 21 67  1  0
 22 23  2  0
 22 26  1  0
 23 24  1  0
 23 68  1  0
 24 25  2  0
 24 69  1  0
 25 70  1  0
 27 28  2  0
 27 29  1  0
 29 30  1  0
 29 71  1  0
 30 31  1  6
 30 32  1  0
 30 39  1  0
 32 33  1  0
 32 37  2  0
 33 34  2  0
 33 38  1  0
 34 35  1  0
 34 72  1  0
 35 36  2  0
 35 73  1  0
 36 37  1  0
 36 74  1  0
 37 75  1  0
 38 39  1  0
 38 76  1  0
 38 77  1  0
 39 40  1  1
 39 41  1  0
 41 78  1  0
 42 79  1  0
 43 80  1  0
 44 45  2  0
 44 46  1  0
 46 47  1  0
 46 81  1  0
 47 48  1  1
 47 49  1  0
 47 56  1  0
 49 50  1  0
 49 54  2  0
 50 51  2  0
 50 55  1  0
 51 52  1  0
 51 82  1  0
 52 53  2  0
 52 83  1  0
 53 54  1  0
 53 84  1  0
 54 85  1  0
 55 56  1  0
 55 86  1  0
 55 87  1  0
 56 57  1  6
 56 58  1  0
 58 88  1  0
M  END

