33
rmsd39.gzmat
O          0.00000        0.00000        0.00000
C          1.20040        0.00000        0.00000
N          1.96890        0.00000        1.18020
N          3.31150       -0.04730        1.27260
C          4.04230       -0.03280        0.17990
C          3.43920        0.01470       -1.13150
N          2.01920        0.02270       -1.16850
N          1.55610        0.06500       -2.43560
C          2.65580        0.08930       -3.22940
C          3.86270        0.06200       -2.45090
C          2.61620        0.13430       -4.69680
O          3.57450        0.04260       -5.42260
O          1.35180        0.30010       -5.14730
C          1.21350        0.36800       -6.56510
C          5.50340       -0.07170        0.32320
C          6.25060       -0.96440       -0.45050
C          7.63500       -1.00310       -0.31220
C          8.27130       -0.15760        0.59660
C          7.52370        0.72750        1.37110
C          6.13780        0.77250        1.23800
C          1.25550       -0.08380        2.46600
H          4.86210        0.08270       -2.84090
H          0.12790        0.46200       -6.69310
H          1.59330       -0.54650       -7.03250
H          1.73970        1.24490       -6.95560
H          5.75150       -1.63250       -1.15240
H          8.22150       -1.69630       -0.91340
H          9.35400       -0.19030        0.70160
H          8.02010        1.38460        2.08230
H          5.54900        1.45860        1.84690
H          1.97140       -0.08610        3.31020
H          0.65180       -1.00950        2.50880
H          0.58250        0.78830        2.57140
