rmsd45.gzmat
 OpenBabel08211713373D

 33 35  0  0  0  0  0  0  0  0999 V2000
    0.0000    0.0000    0.0000 O   0  0  0  0  0  0  0  0  0  0  0  0
    1.2004    0.0000    0.0000 C   0  0  0  0  0  0  0  0  0  0  0  0
    1.9702    0.0000    1.1795 N   0  0  0  0  0  0  0  0  0  0  0  0
    3.3127    0.0584    1.2699 N   0  0  0  0  0  0  0  0  0  0  0  0
    4.0428    0.0564    0.1767 C   0  0  0  0  0  0  0  0  0  0  0  0
    3.4388    0.0097   -1.1347 C   0  0  0  0  0  0  0  0  0  0  0  0
    2.0192   -0.0201   -1.1689 N   0  0  0  0  0  0  0  0  0  0  0  0
    1.5543   -0.0660   -2.4356 N   0  0  0  0  0  0  0  0  0  0  0  0
    2.6524   -0.0678   -3.2313 C   0  0  0  0  0  0  0  0  0  0  0  0
    3.8598   -0.0217   -2.4560 C   0  0  0  0  0  0  0  0  0  0  0  0
    2.5932   -0.0942   -4.6998 C   0  0  0  0  0  0  0  0  0  0  0  0
    3.4654    0.2768   -5.4439 O   0  0  0  0  0  0  0  0  0  0  0  0
    1.4184   -0.6145   -5.1228 O   0  0  0  0  0  0  0  0  0  0  0  0
    1.2408   -0.6616   -6.5373 C   0  0  0  0  0  0  0  0  0  0  0  0
    5.5044    0.1038    0.3181 C   0  0  0  0  0  0  0  0  0  0  0  0
    6.1493   -0.7656    1.2013 C   0  0  0  0  0  0  0  0  0  0  0  0
    7.5361   -0.7177    1.3275 C   0  0  0  0  0  0  0  0  0  0  0  0
    8.2744    0.1963    0.5783 C   0  0  0  0  0  0  0  0  0  0  0  0
    7.6278    1.0675   -0.2985 C   0  0  0  0  0  0  0  0  0  0  0  0
    6.2426    1.0264   -0.4294 C   0  0  0  0  0  0  0  0  0  0  0  0
    1.2585    0.0777    2.4668 C   0  0  0  0  0  0  0  0  0  0  0  0
    4.8588   -0.0157   -2.8462 H   0  0  0  0  0  0  0  0  0  0  0  0
    0.2575   -1.1385   -6.6376 H   0  0  0  0  0  0  0  0  0  0  0  0
    2.0268   -1.2638   -7.0052 H   0  0  0  0  0  0  0  0  0  0  0  0
    1.2358    0.3519   -6.9517 H   0  0  0  0  0  0  0  0  0  0  0  0
    5.5681   -1.4744    1.7912 H   0  0  0  0  0  0  0  0  0  0  0  0
    8.0421   -1.3949    2.0132 H   0  0  0  0  0  0  0  0  0  0  0  0
    9.3576    0.2322    0.6792 H   0  0  0  0  0  0  0  0  0  0  0  0
    8.2080    1.7826   -0.8802 H   0  0  0  0  0  0  0  0  0  0  0  0
    5.7369    1.7159   -1.1052 H   0  0  0  0  0  0  0  0  0  0  0  0
    1.9758    0.1461    3.3069 H   0  0  0  0  0  0  0  0  0  0  0  0
    0.6397   -0.8296    2.6014 H   0  0  0  0  0  0  0  0  0  0  0  0
    0.6015    0.9672    2.4865 H   0  0  0  0  0  0  0  0  0  0  0  0
  2  1  2  0  0  0  0
  2  3  1  0  0  0  0
  3  4  1  0  0  0  0
  3 21  1  0  0  0  0
  5 15  1  0  0  0  0
  5  4  2  0  0  0  0
  6  5  1  0  0  0  0
  7  6  1  0  0  0  0
  7  2  1  0  0  0  0
  8  7  1  0  0  0  0
  9 10  1  0  0  0  0
  9  8  2  0  0  0  0
 10  6  2  0  0  0  0
 11  9  1  0  0  0  0
 12 11  2  0  0  0  0
 13 11  1  0  0  0  0
 14 13  1  0  0  0  0
 15 16  2  0  0  0  0
 16 17  1  0  0  0  0
 16 26  1  0  0  0  0
 17 27  1  0  0  0  0
 18 28  1  0  0  0  0
 18 17  2  0  0  0  0
 19 18  1  0  0  0  0
 20 19  2  0  0  0  0
 20 15  1  0  0  0  0
 21 33  1  0  0  0  0
 21 32  1  0  0  0  0
 21 31  1  0  0  0  0
 22 10  1  0  0  0  0
 23 14  1  0  0  0  0
 24 14  1  0  0  0  0
 25 14  1  0  0  0  0
 29 19  1  0  0  0  0
 30 20  1  0  0  0  0
M  END
$$$$
