rmsd37.gzmat
 OpenBabel08211713373D

 33 35  0  0  0  0  0  0  0  0999 V2000
    0.0000    0.0000    0.0000 O   0  0  0  0  0  0  0  0  0  0  0  0
    1.2004    0.0000    0.0000 C   0  0  0  0  0  0  0  0  0  0  0  0
    1.9706    0.0000    1.1784 N   0  0  0  0  0  0  0  0  0  0  0  0
    3.3143    0.0128    1.2693 N   0  0  0  0  0  0  0  0  0  0  0  0
    4.0429    0.0213    0.1752 C   0  0  0  0  0  0  0  0  0  0  0  0
    3.4381    0.0045   -1.1360 C   0  0  0  0  0  0  0  0  0  0  0  0
    2.0179    0.0040   -1.1702 N   0  0  0  0  0  0  0  0  0  0  0  0
    1.5516   -0.0195   -2.4365 N   0  0  0  0  0  0  0  0  0  0  0  0
    2.6495   -0.0343   -3.2329 C   0  0  0  0  0  0  0  0  0  0  0  0
    3.8582   -0.0229   -2.4570 C   0  0  0  0  0  0  0  0  0  0  0  0
    2.6067   -0.0596   -4.7005 C   0  0  0  0  0  0  0  0  0  0  0  0
    3.5696   -0.0808   -5.4258 O   0  0  0  0  0  0  0  0  0  0  0  0
    1.3323   -0.0520   -5.1526 O   0  0  0  0  0  0  0  0  0  0  0  0
    1.1890   -0.0833   -6.5714 C   0  0  0  0  0  0  0  0  0  0  0  0
    5.5054    0.0496    0.3125 C   0  0  0  0  0  0  0  0  0  0  0  0
    6.1459   -0.8566    1.1605 C   0  0  0  0  0  0  0  0  0  0  0  0
    7.5334   -0.8234    1.2828 C   0  0  0  0  0  0  0  0  0  0  0  0
    8.2754    0.1152    0.5685 C   0  0  0  0  0  0  0  0  0  0  0  0
    7.6325    1.0223   -0.2738 C   0  0  0  0  0  0  0  0  0  0  0  0
    6.2472    0.9912   -0.4067 C   0  0  0  0  0  0  0  0  0  0  0  0
    1.2599   -0.0193    2.4681 C   0  0  0  0  0  0  0  0  0  0  0  0
    4.8555   -0.0425   -2.8517 H   0  0  0  0  0  0  0  0  0  0  0  0
    0.1003   -0.0449   -6.6995 H   0  0  0  0  0  0  0  0  0  0  0  0
    1.6066   -1.0118   -6.9746 H   0  0  0  0  0  0  0  0  0  0  0  0
    1.6766    0.7852   -7.0262 H   0  0  0  0  0  0  0  0  0  0  0  0
    5.5623   -1.5834    1.7250 H   0  0  0  0  0  0  0  0  0  0  0  0
    8.0358   -1.5326    1.9375 H   0  0  0  0  0  0  0  0  0  0  0  0
    9.3591    0.1405    0.6668 H   0  0  0  0  0  0  0  0  0  0  0  0
    8.2161    1.7560   -0.8282 H   0  0  0  0  0  0  0  0  0  0  0  0
    5.7432    1.7003   -1.0636 H   0  0  0  0  0  0  0  0  0  0  0  0
    1.9714    0.0909    3.3088 H   0  0  0  0  0  0  0  0  0  0  0  0
    0.7176   -0.9756    2.5861 H   0  0  0  0  0  0  0  0  0  0  0  0
    0.5332    0.8140    2.5074 H   0  0  0  0  0  0  0  0  0  0  0  0
  2  1  2  0  0  0  0
  2  3  1  0  0  0  0
  3  4  1  0  0  0  0
  3 21  1  0  0  0  0
  5 15  1  0  0  0  0
  5  4  2  0  0  0  0
  6  5  1  0  0  0  0
  7  6  1  0  0  0  0
  7  2  1  0  0  0  0
  8  7  1  0  0  0  0
  9 10  1  0  0  0  0
  9  8  2  0  0  0  0
 10  6  2  0  0  0  0
 11  9  1  0  0  0  0
 12 11  2  0  0  0  0
 13 11  1  0  0  0  0
 14 13  1  0  0  0  0
 15 16  2  0  0  0  0
 16 17  1  0  0  0  0
 16 26  1  0  0  0  0
 17 27  1  0  0  0  0
 18 28  1  0  0  0  0
 18 17  2  0  0  0  0
 19 18  1  0  0  0  0
 20 19  2  0  0  0  0
 20 15  1  0  0  0  0
 21 33  1  0  0  0  0
 21 32  1  0  0  0  0
 21 31  1  0  0  0  0
 22 10  1  0  0  0  0
 23 14  1  0  0  0  0
 24 14  1  0  0  0  0
 25 14  1  0  0  0  0
 29 19  1  0  0  0  0
 30 20  1  0  0  0  0
M  END
$$$$
