33

O          0.03090       -0.09120       -0.04020
C          1.23470       -0.06690       -0.02980
N          2.00320       -0.10820        1.12730
N          3.34790       -0.04940        1.21450
C          4.07230        0.02800        0.13430
C          3.43800        0.02930       -1.16350
N          2.04600       -0.00440       -1.18460
N          1.53690       -0.02770       -2.41680
C          2.60300       -0.01360       -3.21750
C          3.82360        0.01690       -2.49520
C          2.51210       -0.03170       -4.70050
O          3.48890       -0.01360       -5.41410
O          1.25330       -0.06970       -5.14380
C          1.09020       -0.08900       -6.56080
C          5.54370        0.08230        0.29600
C          6.14740       -0.57250        1.38370
C          7.52850       -0.52110        1.56180
C          8.32950        0.18760        0.65990
C          7.73730        0.85050       -0.41750
C          6.35390        0.79920       -0.60040
C          1.27530       -0.17780        2.39080
H          4.82310        0.01490       -2.91500
H          0.00930       -0.11950       -6.74170
H          1.57820       -0.97360       -6.99740
H          1.53100        0.81060       -7.01630
H          5.51550       -1.12340        2.08160
H          7.98510       -1.04120        2.40720
H          9.41240        0.22440        0.79870
H          8.35370        1.41810       -1.11840
H          5.90130        1.34800       -1.42670
H          2.02240       -0.24050        3.18830
H          0.61990       -1.06020        2.40410
H          0.64800        0.71600        2.52370
