43
rmsd161.gzmat
N          0.00000        0.00000        0.00000
H          1.05240        0.00000        0.00000
H         -0.29370        0.00000       -1.00520
C         -0.47970        1.27100        0.66500
C          0.17600        2.47760       -0.03970
H         -0.39300        3.41000        0.19150
O          0.01520        2.15660       -1.40670
C          1.68640        2.66980        0.25580
H          2.21870        2.93570       -0.69790
O          2.28830        1.41380        0.53730
C          2.43510        1.03600        1.84690
C          2.03490        1.81410        2.93550
C          1.51350        3.19380        2.71410
C          1.95040        3.70640        1.33960
C          2.16570        1.27930        4.21650
C          2.70850        0.00270        4.35360
C          3.15270       -0.75830        3.26880
C          3.01590       -0.22880        1.99210
F          2.81570       -0.51000        5.56770
C         -0.52830       -1.23610        0.70930
C          0.06390       -2.43100        0.03240
C          1.17870       -3.06380        0.58470
C          1.73270       -4.16990       -0.05600
C          1.17580       -4.63880       -1.24530
C          0.05730       -4.00870       -1.79140
C         -0.50430       -2.90740       -1.15120
H         -0.22240        1.26080        1.74960
H         -1.59010        1.33430        0.58220
H          0.16440        2.92750       -1.99590
H          0.41080        3.22660        2.82640
H          1.89390        3.88370        3.50500
H          1.46330        4.67250        1.10330
H          3.04210        3.93610        1.36520
H          1.86270        1.85660        5.09320
H          3.61280       -1.73830        3.42040
H          3.38320       -0.76590        1.11790
H         -1.64370       -1.24290        0.66900
H         -0.25320       -1.18970        1.79050
H          1.61260       -2.70810        1.51960
H          2.60060       -4.67260        0.37600
H          1.61170       -5.50640       -1.74830
H         -0.38270       -4.38400       -2.71800
H         -1.39080       -2.43520       -1.57220
