43
rmsd66.gzmat
N          0.00000        0.00000        0.00000
H          1.05120        0.00000        0.00000
H         -0.31620        0.00000       -0.99970
C         -0.46440        1.29010        0.64430
C          0.13970        2.47510       -0.13660
H         -0.40290        3.41470        0.11980
O         -0.08870        2.12740       -1.48800
C          1.67270        2.65370        0.03660
H          2.14860        2.75940       -0.97690
O          2.25910        1.43190        0.46550
C          2.43180        1.22760        1.81110
C          2.10250        2.16750        2.79040
C          1.62200        3.52230        2.39360
C          2.02860        3.81930        0.94800
C          2.26370        1.81470        4.12960
C          2.76830        0.55050        4.42910
C          3.14020       -0.37420        3.44960
C          2.96860       -0.02750        2.11540
F          2.91050        0.21380        5.69990
C         -0.55320       -1.21440        0.72680
C         -2.02570       -1.31240        0.48070
C         -2.48870       -1.81590       -0.73710
C         -3.85800       -1.89180       -0.97850
C         -4.76310       -1.47330       -0.00350
C         -4.29910       -0.98730        1.21820
C         -2.93010       -0.90580        1.46320
H         -0.15960        1.32070        1.71520
H         -1.57990        1.33200        0.61340
H         -0.31120        2.90360       -2.04540
H          0.52520        3.60940        2.53140
H          2.05310        4.30000        3.06780
H          1.57660        4.76560        0.59330
H          3.12960        3.99400        0.90390
H          2.01380        2.52110        4.92470
H          3.57080       -1.34070        3.72480
H          3.28070       -0.70030        1.31800
H         -0.30950       -1.14040        1.81380
H         -0.01720       -2.12370        0.35380
H         -1.79010       -2.16490       -1.49670
H         -4.22370       -2.28780       -1.92910
H         -5.83820       -1.53450       -0.19350
H         -5.01040       -0.67880        1.98760
H         -2.57800       -0.54120        2.42760
