43
rmsd168.gzmat
N          0.00000        0.00000        0.00000
H          1.05220        0.00000        0.00000
H         -0.29730        0.00000       -1.00430
C         -0.47620        1.27160        0.66650
C          0.27620        2.46550        0.03980
H         -0.27480        3.41490        0.24270
O          0.21800        2.17020       -1.34120
C          1.76520        2.59450        0.45680
H          2.38340        2.84390       -0.44830
O          2.29340        1.31440        0.77610
C          2.28420        0.91470        2.08730
C          1.81360        1.70170        3.14130
C          1.39880        3.11280        2.89300
C          1.98360        3.61070        1.56930
C          1.77100        1.14370        4.41840
C          2.22240       -0.16390        4.58930
C          2.74570       -0.93280        3.54620
C          2.78010       -0.38010        2.27240
F          2.15980       -0.70000        5.79630
C         -0.52410       -1.23990        0.70750
C         -0.16250       -2.42150       -0.13510
C          1.12600       -2.95610       -0.06290
C          1.47300       -4.03430       -0.87240
C          0.53050       -4.58880       -1.73850
C         -0.76150       -4.06700       -1.79400
C         -1.11030       -2.98080       -0.99450
H         -0.29750        1.22460        1.76570
H         -1.57470        1.38140        0.50870
H          0.42160        2.94900       -1.90300
H          0.29470        3.21300        2.90950
H          1.75020        3.77100        3.72380
H          1.56940        4.60160        1.29980
H          3.07890        3.78340        1.69400
H          1.40410        1.72560        5.26720
H          3.13260       -1.93910        3.72910
H          3.22040       -0.92230        1.43650
H         -1.62520       -1.15060        0.85720
H         -0.07100       -1.30240        1.72710
H          1.85900       -2.54570        0.63080
H          2.48170       -4.45050       -0.82400
H          0.80400       -5.43770       -2.37070
H         -1.50210       -4.51290       -2.46190
H         -2.12450       -2.58430       -1.03800
