rmsd65.gzmat
 OpenBabel08211713363D

 43 45  0  0  1  0  0  0  0  0999 V2000
    0.0000    0.0000    0.0000 N   0  0  0  0  0  0  0  0  0  0  0  0
    1.0518    0.0000    0.0000 H   0  0  0  0  0  0  0  0  0  0  0  0
   -0.3182    0.0000   -0.9988 H   0  0  0  0  0  0  0  0  0  0  0  0
   -0.4618    1.2916    0.6445 C   0  0  0  0  0  0  0  0  0  0  0  0
    0.1933    2.4698   -0.1057 C   0  0  2  0  0  0  0  0  0  0  0  0
   -0.3378    3.4190    0.1393 H   0  0  0  0  0  0  0  0  0  0  0  0
   -0.0092    2.1349   -1.4645 O   0  0  0  0  0  0  0  0  0  0  0  0
    1.7243    2.6108    0.1166 C   0  0  2  0  0  0  0  0  0  0  0  0
    2.2368    2.6952   -0.8803 H   0  0  0  0  0  0  0  0  0  0  0  0
    2.2660    1.3793    0.5757 O   0  0  0  0  0  0  0  0  0  0  0  0
    2.3604    1.1749    1.9294 C   0  0  0  0  0  0  0  0  0  0  0  0
    2.0324    2.1384    2.8865 C   0  0  0  0  0  0  0  0  0  0  0  0
    1.6200    3.5069    2.4608 C   0  0  0  0  0  0  0  0  0  0  0  0
    2.0848    3.7752    1.0281 C   0  0  0  0  0  0  0  0  0  0  0  0
    2.1214    1.7931    4.2342 C   0  0  0  0  0  0  0  0  0  0  0  0
    2.5445    0.5068    4.5656 C   0  0  0  0  0  0  0  0  0  0  0  0
    2.9050   -0.4474    3.6103 C   0  0  0  0  0  0  0  0  0  0  0  0
    2.8152   -0.1038    2.2670 C   0  0  0  0  0  0  0  0  0  0  0  0
    2.6140    0.1775    5.8444 F   0  0  0  0  0  0  0  0  0  0  0  0
   -0.5446   -1.2179    0.7260 C   0  0  0  0  0  0  0  0  0  0  0  0
   -2.0231   -1.3102    0.5187 C   0  0  0  0  0  0  0  0  0  0  0  0
   -2.5234   -1.7879   -0.6947 C   0  0  0  0  0  0  0  0  0  0  0  0
   -3.8997   -1.8731   -0.8898 C   0  0  0  0  0  0  0  0  0  0  0  0
   -4.7745   -1.4914    0.1273 C   0  0  0  0  0  0  0  0  0  0  0  0
   -4.2727   -1.0236    1.3411 C   0  0  0  0  0  0  0  0  0  0  0  0
   -2.8968   -0.9325    1.5395 C   0  0  0  0  0  0  0  0  0  0  0  0
   -0.1931    1.3068    1.7254 H   0  0  0  0  0  0  0  0  0  0  0  0
   -1.5747    1.3562    0.5781 H   0  0  0  0  0  0  0  0  0  0  0  0
   -0.0863    2.9257   -2.0407 H   0  0  0  0  0  0  0  0  0  0  0  0
    0.5224    3.6347    2.5592 H   0  0  0  0  0  0  0  0  0  0  0  0
    2.0547    4.2748    3.1438 H   0  0  0  0  0  0  0  0  0  0  0  0
    1.6747    4.7307    0.6475 H   0  0  0  0  0  0  0  0  0  0  0  0
    3.1917    3.9152    1.0201 H   0  0  0  0  0  0  0  0  0  0  0  0
    1.8777    2.5210    5.0118 H   0  0  0  0  0  0  0  0  0  0  0  0
    3.2638   -1.4360    3.9098 H   0  0  0  0  0  0  0  0  0  0  0  0
    3.1297   -0.7996    1.4908 H   0  0  0  0  0  0  0  0  0  0  0  0
   -0.2723   -1.1577    1.8074 H   0  0  0  0  0  0  0  0  0  0  0  0
   -0.0230   -2.1256    0.3286 H   0  0  0  0  0  0  0  0  0  0  0  0
   -1.8495   -2.1100   -1.4877 H   0  0  0  0  0  0  0  0  0  0  0  0
   -4.2942   -2.2476   -1.8375 H   0  0  0  0  0  0  0  0  0  0  0  0
   -5.8548   -1.5663   -0.0249 H   0  0  0  0  0  0  0  0  0  0  0  0
   -4.9592   -0.7360    2.1404 H   0  0  0  0  0  0  0  0  0  0  0  0
   -2.5136   -0.5830    2.4975 H   0  0  0  0  0  0  0  0  0  0  0  0
  1  2  1  0  0  0  0
  1  4  1  0  0  0  0
  1 20  1  0  0  0  0
  3  1  1  0  0  0  0
  4 27  1  0  0  0  0
  5  8  1  0  0  0  0
  5  6  1  1  0  0  0
  5  4  1  0  0  0  0
  7  5  1  0  0  0  0
  8  9  1  6  0  0  0
  8 10  1  0  0  0  0
  8 14  1  0  0  0  0
 10 11  1  0  0  0  0
 11 18  2  0  0  0  0
 11 12  1  0  0  0  0
 12 15  2  0  0  0  0
 13 30  1  0  0  0  0
 13 12  1  0  0  0  0
 13 31  1  0  0  0  0
 14 13  1  0  0  0  0
 15 16  1  0  0  0  0
 15 34  1  0  0  0  0
 16 19  1  0  0  0  0
 17 35  1  0  0  0  0
 17 16  2  0  0  0  0
 18 17  1  0  0  0  0
 20 37  1  0  0  0  0
 21 20  1  0  0  0  0
 21 26  2  0  0  0  0
 22 21  1  0  0  0  0
 23 22  2  0  0  0  0
 23 24  1  0  0  0  0
 24 25  2  0  0  0  0
 25 26  1  0  0  0  0
 25 42  1  0  0  0  0
 26 43  1  0  0  0  0
 28  4  1  0  0  0  0
 29  7  1  0  0  0  0
 32 14  1  0  0  0  0
 33 14  1  0  0  0  0
 36 18  1  0  0  0  0
 38 20  1  0  0  0  0
 39 22  1  0  0  0  0
 40 23  1  0  0  0  0
 41 24  1  0  0  0  0
M  END
$$$$
