rmsd66.gzmat
 OpenBabel08211713363D

 43 45  0  0  1  0  0  0  0  0999 V2000
    0.0000    0.0000    0.0000 N   0  0  0  0  0  0  0  0  0  0  0  0
    1.0512    0.0000    0.0000 H   0  0  0  0  0  0  0  0  0  0  0  0
   -0.3162    0.0000   -0.9997 H   0  0  0  0  0  0  0  0  0  0  0  0
   -0.4644    1.2901    0.6443 C   0  0  0  0  0  0  0  0  0  0  0  0
    0.1397    2.4751   -0.1366 C   0  0  2  0  0  0  0  0  0  0  0  0
   -0.4029    3.4147    0.1198 H   0  0  0  0  0  0  0  0  0  0  0  0
   -0.0887    2.1274   -1.4880 O   0  0  0  0  0  0  0  0  0  0  0  0
    1.6727    2.6537    0.0366 C   0  0  2  0  0  0  0  0  0  0  0  0
    2.1486    2.7594   -0.9769 H   0  0  0  0  0  0  0  0  0  0  0  0
    2.2591    1.4319    0.4655 O   0  0  0  0  0  0  0  0  0  0  0  0
    2.4318    1.2276    1.8111 C   0  0  0  0  0  0  0  0  0  0  0  0
    2.1025    2.1675    2.7904 C   0  0  0  0  0  0  0  0  0  0  0  0
    1.6220    3.5223    2.3936 C   0  0  0  0  0  0  0  0  0  0  0  0
    2.0286    3.8193    0.9480 C   0  0  0  0  0  0  0  0  0  0  0  0
    2.2637    1.8147    4.1296 C   0  0  0  0  0  0  0  0  0  0  0  0
    2.7683    0.5505    4.4291 C   0  0  0  0  0  0  0  0  0  0  0  0
    3.1402   -0.3742    3.4496 C   0  0  0  0  0  0  0  0  0  0  0  0
    2.9686   -0.0275    2.1154 C   0  0  0  0  0  0  0  0  0  0  0  0
    2.9105    0.2138    5.6999 F   0  0  0  0  0  0  0  0  0  0  0  0
   -0.5532   -1.2144    0.7268 C   0  0  0  0  0  0  0  0  0  0  0  0
   -2.0257   -1.3124    0.4807 C   0  0  0  0  0  0  0  0  0  0  0  0
   -2.4887   -1.8159   -0.7371 C   0  0  0  0  0  0  0  0  0  0  0  0
   -3.8580   -1.8918   -0.9785 C   0  0  0  0  0  0  0  0  0  0  0  0
   -4.7631   -1.4733   -0.0035 C   0  0  0  0  0  0  0  0  0  0  0  0
   -4.2991   -0.9873    1.2182 C   0  0  0  0  0  0  0  0  0  0  0  0
   -2.9301   -0.9058    1.4632 C   0  0  0  0  0  0  0  0  0  0  0  0
   -0.1596    1.3207    1.7152 H   0  0  0  0  0  0  0  0  0  0  0  0
   -1.5799    1.3320    0.6134 H   0  0  0  0  0  0  0  0  0  0  0  0
   -0.3112    2.9036   -2.0454 H   0  0  0  0  0  0  0  0  0  0  0  0
    0.5252    3.6094    2.5314 H   0  0  0  0  0  0  0  0  0  0  0  0
    2.0531    4.3000    3.0678 H   0  0  0  0  0  0  0  0  0  0  0  0
    1.5766    4.7656    0.5933 H   0  0  0  0  0  0  0  0  0  0  0  0
    3.1296    3.9940    0.9039 H   0  0  0  0  0  0  0  0  0  0  0  0
    2.0138    2.5211    4.9247 H   0  0  0  0  0  0  0  0  0  0  0  0
    3.5708   -1.3407    3.7248 H   0  0  0  0  0  0  0  0  0  0  0  0
    3.2807   -0.7003    1.3180 H   0  0  0  0  0  0  0  0  0  0  0  0
   -0.3095   -1.1404    1.8138 H   0  0  0  0  0  0  0  0  0  0  0  0
   -0.0172   -2.1237    0.3538 H   0  0  0  0  0  0  0  0  0  0  0  0
   -1.7901   -2.1649   -1.4967 H   0  0  0  0  0  0  0  0  0  0  0  0
   -4.2237   -2.2878   -1.9291 H   0  0  0  0  0  0  0  0  0  0  0  0
   -5.8382   -1.5345   -0.1935 H   0  0  0  0  0  0  0  0  0  0  0  0
   -5.0104   -0.6788    1.9876 H   0  0  0  0  0  0  0  0  0  0  0  0
   -2.5780   -0.5412    2.4276 H   0  0  0  0  0  0  0  0  0  0  0  0
  1  2  1  0  0  0  0
  1  4  1  0  0  0  0
  1 20  1  0  0  0  0
  3  1  1  0  0  0  0
  4 27  1  0  0  0  0
  5  8  1  0  0  0  0
  5  6  1  1  0  0  0
  5  4  1  0  0  0  0
  7  5  1  0  0  0  0
  8  9  1  6  0  0  0
  8 10  1  0  0  0  0
  8 14  1  0  0  0  0
 10 11  1  0  0  0  0
 11 18  2  0  0  0  0
 11 12  1  0  0  0  0
 12 15  2  0  0  0  0
 13 30  1  0  0  0  0
 13 12  1  0  0  0  0
 13 31  1  0  0  0  0
 14 13  1  0  0  0  0
 15 16  1  0  0  0  0
 15 34  1  0  0  0  0
 16 19  1  0  0  0  0
 17 35  1  0  0  0  0
 17 16  2  0  0  0  0
 18 17  1  0  0  0  0
 20 37  1  0  0  0  0
 21 20  1  0  0  0  0
 21 26  2  0  0  0  0
 22 21  1  0  0  0  0
 23 22  2  0  0  0  0
 23 24  1  0  0  0  0
 24 25  2  0  0  0  0
 25 26  1  0  0  0  0
 25 42  1  0  0  0  0
 26 43  1  0  0  0  0
 28  4  1  0  0  0  0
 29  7  1  0  0  0  0
 32 14  1  0  0  0  0
 33 14  1  0  0  0  0
 36 18  1  0  0  0  0
 38 20  1  0  0  0  0
 39 22  1  0  0  0  0
 40 23  1  0  0  0  0
 41 24  1  0  0  0  0
M  END
$$$$
