rmsd161.gzmat
 OpenBabel08211713363D

 43 45  0  0  1  0  0  0  0  0999 V2000
    0.0000    0.0000    0.0000 N   0  0  0  0  0  0  0  0  0  0  0  0
    1.0524    0.0000    0.0000 H   0  0  0  0  0  0  0  0  0  0  0  0
   -0.2937    0.0000   -1.0052 H   0  0  0  0  0  0  0  0  0  0  0  0
   -0.4797    1.2710    0.6650 C   0  0  0  0  0  0  0  0  0  0  0  0
    0.1760    2.4776   -0.0397 C   0  0  2  0  0  0  0  0  0  0  0  0
   -0.3930    3.4100    0.1915 H   0  0  0  0  0  0  0  0  0  0  0  0
    0.0152    2.1566   -1.4067 O   0  0  0  0  0  0  0  0  0  0  0  0
    1.6864    2.6698    0.2558 C   0  0  2  0  0  0  0  0  0  0  0  0
    2.2187    2.9357   -0.6979 H   0  0  0  0  0  0  0  0  0  0  0  0
    2.2883    1.4138    0.5373 O   0  0  0  0  0  0  0  0  0  0  0  0
    2.4351    1.0360    1.8469 C   0  0  0  0  0  0  0  0  0  0  0  0
    2.0349    1.8141    2.9355 C   0  0  0  0  0  0  0  0  0  0  0  0
    1.5135    3.1938    2.7141 C   0  0  0  0  0  0  0  0  0  0  0  0
    1.9504    3.7064    1.3396 C   0  0  0  0  0  0  0  0  0  0  0  0
    2.1657    1.2793    4.2165 C   0  0  0  0  0  0  0  0  0  0  0  0
    2.7085    0.0027    4.3536 C   0  0  0  0  0  0  0  0  0  0  0  0
    3.1527   -0.7583    3.2688 C   0  0  0  0  0  0  0  0  0  0  0  0
    3.0159   -0.2288    1.9921 C   0  0  0  0  0  0  0  0  0  0  0  0
    2.8157   -0.5100    5.5677 F   0  0  0  0  0  0  0  0  0  0  0  0
   -0.5283   -1.2361    0.7093 C   0  0  0  0  0  0  0  0  0  0  0  0
    0.0639   -2.4310    0.0324 C   0  0  0  0  0  0  0  0  0  0  0  0
    1.1787   -3.0638    0.5847 C   0  0  0  0  0  0  0  0  0  0  0  0
    1.7327   -4.1699   -0.0560 C   0  0  0  0  0  0  0  0  0  0  0  0
    1.1758   -4.6388   -1.2453 C   0  0  0  0  0  0  0  0  0  0  0  0
    0.0573   -4.0087   -1.7914 C   0  0  0  0  0  0  0  0  0  0  0  0
   -0.5043   -2.9074   -1.1512 C   0  0  0  0  0  0  0  0  0  0  0  0
   -0.2224    1.2608    1.7496 H   0  0  0  0  0  0  0  0  0  0  0  0
   -1.5901    1.3343    0.5822 H   0  0  0  0  0  0  0  0  0  0  0  0
    0.1644    2.9275   -1.9959 H   0  0  0  0  0  0  0  0  0  0  0  0
    0.4108    3.2266    2.8264 H   0  0  0  0  0  0  0  0  0  0  0  0
    1.8939    3.8837    3.5050 H   0  0  0  0  0  0  0  0  0  0  0  0
    1.4633    4.6725    1.1033 H   0  0  0  0  0  0  0  0  0  0  0  0
    3.0421    3.9361    1.3652 H   0  0  0  0  0  0  0  0  0  0  0  0
    1.8627    1.8566    5.0932 H   0  0  0  0  0  0  0  0  0  0  0  0
    3.6128   -1.7383    3.4204 H   0  0  0  0  0  0  0  0  0  0  0  0
    3.3832   -0.7659    1.1179 H   0  0  0  0  0  0  0  0  0  0  0  0
   -1.6437   -1.2429    0.6690 H   0  0  0  0  0  0  0  0  0  0  0  0
   -0.2532   -1.1897    1.7905 H   0  0  0  0  0  0  0  0  0  0  0  0
    1.6126   -2.7081    1.5196 H   0  0  0  0  0  0  0  0  0  0  0  0
    2.6006   -4.6726    0.3760 H   0  0  0  0  0  0  0  0  0  0  0  0
    1.6117   -5.5064   -1.7483 H   0  0  0  0  0  0  0  0  0  0  0  0
   -0.3827   -4.3840   -2.7180 H   0  0  0  0  0  0  0  0  0  0  0  0
   -1.3908   -2.4352   -1.5722 H   0  0  0  0  0  0  0  0  0  0  0  0
  1  2  1  0  0  0  0
  1  4  1  0  0  0  0
  1 20  1  0  0  0  0
  3  1  1  0  0  0  0
  4 27  1  0  0  0  0
  5  6  1  1  0  0  0
  5  8  1  0  0  0  0
  5  4  1  0  0  0  0
  7  5  1  0  0  0  0
  8  9  1  6  0  0  0
  8 10  1  0  0  0  0
  8 14  1  0  0  0  0
 10 11  1  0  0  0  0
 11 18  2  0  0  0  0
 11 12  1  0  0  0  0
 12 15  2  0  0  0  0
 13 30  1  0  0  0  0
 13 12  1  0  0  0  0
 13 31  1  0  0  0  0
 14 33  1  0  0  0  0
 14 13  1  0  0  0  0
 15 16  1  0  0  0  0
 15 34  1  0  0  0  0
 16 19  1  0  0  0  0
 17 35  1  0  0  0  0
 17 16  2  0  0  0  0
 18 17  1  0  0  0  0
 20 38  1  0  0  0  0
 21 22  1  0  0  0  0
 21 20  1  0  0  0  0
 22 39  1  0  0  0  0
 23 40  1  0  0  0  0
 23 22  2  0  0  0  0
 24 23  1  0  0  0  0
 25 24  2  0  0  0  0
 25 26  1  0  0  0  0
 26 21  2  0  0  0  0
 28  4  1  0  0  0  0
 29  7  1  0  0  0  0
 32 14  1  0  0  0  0
 36 18  1  0  0  0  0
 37 20  1  0  0  0  0
 41 24  1  0  0  0  0
 42 25  1  0  0  0  0
 43 26  1  0  0  0  0
M  END
$$$$
