43
rmsd167.gzmat
N          0.00000        0.00000        0.00000
H          1.05280        0.00000        0.00000
H         -0.29410        0.00000       -1.00500
C         -0.47740        1.27250        0.66380
C          0.16910        2.47820       -0.05150
H         -0.40120        3.40990        0.18060
O         -0.00890        2.15240       -1.41510
C          1.68130        2.67710        0.22910
H          2.20410        2.94780       -0.72850
O          2.29020        1.42240        0.50150
C          2.47480        1.05150        1.80830
C          2.07930        1.82210        2.90390
C          1.53170        3.19270        2.69020
C          1.95020        3.71310        1.31230
C          2.24270        1.29050        4.18250
C          2.81510        0.02610        4.30950
C          3.25990       -0.72360        3.21710
C          3.08940       -0.19770        1.94290
F          2.95370       -0.48450        5.52150
C         -0.52820       -1.23640        0.70950
C          0.13700       -2.42580        0.09340
C         -0.39760       -3.00300       -1.06040
C          0.23370       -4.10160       -1.63820
C          1.39260       -4.62380       -1.06400
C          1.92030       -4.05070        0.09300
C          1.29150       -2.95330        0.67550
H         -0.21070        1.26730        1.74600
H         -1.58860        1.33330        0.58940
H          0.18960        2.90500       -2.01320
H          0.42970        3.20650        2.81060
H          1.90580        3.88800        3.47950
H          1.45320        4.67600        1.08380
H          3.04030        3.95050        1.32750
H          1.94230        1.86160        5.06400
H          3.74650       -1.69180        3.36150
H          3.45500       -0.72500        1.06190
H         -1.63870       -1.27700        0.61180
H         -0.31140       -1.16060        1.80220
H         -1.31130       -2.61230       -1.50630
H         -0.18310       -4.55860       -2.53860
H          1.88400       -5.48800       -1.51880
H          2.82260       -4.46680        0.54600
H          1.69820       -2.52090        1.59040
