rmsd195.gzmat
 OpenBabel08211713363D

 43 45  0  0  1  0  0  0  0  0999 V2000
    0.0000    0.0000    0.0000 N   0  0  0  0  0  0  0  0  0  0  0  0
    1.0532    0.0000    0.0000 H   0  0  0  0  0  0  0  0  0  0  0  0
   -0.2936    0.0000   -1.0047 H   0  0  0  0  0  0  0  0  0  0  0  0
   -0.4753    1.2766    0.6581 C   0  0  0  0  0  0  0  0  0  0  0  0
    0.0672    2.4800   -0.1419 C   0  0  2  0  0  0  0  0  0  0  0  0
   -0.4933    3.4042    0.1371 H   0  0  0  0  0  0  0  0  0  0  0  0
   -0.2393    2.1273   -1.4758 O   0  0  0  0  0  0  0  0  0  0  0  0
    1.5980    2.7083   -0.0300 C   0  0  2  0  0  0  0  0  0  0  0  0
    2.0227    2.8852   -1.0555 H   0  0  0  0  0  0  0  0  0  0  0  0
    2.2511    1.4919    0.3063 O   0  0  0  0  0  0  0  0  0  0  0  0
    2.5302    1.2415    1.6257 C   0  0  0  0  0  0  0  0  0  0  0  0
    2.2143    2.1133    2.6698 C   0  0  0  0  0  0  0  0  0  0  0  0
    1.6490    3.4603    2.3699 C   0  0  0  0  0  0  0  0  0  0  0  0
    1.9547    3.8436    0.9198 C   0  0  0  0  0  0  0  0  0  0  0  0
    2.4742    1.7048    3.9774 C   0  0  0  0  0  0  0  0  0  0  0  0
    3.0595    0.4563    4.1808 C   0  0  0  0  0  0  0  0  0  0  0  0
    3.4244   -0.3945    3.1340 C   0  0  0  0  0  0  0  0  0  0  0  0
    3.1555    0.0077    1.8320 C   0  0  0  0  0  0  0  0  0  0  0  0
    3.2883    0.0607    5.4215 F   0  0  0  0  0  0  0  0  0  0  0  0
   -0.5282   -1.2371    0.7099 C   0  0  0  0  0  0  0  0  0  0  0  0
    0.3591   -2.3840    0.3427 C   0  0  0  0  0  0  0  0  0  0  0  0
    1.3665   -2.7863    1.2217 C   0  0  0  0  0  0  0  0  0  0  0  0
    2.2020   -3.8462    0.8775 C   0  0  0  0  0  0  0  0  0  0  0  0
    2.0303   -4.5027   -0.3406 C   0  0  0  0  0  0  0  0  0  0  0  0
    1.0180   -4.1044   -1.2138 C   0  0  0  0  0  0  0  0  0  0  0  0
    0.1787   -3.0467   -0.8734 C   0  0  0  0  0  0  0  0  0  0  0  0
   -0.1247    1.3195    1.7156 H   0  0  0  0  0  0  0  0  0  0  0  0
   -1.5904    1.2955    0.6680 H   0  0  0  0  0  0  0  0  0  0  0  0
   -0.2321    2.8995   -2.0823 H   0  0  0  0  0  0  0  0  0  0  0  0
    0.5599    3.4912    2.5756 H   0  0  0  0  0  0  0  0  0  0  0  0
    2.0844    4.2253    3.0561 H   0  0  0  0  0  0  0  0  0  0  0  0
    1.4403    4.7833    0.6403 H   0  0  0  0  0  0  0  0  0  0  0  0
    3.0425    4.0719    0.8213 H   0  0  0  0  0  0  0  0  0  0  0  0
    2.2382    2.3579    4.8206 H   0  0  0  0  0  0  0  0  0  0  0  0
    3.9250   -1.3455    3.3323 H   0  0  0  0  0  0  0  0  0  0  0  0
    3.4491   -0.6078    0.9819 H   0  0  0  0  0  0  0  0  0  0  0  0
   -1.5885   -1.4125    0.4099 H   0  0  0  0  0  0  0  0  0  0  0  0
   -0.5397   -1.0635    1.8124 H   0  0  0  0  0  0  0  0  0  0  0  0
    1.4994   -2.2847    2.1813 H   0  0  0  0  0  0  0  0  0  0  0  0
    2.9878   -4.1668    1.5647 H   0  0  0  0  0  0  0  0  0  0  0  0
    2.6850   -5.3360   -0.6091 H   0  0  0  0  0  0  0  0  0  0  0  0
    0.8778   -4.6286   -2.1618 H   0  0  0  0  0  0  0  0  0  0  0  0
   -0.6204   -2.7540   -1.5531 H   0  0  0  0  0  0  0  0  0  0  0  0
  1  2  1  0  0  0  0
  1  4  1  0  0  0  0
  1 20  1  0  0  0  0
  3  1  1  0  0  0  0
  4 28  1  0  0  0  0
  4 27  1  0  0  0  0
  5  8  1  0  0  0  0
  5  6  1  1  0  0  0
  5  4  1  0  0  0  0
  7  5  1  0  0  0  0
  8  9  1  6  0  0  0
  8 10  1  0  0  0  0
  8 14  1  0  0  0  0
 10 11  1  0  0  0  0
 11 18  2  0  0  0  0
 11 12  1  0  0  0  0
 12 15  2  0  0  0  0
 13 30  1  0  0  0  0
 13 12  1  0  0  0  0
 13 31  1  0  0  0  0
 14 13  1  0  0  0  0
 15 16  1  0  0  0  0
 15 34  1  0  0  0  0
 16 19  1  0  0  0  0
 17 35  1  0  0  0  0
 17 16  2  0  0  0  0
 18 17  1  0  0  0  0
 20 38  1  0  0  0  0
 21 20  1  0  0  0  0
 21 22  2  0  0  0  0
 22 39  1  0  0  0  0
 23 22  1  0  0  0  0
 23 40  1  0  0  0  0
 24 23  2  0  0  0  0
 25 26  2  0  0  0  0
 25 24  1  0  0  0  0
 26 21  1  0  0  0  0
 29  7  1  0  0  0  0
 32 14  1  0  0  0  0
 33 14  1  0  0  0  0
 36 18  1  0  0  0  0
 37 20  1  0  0  0  0
 41 24  1  0  0  0  0
 42 25  1  0  0  0  0
 43 26  1  0  0  0  0
M  END
$$$$
