43
rmsd160.gzmat
N          0.00000        0.00000        0.00000
H          1.05260        0.00000        0.00000
H         -0.29530        0.00000       -1.00470
C         -0.47840        1.27240        0.66320
C          0.14500        2.47890       -0.07070
H         -0.41410        3.41050        0.18640
O         -0.07200        2.15750       -1.42990
C          1.66850        2.67100        0.15440
H          2.16860        2.86250       -0.83400
O          2.27160        1.43280        0.50440
C          2.42550        1.13570        1.83410
C          2.04820        1.99020        2.87290
C          1.55730        3.36520        2.56870
C          1.98050        3.77480        1.15610
C          2.17430        1.53560        4.18470
C          2.69160        0.25950        4.40120
C          3.12120       -0.57490        3.36580
C          2.98930       -0.12460        2.05810
F          2.78790       -0.17860        5.64520
C         -0.52600       -1.23850        0.70810
C          0.12590       -2.42590        0.07350
C          1.29650       -2.95140        0.62440
C          1.91670       -4.04180        0.01970
C          1.36610       -4.60840       -1.12950
C          0.18880       -4.09070       -1.67010
C         -0.43510       -3.00040       -1.06890
H         -0.19500        1.27800        1.74140
H         -1.59110        1.32250        0.60630
H         -0.00080        2.93990       -2.01870
H          0.45790        3.43310        2.69660
H          1.96920        4.09460        3.30620
H          1.51140        4.73380        0.86200
H          3.07770        3.97750        1.14490
H          1.88690        2.17320        5.02390
H          3.56520       -1.55100        3.57850
H          3.34850       -0.72040        1.21940
H         -1.63780       -1.27250        0.62380
H         -0.29580       -1.17120        1.79850
H          1.72230       -2.52360        1.53260
H          2.83120       -4.45740        0.44840
H          1.85350       -5.46480       -1.60370
H         -0.24690       -4.54480       -2.56310
H         -1.36390       -2.61370       -1.48730
