43
rmsd65.gzmat
N          0.00000        0.00000        0.00000
H          1.05180        0.00000        0.00000
H         -0.31820        0.00000       -0.99880
C         -0.46180        1.29160        0.64450
C          0.19330        2.46980       -0.10570
H         -0.33780        3.41900        0.13930
O         -0.00920        2.13490       -1.46450
C          1.72430        2.61080        0.11660
H          2.23680        2.69520       -0.88030
O          2.26600        1.37930        0.57570
C          2.36040        1.17490        1.92940
C          2.03240        2.13840        2.88650
C          1.62000        3.50690        2.46080
C          2.08480        3.77520        1.02810
C          2.12140        1.79310        4.23420
C          2.54450        0.50680        4.56560
C          2.90500       -0.44740        3.61030
C          2.81520       -0.10380        2.26700
F          2.61400        0.17750        5.84440
C         -0.54460       -1.21790        0.72600
C         -2.02310       -1.31020        0.51870
C         -2.52340       -1.78790       -0.69470
C         -3.89970       -1.87310       -0.88980
C         -4.77450       -1.49140        0.12730
C         -4.27270       -1.02360        1.34110
C         -2.89680       -0.93250        1.53950
H         -0.19310        1.30680        1.72540
H         -1.57470        1.35620        0.57810
H         -0.08630        2.92570       -2.04070
H          0.52240        3.63470        2.55920
H          2.05470        4.27480        3.14380
H          1.67470        4.73070        0.64750
H          3.19170        3.91520        1.02010
H          1.87770        2.52100        5.01180
H          3.26380       -1.43600        3.90980
H          3.12970       -0.79960        1.49080
H         -0.27230       -1.15770        1.80740
H         -0.02300       -2.12560        0.32860
H         -1.84950       -2.11000       -1.48770
H         -4.29420       -2.24760       -1.83750
H         -5.85480       -1.56630       -0.02490
H         -4.95920       -0.73600        2.14040
H         -2.51360       -0.58300        2.49750
