57

C          0.16500       -0.30470       -0.03200
C          1.65460        0.12490       -0.01880
C          2.16470        0.06360        1.43340
O          1.74160        0.70290        2.37590
N          3.17770       -0.84050        1.47110
C          3.48020       -1.46680        0.21300
N          2.52980       -0.84930       -0.69100
C          2.51710       -1.21700       -2.02770
C          3.43000       -2.19160       -2.49990
C          3.44130       -2.58210       -3.83890
C          2.55330       -2.02570       -4.76060
C          1.64820       -1.06260       -4.30790
C          1.62300       -0.66080       -2.97390
C          1.85240        1.56900       -0.54690
C          0.79720        2.54270        0.00860
N         -0.57160        2.08490       -0.18540
C         -1.05820        2.16140       -1.55210
C         -2.58930        2.28450       -1.63520
C         -3.06890        2.30820       -3.05690
C         -3.46330        3.37930       -3.77710
C         -3.85640        3.22850       -5.20530
C         -4.81210        4.08140       -5.78980
C         -5.20230        3.94000       -7.12250
C         -4.62020        2.93920       -7.89360
C         -3.65550        2.08700       -7.36100
C         -3.27880        2.24140       -6.02830
F         -4.98400        2.79990       -9.17750
C         -3.55450        4.77020       -3.19610
C         -0.77320        0.80390        0.48100
H          0.05040       -1.21310        0.58170
H         -0.11400       -0.59250       -1.05420
H          3.66680       -1.05030        2.33290
H          4.52800       -1.27690       -0.09890
H          3.34840       -2.56770        0.26090
H          4.14380       -2.65660       -1.82110
H          4.16250       -3.33780       -4.16070
H          2.56610       -2.33430       -5.80750
H          0.94020       -0.60620       -5.00460
H          0.89960        0.09250       -2.67800
H          2.86690        1.90950       -0.28190
H          1.80970        1.55970       -1.64440
H          0.96350        2.67380        1.08790
H          0.91920        3.52850       -0.46770
H         -0.73900        1.30640       -2.18980
H         -0.61860        3.05670       -2.02030
H         -2.89180        3.17810       -1.07160
H         -3.04800        1.42320       -1.12060
H         -3.06880        1.33400       -3.55790
H         -5.27890        4.86550       -5.19230
H         -5.95140        4.59530       -7.57060
H         -3.20150        1.32640       -7.99880
H         -2.49930        1.59440       -5.62270
H         -3.06380        4.84470       -2.21800
H         -4.60460        5.08110       -3.05950
H         -3.09020        5.50740       -3.87030
H         -1.81850        0.48200        0.35950
H         -0.60310        0.95000        1.55750
