rmsd121.gzmat
 OpenBabel08211713413D

 57 60  0  0  1  0  0  0  0  0999 V2000
    0.0000    0.0000    0.0000 C   0  0  0  0  0  0  0  0  0  0  0  0
    1.5353    0.0000    0.0000 C   0  0  1  0  0  0  0  0  0  0  0  0
    2.0322    0.0000    1.4707 C   0  0  0  0  0  0  0  0  0  0  0  0
    1.7409    0.7617    2.3569 O   0  0  0  0  0  0  0  0  0  0  0  0
    2.9263   -1.0435    1.6260 N   0  0  0  0  0  0  0  0  0  0  0  0
    3.0486   -1.8625    0.4130 C   0  0  0  0  0  0  0  0  0  0  0  0
    2.0215   -1.3108   -0.5161 N   0  0  0  0  0  0  0  0  0  0  0  0
    2.1439   -1.6039   -1.8807 C   0  0  0  0  0  0  0  0  0  0  0  0
    3.0011   -2.6398   -2.3060 C   0  0  0  0  0  0  0  0  0  0  0  0
    3.0391   -3.0080   -3.6463 C   0  0  0  0  0  0  0  0  0  0  0  0
    2.2462   -2.3588   -4.5891 C   0  0  0  0  0  0  0  0  0  0  0  0
    1.3926   -1.3386   -4.1744 C   0  0  0  0  0  0  0  0  0  0  0  0
    1.3329   -0.9640   -2.8382 C   0  0  0  0  0  0  0  0  0  0  0  0
    2.1674    1.2140   -0.7000 C   0  0  0  0  0  0  0  0  0  0  0  0
    1.4721    2.5198   -0.2626 C   0  0  0  0  0  0  0  0  0  0  0  0
    0.0061    2.5008   -0.4219 N   0  0  0  0  0  0  0  0  0  0  0  0
   -0.4003    2.4750   -1.8456 C   0  0  0  0  0  0  0  0  0  0  0  0
   -1.8505    2.9840   -1.9699 C   0  0  0  0  0  0  0  0  0  0  0  0
   -2.3148    2.9333   -3.3838 C   0  0  0  0  0  0  0  0  0  0  0  0
   -3.5095    3.3884   -3.7845 C   0  0  0  0  0  0  0  0  0  0  0  0
   -3.9103    3.2907   -5.1972 C   0  0  0  0  0  0  0  0  0  0  0  0
   -4.6888    2.2102   -5.6217 C   0  0  0  0  0  0  0  0  0  0  0  0
   -5.0754    2.1038   -6.9546 C   0  0  0  0  0  0  0  0  0  0  0  0
   -4.6637    3.1017   -7.8368 C   0  0  0  0  0  0  0  0  0  0  0  0
   -3.8881    4.1909   -7.4430 C   0  0  0  0  0  0  0  0  0  0  0  0
   -3.5120    4.2754   -6.1051 C   0  0  0  0  0  0  0  0  0  0  0  0
   -5.0236    3.0091   -9.1091 F   0  0  0  0  0  0  0  0  0  0  0  0
   -4.5097    4.0198   -2.8775 C   0  0  0  0  0  0  0  0  0  0  0  0
   -0.5578    1.3895    0.3662 C   0  0  0  0  0  0  0  0  0  0  0  0
   -0.3778   -0.7582    0.7140 H   0  0  0  0  0  0  0  0  0  0  0  0
   -0.3898   -0.3260   -0.9828 H   0  0  0  0  0  0  0  0  0  0  0  0
    3.3291   -1.3283    2.4954 H   0  0  0  0  0  0  0  0  0  0  0  0
    4.0854   -1.7765    0.0009 H   0  0  0  0  0  0  0  0  0  0  0  0
    2.8024   -2.9337    0.6195 H   0  0  0  0  0  0  0  0  0  0  0  0
    3.6306   -3.1743   -1.6041 H   0  0  0  0  0  0  0  0  0  0  0  0
    3.6990   -3.8173   -3.9594 H   0  0  0  0  0  0  0  0  0  0  0  0
    2.2899   -2.6479   -5.6342 H   0  0  0  0  0  0  0  0  0  0  0  0
    0.7621   -0.8288   -4.9040 H   0  0  0  0  0  0  0  0  0  0  0  0
    0.6396   -0.1811   -2.5409 H   0  0  0  0  0  0  0  0  0  0  0  0
    3.2487    1.2688   -0.4722 H   0  0  0  0  0  0  0  0  0  0  0  0
    2.1122    1.1103   -1.7994 H   0  0  0  0  0  0  0  0  0  0  0  0
    1.6839    2.7188    0.8168 H   0  0  0  0  0  0  0  0  0  0  0  0
    1.8880    3.3821   -0.8247 H   0  0  0  0  0  0  0  0  0  0  0  0
   -0.3118    1.4683   -2.3059 H   0  0  0  0  0  0  0  0  0  0  0  0
    0.2697    3.1513   -2.4210 H   0  0  0  0  0  0  0  0  0  0  0  0
   -1.9119    4.0168   -1.5645 H   0  0  0  0  0  0  0  0  0  0  0  0
   -2.5260    2.3857   -1.3227 H   0  0  0  0  0  0  0  0  0  0  0  0
   -1.6230    2.4887   -4.0989 H   0  0  0  0  0  0  0  0  0  0  0  0
   -4.9902    1.4480   -4.9033 H   0  0  0  0  0  0  0  0  0  0  0  0
   -5.6797    1.2650   -7.2936 H   0  0  0  0  0  0  0  0  0  0  0  0
   -3.5832    4.9534   -8.1569 H   0  0  0  0  0  0  0  0  0  0  0  0
   -2.9033    5.1114   -5.7613 H   0  0  0  0  0  0  0  0  0  0  0  0
   -4.5934    3.4834   -1.9215 H   0  0  0  0  0  0  0  0  0  0  0  0
   -5.5144    4.0537   -3.3207 H   0  0  0  0  0  0  0  0  0  0  0  0
   -4.2258    5.0572   -2.6430 H   0  0  0  0  0  0  0  0  0  0  0  0
   -1.6630    1.3921    0.2617 H   0  0  0  0  0  0  0  0  0  0  0  0
   -0.3440    1.6100    1.4418 H   0  0  0  0  0  0  0  0  0  0  0  0
  1  2  1  0  0  0  0
  1 29  1  0  0  0  0
  1 30  1  0  0  0  0
  2  3  1  1  0  0  0
  3  5  1  0  0  0  0
  3  4  2  0  0  0  0
  5 32  1  0  0  0  0
  6 34  1  0  0  0  0
  6  5  1  0  0  0  0
  7  2  1  0  0  0  0
  7  6  1  0  0  0  0
  8  7  1  0  0  0  0
  9  8  1  0  0  0  0
  9 35  1  0  0  0  0
 10  9  2  0  0  0  0
 11 12  2  0  0  0  0
 11 10  1  0  0  0  0
 12 13  1  0  0  0  0
 13 39  1  0  0  0  0
 13  8  2  0  0  0  0
 14 40  1  0  0  0  0
 14 15  1  0  0  0  0
 14  2  1  0  0  0  0
 15 42  1  0  0  0  0
 16 15  1  0  0  0  0
 16 29  1  0  0  0  0
 17 16  1  0  0  0  0
 18 17  1  0  0  0  0
 18 46  1  0  0  0  0
 18 47  1  0  0  0  0
 19 18  1  0  0  0  0
 20 19  2  0  0  0  0
 20 28  1  0  0  0  0
 21 20  1  0  0  0  0
 22 21  1  0  0  0  0
 22 49  1  0  0  0  0
 23 22  2  0  0  0  0
 24 25  2  0  0  0  0
 24 23  1  0  0  0  0
 25 26  1  0  0  0  0
 26 52  1  0  0  0  0
 26 21  2  0  0  0  0
 27 24  1  0  0  0  0
 28 55  1  0  0  0  0
 28 53  1  0  0  0  0
 29 57  1  0  0  0  0
 31  1  1  0  0  0  0
 33  6  1  0  0  0  0
 36 10  1  0  0  0  0
 37 11  1  0  0  0  0
 38 12  1  0  0  0  0
 41 14  1  0  0  0  0
 43 15  1  0  0  0  0
 44 17  1  0  0  0  0
 45 17  1  0  0  0  0
 48 19  1  0  0  0  0
 50 23  1  0  0  0  0
 51 25  1  0  0  0  0
 54 28  1  0  0  0  0
 56 29  1  0  0  0  0
M  END
$$$$
