57
rmsd12.gzmat
C          0.00000        0.00000        0.00000
C          1.53850        0.00000        0.00000
C          2.06010        0.00000        1.45750
O          2.03910        0.89650        2.26270
N          2.60930       -1.24370        1.71620
C          2.42510       -2.17280        0.58780
N          1.96170       -1.33510       -0.55270
C          2.86490       -1.27070       -1.66610
C          4.25620       -1.18440       -1.53950
C          5.04650       -1.14470       -2.68500
C          4.45830       -1.18370       -3.94800
C          3.07160       -1.26670       -4.07050
C          2.26950       -1.31110       -2.93520
C          2.12440        1.19740       -0.75550
C          1.44000        2.51190       -0.32840
N         -0.03010        2.48580       -0.44970
C         -0.50190        2.36930       -1.85010
C         -0.21760        3.67520       -2.62440
C         -0.53120        3.46120       -4.06670
C          0.26700        2.81340       -4.92790
C         -0.15120        2.63290       -6.32800
C          0.58680        3.21930       -7.36080
C          0.19200        3.06270       -8.68630
C         -0.95100        2.30700       -8.94380
C         -1.70780        1.70970       -7.93730
C         -1.29440        1.88170       -6.61930
F         -1.33530        2.15020      -10.20250
C          1.58840        2.21730       -4.57940
C         -0.55370        1.38450        0.38590
H         -0.38460       -0.77350        0.68990
H         -0.36300       -0.29760       -1.00330
H          2.99060       -1.53250        2.59240
H          3.35970       -2.73580        0.37200
H          1.60360       -2.90280        0.80830
H          4.71990       -1.13530       -0.55640
H          6.12950       -1.07620       -2.59160
H          5.08100       -1.14890       -4.83920
H          2.61390       -1.30100       -5.05880
H          1.18560       -1.38260       -3.01820
H          3.21480        1.27210       -0.58540
H          1.99690        1.05900       -1.84810
H          1.68100        2.73590        0.74040
H          1.84170        3.35920       -0.92200
H         -1.59990        2.19330       -1.83150
H         -0.05020        1.50890       -2.38930
H          0.83630        3.99230       -2.48860
H         -0.81720        4.50080       -2.19160
H         -1.48730        3.87020       -4.39250
H          1.47220        3.80950       -7.12410
H          0.75950        3.52000       -9.49420
H         -2.59630        1.12660       -8.17090
H         -1.86390        1.42910       -5.80760
H          2.05010        2.69720       -3.70520
H          2.30950        2.29450       -5.40550
H          1.48580        1.14550       -4.34680
H         -1.66180        1.38540        0.33520
H         -0.28840        1.61860        1.44580
