57

C         -0.00900        0.44510        0.07910
C          1.51840        0.29690       -0.14550
C          2.18370        0.04960        1.22090
O          2.18560        0.80770        2.17010
N          2.76900       -1.17550        1.17310
C          2.60000       -1.88090       -0.06830
N          1.86170       -0.93290       -0.88020
C          1.46780       -1.28950       -2.16090
C          1.80260       -2.56570       -2.67610
C          1.42020       -2.94810       -3.96220
C          0.69520       -2.08700       -4.78750
C          0.36230       -0.82300       -4.29350
C          0.73600       -0.42650       -3.01080
C          2.15340        1.56700       -0.77010
C          1.60200        2.86760       -0.15190
N          0.14470        2.93510       -0.15020
C         -0.42530        3.07150       -1.47950
C         -1.90580        3.49080       -1.50030
C         -2.45360        3.40410       -2.89770
C         -2.90990        2.28080       -3.49330
C         -3.33510        2.28770       -4.91820
C         -3.19610        1.13530       -5.71610
C         -3.55920        1.13090       -7.06390
C         -4.08430        2.29060       -7.62480
C         -4.25750        3.44580       -6.86550
C         -3.88730        3.43440       -5.52200
F         -4.44220        2.29410       -8.91780
C         -2.97600        0.95180       -2.77730
C         -0.38940        1.82830        0.63770
H         -0.34650       -0.34780        0.76660
H         -0.52990        0.26470       -0.87020
H          3.26080       -1.55780        1.97170
H          3.57430       -2.14310       -0.52880
H          2.03980       -2.82890        0.07300
H          2.36810       -3.27550       -2.07370
H          1.69890       -3.94280       -4.31970
H          0.40060       -2.39110       -5.79360
H         -0.19680       -0.11880       -4.91550
H          0.45310        0.56700       -2.68020
H          3.24670        1.51770       -0.63960
H          1.97780        1.56230       -1.85380
H          1.94980        2.94640        0.88820
H          2.00320        3.73290       -0.70370
H         -0.34260        2.14700       -2.08670
H          0.16220        3.82900       -2.02380
H         -1.99520        4.51280       -1.10080
H         -2.47980        2.83990       -0.82410
H         -2.37740        4.31290       -3.50300
H         -2.78020        0.22300       -5.28620
H         -3.44090        0.24060       -7.68420
H         -4.69260        4.33220       -7.33070
H         -4.05150        4.33030       -4.92090
H         -2.89520        1.06480       -1.68890
H         -2.16020        0.27990       -3.09220
H         -3.92120        0.43150       -2.99800
H         -1.48460        1.90710        0.70420
H          0.00150        1.92470        1.66060
