rmsd36.gzmat
 OpenBabel08211713413D

 57 60  0  0  1  0  0  0  0  0999 V2000
    0.0000    0.0000    0.0000 C   0  0  0  0  0  0  0  0  0  0  0  0
    1.5361    0.0000    0.0000 C   0  0  1  0  0  0  0  0  0  0  0  0
    2.0278    0.0000    1.4722 C   0  0  0  0  0  0  0  0  0  0  0  0
    1.7491    0.7722    2.3535 O   0  0  0  0  0  0  0  0  0  0  0  0
    2.8936   -1.0642    1.6408 N   0  0  0  0  0  0  0  0  0  0  0  0
    3.0206   -1.8833    0.4289 C   0  0  0  0  0  0  0  0  0  0  0  0
    2.0249   -1.3102   -0.5208 N   0  0  0  0  0  0  0  0  0  0  0  0
    2.2022   -1.5596   -1.8901 C   0  0  0  0  0  0  0  0  0  0  0  0
    3.1565   -2.4974   -2.3325 C   0  0  0  0  0  0  0  0  0  0  0  0
    3.2504   -2.8148   -3.6835 C   0  0  0  0  0  0  0  0  0  0  0  0
    2.4094   -2.2164   -4.6180 C   0  0  0  0  0  0  0  0  0  0  0  0
    1.4554   -1.2971   -4.1856 C   0  0  0  0  0  0  0  0  0  0  0  0
    1.3453   -0.9706   -2.8405 C   0  0  0  0  0  0  0  0  0  0  0  0
    2.1566    1.2139   -0.7087 C   0  0  0  0  0  0  0  0  0  0  0  0
    1.4744    2.5198   -0.2525 C   0  0  0  0  0  0  0  0  0  0  0  0
    0.0075    2.5070   -0.3946 N   0  0  0  0  0  0  0  0  0  0  0  0
   -0.4192    2.5114   -1.8122 C   0  0  0  0  0  0  0  0  0  0  0  0
   -1.8661    3.0459   -1.8985 C   0  0  0  0  0  0  0  0  0  0  0  0
   -2.3318    2.9852   -3.3132 C   0  0  0  0  0  0  0  0  0  0  0  0
   -2.9120    1.9100   -3.8660 C   0  0  0  0  0  0  0  0  0  0  0  0
   -3.3563    1.9378   -5.2679 C   0  0  0  0  0  0  0  0  0  0  0  0
   -2.8265    1.0311   -6.1918 C   0  0  0  0  0  0  0  0  0  0  0  0
   -3.2522    1.0473   -7.5167 C   0  0  0  0  0  0  0  0  0  0  0  0
   -4.2152    1.9859   -7.8847 C   0  0  0  0  0  0  0  0  0  0  0  0
   -4.7595    2.9049   -6.9896 C   0  0  0  0  0  0  0  0  0  0  0  0
   -4.3161    2.8718   -5.6705 C   0  0  0  0  0  0  0  0  0  0  0  0
   -4.6319    2.0047   -9.1425 F   0  0  0  0  0  0  0  0  0  0  0  0
   -3.1680    0.6369   -3.1304 C   0  0  0  0  0  0  0  0  0  0  0  0
   -0.5543    1.3871    0.3819 C   0  0  0  0  0  0  0  0  0  0  0  0
   -0.3782   -0.7658    0.7057 H   0  0  0  0  0  0  0  0  0  0  0  0
   -0.3882   -0.3120   -0.9873 H   0  0  0  0  0  0  0  0  0  0  0  0
    3.2894   -1.3500    2.5132 H   0  0  0  0  0  0  0  0  0  0  0  0
    4.0697   -1.8226    0.0443 H   0  0  0  0  0  0  0  0  0  0  0  0
    2.7437   -2.9487    0.6261 H   0  0  0  0  0  0  0  0  0  0  0  0
    3.8262   -2.9917   -1.6378 H   0  0  0  0  0  0  0  0  0  0  0  0
    3.9949   -3.5408   -4.0112 H   0  0  0  0  0  0  0  0  0  0  0  0
    2.4932   -2.4644   -5.6714 H   0  0  0  0  0  0  0  0  0  0  0  0
    0.7871   -0.8286   -4.9087 H   0  0  0  0  0  0  0  0  0  0  0  0
    0.5784   -0.2658   -2.5289 H   0  0  0  0  0  0  0  0  0  0  0  0
    3.2428    1.2649   -0.5075 H   0  0  0  0  0  0  0  0  0  0  0  0
    2.0713    1.1152   -1.8072 H   0  0  0  0  0  0  0  0  0  0  0  0
    1.7004    2.7099    0.8258 H   0  0  0  0  0  0  0  0  0  0  0  0
    1.8862    3.3845   -0.8141 H   0  0  0  0  0  0  0  0  0  0  0  0
   -0.3545    1.5134   -2.2934 H   0  0  0  0  0  0  0  0  0  0  0  0
    0.2500    3.1856   -2.3901 H   0  0  0  0  0  0  0  0  0  0  0  0
   -1.8974    4.0831   -1.5065 H   0  0  0  0  0  0  0  0  0  0  0  0
   -2.5325    2.4691   -1.2268 H   0  0  0  0  0  0  0  0  0  0  0  0
   -2.1607    3.8915   -3.8928 H   0  0  0  0  0  0  0  0  0  0  0  0
   -2.0743    0.3104   -5.8704 H   0  0  0  0  0  0  0  0  0  0  0  0
   -2.8453    0.3462   -8.2424 H   0  0  0  0  0  0  0  0  0  0  0  0
   -5.5085    3.6276   -7.3073 H   0  0  0  0  0  0  0  0  0  0  0  0
   -4.7219    3.5760   -4.9437 H   0  0  0  0  0  0  0  0  0  0  0  0
   -2.2485    0.2341   -2.6818 H   0  0  0  0  0  0  0  0  0  0  0  0
   -3.5878   -0.1473   -3.7750 H   0  0  0  0  0  0  0  0  0  0  0  0
   -3.8870    0.7934   -2.3114 H   0  0  0  0  0  0  0  0  0  0  0  0
   -1.6598    1.3934    0.2811 H   0  0  0  0  0  0  0  0  0  0  0  0
   -0.3356    1.5956    1.4593 H   0  0  0  0  0  0  0  0  0  0  0  0
  1 29  1  0  0  0  0
  1 30  1  0  0  0  0
  2  1  1  0  0  0  0
  2  3  1  1  0  0  0
  3  5  1  0  0  0  0
  3  4  2  0  0  0  0
  5 32  1  0  0  0  0
  6 34  1  0  0  0  0
  6  5  1  0  0  0  0
  7  2  1  0  0  0  0
  7  6  1  0  0  0  0
  8  7  1  0  0  0  0
  9  8  1  0  0  0  0
  9 35  1  0  0  0  0
 10  9  2  0  0  0  0
 11 12  2  0  0  0  0
 11 10  1  0  0  0  0
 12 13  1  0  0  0  0
 13 39  1  0  0  0  0
 13  8  2  0  0  0  0
 14 40  1  0  0  0  0
 14 15  1  0  0  0  0
 14  2  1  0  0  0  0
 15 42  1  0  0  0  0
 16 15  1  0  0  0  0
 16 29  1  0  0  0  0
 17 16  1  0  0  0  0
 18 17  1  0  0  0  0
 18 46  1  0  0  0  0
 18 47  1  0  0  0  0
 19 18  1  0  0  0  0
 20 19  2  0  0  0  0
 20 28  1  0  0  0  0
 21 20  1  0  0  0  0
 22 49  1  0  0  0  0
 22 21  2  0  0  0  0
 23 22  1  0  0  0  0
 24 23  2  0  0  0  0
 24 25  1  0  0  0  0
 25 26  2  0  0  0  0
 26 21  1  0  0  0  0
 26 52  1  0  0  0  0
 27 24  1  0  0  0  0
 28 53  1  0  0  0  0
 28 55  1  0  0  0  0
 29 57  1  0  0  0  0
 31  1  1  0  0  0  0
 33  6  1  0  0  0  0
 36 10  1  0  0  0  0
 37 11  1  0  0  0  0
 38 12  1  0  0  0  0
 41 14  1  0  0  0  0
 43 15  1  0  0  0  0
 44 17  1  0  0  0  0
 45 17  1  0  0  0  0
 48 19  1  0  0  0  0
 50 23  1  0  0  0  0
 51 25  1  0  0  0  0
 54 28  1  0  0  0  0
 56 29  1  0  0  0  0
M  END
$$$$
