rmsd12.gzmat
 OpenBabel08211713413D

 57 60  0  0  1  0  0  0  0  0999 V2000
    0.0000    0.0000    0.0000 C   0  0  0  0  0  0  0  0  0  0  0  0
    1.5385    0.0000    0.0000 C   0  0  1  0  0  0  0  0  0  0  0  0
    2.0601    0.0000    1.4575 C   0  0  0  0  0  0  0  0  0  0  0  0
    2.0391    0.8965    2.2627 O   0  0  0  0  0  0  0  0  0  0  0  0
    2.6093   -1.2437    1.7162 N   0  0  0  0  0  0  0  0  0  0  0  0
    2.4251   -2.1728    0.5878 C   0  0  0  0  0  0  0  0  0  0  0  0
    1.9617   -1.3351   -0.5527 N   0  0  0  0  0  0  0  0  0  0  0  0
    2.8649   -1.2707   -1.6661 C   0  0  0  0  0  0  0  0  0  0  0  0
    4.2562   -1.1844   -1.5395 C   0  0  0  0  0  0  0  0  0  0  0  0
    5.0465   -1.1447   -2.6850 C   0  0  0  0  0  0  0  0  0  0  0  0
    4.4583   -1.1837   -3.9480 C   0  0  0  0  0  0  0  0  0  0  0  0
    3.0716   -1.2667   -4.0705 C   0  0  0  0  0  0  0  0  0  0  0  0
    2.2695   -1.3111   -2.9352 C   0  0  0  0  0  0  0  0  0  0  0  0
    2.1244    1.1974   -0.7555 C   0  0  0  0  0  0  0  0  0  0  0  0
    1.4400    2.5119   -0.3284 C   0  0  0  0  0  0  0  0  0  0  0  0
   -0.0301    2.4858   -0.4497 N   0  0  0  0  0  0  0  0  0  0  0  0
   -0.5019    2.3693   -1.8501 C   0  0  0  0  0  0  0  0  0  0  0  0
   -0.2176    3.6752   -2.6244 C   0  0  0  0  0  0  0  0  0  0  0  0
   -0.5312    3.4612   -4.0667 C   0  0  0  0  0  0  0  0  0  0  0  0
    0.2670    2.8134   -4.9279 C   0  0  0  0  0  0  0  0  0  0  0  0
   -0.1512    2.6329   -6.3280 C   0  0  0  0  0  0  0  0  0  0  0  0
    0.5868    3.2193   -7.3608 C   0  0  0  0  0  0  0  0  0  0  0  0
    0.1920    3.0627   -8.6863 C   0  0  0  0  0  0  0  0  0  0  0  0
   -0.9510    2.3070   -8.9438 C   0  0  0  0  0  0  0  0  0  0  0  0
   -1.7078    1.7097   -7.9373 C   0  0  0  0  0  0  0  0  0  0  0  0
   -1.2944    1.8817   -6.6193 C   0  0  0  0  0  0  0  0  0  0  0  0
   -1.3353    2.1502  -10.2025 F   0  0  0  0  0  0  0  0  0  0  0  0
    1.5884    2.2173   -4.5794 C   0  0  0  0  0  0  0  0  0  0  0  0
   -0.5537    1.3845    0.3859 C   0  0  0  0  0  0  0  0  0  0  0  0
   -0.3846   -0.7735    0.6899 H   0  0  0  0  0  0  0  0  0  0  0  0
   -0.3630   -0.2976   -1.0033 H   0  0  0  0  0  0  0  0  0  0  0  0
    2.9906   -1.5325    2.5924 H   0  0  0  0  0  0  0  0  0  0  0  0
    3.3597   -2.7358    0.3720 H   0  0  0  0  0  0  0  0  0  0  0  0
    1.6036   -2.9028    0.8083 H   0  0  0  0  0  0  0  0  0  0  0  0
    4.7199   -1.1353   -0.5564 H   0  0  0  0  0  0  0  0  0  0  0  0
    6.1295   -1.0762   -2.5916 H   0  0  0  0  0  0  0  0  0  0  0  0
    5.0810   -1.1489   -4.8392 H   0  0  0  0  0  0  0  0  0  0  0  0
    2.6139   -1.3010   -5.0588 H   0  0  0  0  0  0  0  0  0  0  0  0
    1.1856   -1.3826   -3.0182 H   0  0  0  0  0  0  0  0  0  0  0  0
    3.2148    1.2721   -0.5854 H   0  0  0  0  0  0  0  0  0  0  0  0
    1.9969    1.0590   -1.8481 H   0  0  0  0  0  0  0  0  0  0  0  0
    1.6810    2.7359    0.7404 H   0  0  0  0  0  0  0  0  0  0  0  0
    1.8417    3.3592   -0.9220 H   0  0  0  0  0  0  0  0  0  0  0  0
   -1.5999    2.1933   -1.8315 H   0  0  0  0  0  0  0  0  0  0  0  0
   -0.0502    1.5089   -2.3893 H   0  0  0  0  0  0  0  0  0  0  0  0
    0.8363    3.9923   -2.4886 H   0  0  0  0  0  0  0  0  0  0  0  0
   -0.8172    4.5008   -2.1916 H   0  0  0  0  0  0  0  0  0  0  0  0
   -1.4873    3.8702   -4.3925 H   0  0  0  0  0  0  0  0  0  0  0  0
    1.4722    3.8095   -7.1241 H   0  0  0  0  0  0  0  0  0  0  0  0
    0.7595    3.5200   -9.4942 H   0  0  0  0  0  0  0  0  0  0  0  0
   -2.5963    1.1266   -8.1709 H   0  0  0  0  0  0  0  0  0  0  0  0
   -1.8639    1.4291   -5.8076 H   0  0  0  0  0  0  0  0  0  0  0  0
    2.0501    2.6972   -3.7052 H   0  0  0  0  0  0  0  0  0  0  0  0
    2.3095    2.2945   -5.4055 H   0  0  0  0  0  0  0  0  0  0  0  0
    1.4858    1.1455   -4.3468 H   0  0  0  0  0  0  0  0  0  0  0  0
   -1.6618    1.3854    0.3352 H   0  0  0  0  0  0  0  0  0  0  0  0
   -0.2884    1.6186    1.4458 H   0  0  0  0  0  0  0  0  0  0  0  0
  1 29  1  0  0  0  0
  1 30  1  0  0  0  0
  2  1  1  0  0  0  0
  2  3  1  1  0  0  0
  3  5  1  0  0  0  0
  3  4  2  0  0  0  0
  5 32  1  0  0  0  0
  6 34  1  0  0  0  0
  6  5  1  0  0  0  0
  7  2  1  0  0  0  0
  7  6  1  0  0  0  0
  8  9  1  0  0  0  0
  8  7  1  0  0  0  0
  9 35  1  0  0  0  0
 10 36  1  0  0  0  0
 10  9  2  0  0  0  0
 11 10  1  0  0  0  0
 12 11  2  0  0  0  0
 12 13  1  0  0  0  0
 13  8  2  0  0  0  0
 14 40  1  0  0  0  0
 14 15  1  0  0  0  0
 14  2  1  0  0  0  0
 15 42  1  0  0  0  0
 16 15  1  0  0  0  0
 16 29  1  0  0  0  0
 17 44  1  0  0  0  0
 17 16  1  0  0  0  0
 18 46  1  0  0  0  0
 18 47  1  0  0  0  0
 18 17  1  0  0  0  0
 19 18  1  0  0  0  0
 20 28  1  0  0  0  0
 20 19  2  0  0  0  0
 21 20  1  0  0  0  0
 22 49  1  0  0  0  0
 22 21  2  0  0  0  0
 23 22  1  0  0  0  0
 24 23  2  0  0  0  0
 24 25  1  0  0  0  0
 25 26  2  0  0  0  0
 26 21  1  0  0  0  0
 26 52  1  0  0  0  0
 27 24  1  0  0  0  0
 28 55  1  0  0  0  0
 28 53  1  0  0  0  0
 29 57  1  0  0  0  0
 31  1  1  0  0  0  0
 33  6  1  0  0  0  0
 37 11  1  0  0  0  0
 38 12  1  0  0  0  0
 39 13  1  0  0  0  0
 41 14  1  0  0  0  0
 43 15  1  0  0  0  0
 45 17  1  0  0  0  0
 48 19  1  0  0  0  0
 50 23  1  0  0  0  0
 51 25  1  0  0  0  0
 54 28  1  0  0  0  0
 56 29  1  0  0  0  0
M  END
$$$$
