rmsd109.gzmat
 OpenBabel08211713413D

 57 60  0  0  1  0  0  0  0  0999 V2000
    0.0000    0.0000    0.0000 C   0  0  0  0  0  0  0  0  0  0  0  0
    1.5353    0.0000    0.0000 C   0  0  1  0  0  0  0  0  0  0  0  0
    2.0318    0.0000    1.4712 C   0  0  0  0  0  0  0  0  0  0  0  0
    1.7342    0.7572    2.3594 O   0  0  0  0  0  0  0  0  0  0  0  0
    2.9331   -1.0378    1.6241 N   0  0  0  0  0  0  0  0  0  0  0  0
    3.0576   -1.8554    0.4102 C   0  0  0  0  0  0  0  0  0  0  0  0
    2.0239   -1.3101   -0.5155 N   0  0  0  0  0  0  0  0  0  0  0  0
    2.1412   -1.6076   -1.8796 C   0  0  0  0  0  0  0  0  0  0  0  0
    2.9930   -2.6495   -2.3024 C   0  0  0  0  0  0  0  0  0  0  0  0
    3.0282   -3.0228   -3.6413 C   0  0  0  0  0  0  0  0  0  0  0  0
    2.2342   -2.3761   -4.5849 C   0  0  0  0  0  0  0  0  0  0  0  0
    1.3831   -1.3532   -4.1720 C   0  0  0  0  0  0  0  0  0  0  0  0
    1.3302   -0.9694   -2.8379 C   0  0  0  0  0  0  0  0  0  0  0  0
    2.1637    1.2152   -0.7008 C   0  0  0  0  0  0  0  0  0  0  0  0
    1.4758    2.5187   -0.2458 C   0  0  0  0  0  0  0  0  0  0  0  0
    0.0100    2.5069   -0.3988 N   0  0  0  0  0  0  0  0  0  0  0  0
   -0.4097    2.5093   -1.8186 C   0  0  0  0  0  0  0  0  0  0  0  0
   -1.8207    3.1289   -1.9201 C   0  0  0  0  0  0  0  0  0  0  0  0
   -2.3019    3.0624   -3.3272 C   0  0  0  0  0  0  0  0  0  0  0  0
   -3.5709    2.8312   -3.6871 C   0  0  0  0  0  0  0  0  0  0  0  0
   -3.9418    2.7798   -5.1112 C   0  0  0  0  0  0  0  0  0  0  0  0
   -4.0578    1.5413   -5.7492 C   0  0  0  0  0  0  0  0  0  0  0  0
   -4.4180    1.4750   -7.0918 C   0  0  0  0  0  0  0  0  0  0  0  0
   -4.6534    2.6728   -7.7653 C   0  0  0  0  0  0  0  0  0  0  0  0
   -4.5427    3.9220   -7.1570 C   0  0  0  0  0  0  0  0  0  0  0  0
   -4.1800    3.9638   -5.8133 C   0  0  0  0  0  0  0  0  0  0  0  0
   -4.9961    2.6199   -9.0446 F   0  0  0  0  0  0  0  0  0  0  0  0
   -4.7021    2.6207   -2.7394 C   0  0  0  0  0  0  0  0  0  0  0  0
   -0.5602    1.3874    0.3727 C   0  0  0  0  0  0  0  0  0  0  0  0
   -0.3763   -0.7611    0.7120 H   0  0  0  0  0  0  0  0  0  0  0  0
   -0.3897   -0.3220   -0.9839 H   0  0  0  0  0  0  0  0  0  0  0  0
    3.3387   -1.3213    2.4927 H   0  0  0  0  0  0  0  0  0  0  0  0
    4.0926   -1.7619   -0.0047 H   0  0  0  0  0  0  0  0  0  0  0  0
    2.8208   -2.9285    0.6173 H   0  0  0  0  0  0  0  0  0  0  0  0
    3.6206   -3.1849   -1.5995 H   0  0  0  0  0  0  0  0  0  0  0  0
    3.6865   -3.8338   -3.9533 H   0  0  0  0  0  0  0  0  0  0  0  0
    2.2760   -2.6677   -5.6295 H   0  0  0  0  0  0  0  0  0  0  0  0
    0.7483   -0.8482   -4.9015 H   0  0  0  0  0  0  0  0  0  0  0  0
    0.6423   -0.1796   -2.5457 H   0  0  0  0  0  0  0  0  0  0  0  0
    3.2477    1.2668   -0.4866 H   0  0  0  0  0  0  0  0  0  0  0  0
    2.0932    1.1183   -1.7998 H   0  0  0  0  0  0  0  0  0  0  0  0
    1.6930    2.7047    0.8351 H   0  0  0  0  0  0  0  0  0  0  0  0
    1.8922    3.3862   -0.7999 H   0  0  0  0  0  0  0  0  0  0  0  0
   -0.4139    1.4970   -2.2747 H   0  0  0  0  0  0  0  0  0  0  0  0
    0.3025    3.1252   -2.4099 H   0  0  0  0  0  0  0  0  0  0  0  0
   -1.7917    4.1828   -1.5689 H   0  0  0  0  0  0  0  0  0  0  0  0
   -2.5109    2.6195   -1.2185 H   0  0  0  0  0  0  0  0  0  0  0  0
   -1.5329    3.2228   -4.0845 H   0  0  0  0  0  0  0  0  0  0  0  0
   -3.8622    0.6264   -5.1898 H   0  0  0  0  0  0  0  0  0  0  0  0
   -4.5122    0.5165   -7.5978 H   0  0  0  0  0  0  0  0  0  0  0  0
   -4.7320    4.8389   -7.7113 H   0  0  0  0  0  0  0  0  0  0  0  0
   -4.0796    4.9225   -5.3043 H   0  0  0  0  0  0  0  0  0  0  0  0
   -4.4074    2.0242   -1.8646 H   0  0  0  0  0  0  0  0  0  0  0  0
   -5.5488    2.1017   -3.2104 H   0  0  0  0  0  0  0  0  0  0  0  0
   -5.0813    3.5843   -2.3660 H   0  0  0  0  0  0  0  0  0  0  0  0
   -1.6642    1.3909    0.2553 H   0  0  0  0  0  0  0  0  0  0  0  0
   -0.3574    1.5970    1.4524 H   0  0  0  0  0  0  0  0  0  0  0  0
  1 29  1  0  0  0  0
  1 30  1  0  0  0  0
  2  1  1  0  0  0  0
  2  3  1  1  0  0  0
  3  5  1  0  0  0  0
  3  4  2  0  0  0  0
  5 32  1  0  0  0  0
  6 34  1  0  0  0  0
  6  5  1  0  0  0  0
  7  2  1  0  0  0  0
  7  6  1  0  0  0  0
  8  7  1  0  0  0  0
  9  8  1  0  0  0  0
  9 35  1  0  0  0  0
 10  9  2  0  0  0  0
 11 12  2  0  0  0  0
 11 10  1  0  0  0  0
 12 13  1  0  0  0  0
 13 39  1  0  0  0  0
 13  8  2  0  0  0  0
 14 40  1  0  0  0  0
 14 15  1  0  0  0  0
 14  2  1  0  0  0  0
 15 42  1  0  0  0  0
 16 15  1  0  0  0  0
 16 29  1  0  0  0  0
 17 16  1  0  0  0  0
 18 17  1  0  0  0  0
 18 46  1  0  0  0  0
 18 47  1  0  0  0  0
 19 18  1  0  0  0  0
 20 19  2  0  0  0  0
 20 28  1  0  0  0  0
 21 20  1  0  0  0  0
 22 49  1  0  0  0  0
 22 21  1  0  0  0  0
 23 22  2  0  0  0  0
 24 25  2  0  0  0  0
 24 23  1  0  0  0  0
 25 26  1  0  0  0  0
 26 52  1  0  0  0  0
 26 21  2  0  0  0  0
 27 24  1  0  0  0  0
 28 55  1  0  0  0  0
 28 53  1  0  0  0  0
 29 57  1  0  0  0  0
 31  1  1  0  0  0  0
 33  6  1  0  0  0  0
 36 10  1  0  0  0  0
 37 11  1  0  0  0  0
 38 12  1  0  0  0  0
 41 14  1  0  0  0  0
 43 15  1  0  0  0  0
 44 17  1  0  0  0  0
 45 17  1  0  0  0  0
 48 19  1  0  0  0  0
 50 23  1  0  0  0  0
 51 25  1  0  0  0  0
 54 28  1  0  0  0  0
 56 29  1  0  0  0  0
M  END
$$$$
