
     RDKit          3D

 57 60  0  0  0  0  0  0  0  0999 V2000
    0.0050    0.2262    0.0822 C   0  0  0  0  0  0  0  0  0  0  0  0
    1.5436    0.1002   -0.0216 C   0  0  0  0  0  0  0  0  0  0  0  0
    2.1349    0.0686    1.4102 C   0  0  0  0  0  0  0  0  0  0  0  0
    2.2676    1.0036    2.1756 O   0  0  0  0  0  0  0  0  0  0  0  0
    2.4432   -1.2363    1.6727 N   0  0  0  0  0  0  0  0  0  0  0  0
    2.0120   -2.1251    0.6039 C   0  0  0  0  0  0  0  0  0  0  0  0
    1.8943   -1.2534   -0.5533 N   0  0  0  0  0  0  0  0  0  0  0  0
    2.9337   -1.3496   -1.5262 C   0  0  0  0  0  0  0  0  0  0  0  0
    4.2823   -1.5368   -1.1788 C   0  0  0  0  0  0  0  0  0  0  0  0
    5.2621   -1.6283   -2.1696 C   0  0  0  0  0  0  0  0  0  0  0  0
    4.9148   -1.5165   -3.5190 C   0  0  0  0  0  0  0  0  0  0  0  0
    3.5760   -1.3235   -3.8716 C   0  0  0  0  0  0  0  0  0  0  0  0
    2.5926   -1.2528   -2.8831 C   0  0  0  0  0  0  0  0  0  0  0  0
    2.1076    1.2645   -0.8478 C   0  0  0  0  0  0  0  0  0  0  0  0
    1.5414    2.6244   -0.3924 C   0  0  0  0  0  0  0  0  0  0  0  0
    0.0836    2.6763   -0.3921 N   0  0  0  0  0  0  0  0  0  0  0  0
   -0.4928    2.7577   -1.7260 C   0  0  0  0  0  0  0  0  0  0  0  0
   -2.0007    3.0573   -1.7470 C   0  0  0  0  0  0  0  0  0  0  0  0
   -2.8695    1.8475   -1.5580 C   0  0  0  0  0  0  0  0  0  0  0  0
   -3.9759    1.7111   -0.7985 C   0  0  0  0  0  0  0  0  0  0  0  0
   -4.6613    0.3939   -0.7054 C   0  0  0  0  0  0  0  0  0  0  0  0
   -3.9398   -0.8140   -0.7864 C   0  0  0  0  0  0  0  0  0  0  0  0
   -4.5756   -2.0518   -0.7069 C   0  0  0  0  0  0  0  0  0  0  0  0
   -5.9568   -2.0919   -0.5309 C   0  0  0  0  0  0  0  0  0  0  0  0
   -6.7048   -0.9234   -0.4255 C   0  0  0  0  0  0  0  0  0  0  0  0
   -6.0523    0.3078   -0.5062 C   0  0  0  0  0  0  0  0  0  0  0  0
   -6.5749   -3.2801   -0.4479 F   0  0  0  0  0  0  0  0  0  0  0  0
   -4.5786    2.8462   -0.0079 C   0  0  0  0  0  0  0  0  0  0  0  0
   -0.4404    1.6380    0.4897 C   0  0  0  0  0  0  0  0  0  0  0  0
   -0.3924   -0.5166    0.7942 H   0  0  0  0  0  0  0  0  0  0  0  0
   -0.4017   -0.0398   -0.9065 H   0  0  0  0  0  0  0  0  0  0  0  0
    2.6406   -1.5359    2.6212 H   0  0  0  0  0  0  0  0  0  0  0  0
    2.7334   -2.9325    0.4165 H   0  0  0  0  0  0  0  0  0  0  0  0
    1.0361   -2.5906    0.8467 H   0  0  0  0  0  0  0  0  0  0  0  0
    4.5657   -1.5883   -0.1254 H   0  0  0  0  0  0  0  0  0  0  0  0
    6.3070   -1.7733   -1.8838 H   0  0  0  0  0  0  0  0  0  0  0  0
    5.6839   -1.5824   -4.2919 H   0  0  0  0  0  0  0  0  0  0  0  0
    3.2927   -1.2438   -4.9240 H   0  0  0  0  0  0  0  0  0  0  0  0
    1.5399   -1.1317   -3.1456 H   0  0  0  0  0  0  0  0  0  0  0  0
    3.2065    1.2735   -0.7904 H   0  0  0  0  0  0  0  0  0  0  0  0
    1.8538    1.0952   -1.9047 H   0  0  0  0  0  0  0  0  0  0  0  0
    1.8954    2.8342    0.6267 H   0  0  0  0  0  0  0  0  0  0  0  0
    1.9300    3.4163   -1.0524 H   0  0  0  0  0  0  0  0  0  0  0  0
   -0.3123    1.8520   -2.3508 H   0  0  0  0  0  0  0  0  0  0  0  0
    0.0298    3.5800   -2.2407 H   0  0  0  0  0  0  0  0  0  0  0  0
   -2.2275    3.4926   -2.7385 H   0  0  0  0  0  0  0  0  0  0  0  0
   -2.2118    3.8423   -1.0057 H   0  0  0  0  0  0  0  0  0  0  0  0
   -2.5471    0.9750   -2.1378 H   0  0  0  0  0  0  0  0  0  0  0  0
   -2.8539   -0.7840   -0.8886 H   0  0  0  0  0  0  0  0  0  0  0  0
   -4.0150   -2.9867   -0.7629 H   0  0  0  0  0  0  0  0  0  0  0  0
   -7.7848   -0.9892   -0.2822 H   0  0  0  0  0  0  0  0  0  0  0  0
   -6.6470    1.2191   -0.4282 H   0  0  0  0  0  0  0  0  0  0  0  0
   -3.9052    3.7103    0.0535 H   0  0  0  0  0  0  0  0  0  0  0  0
   -4.8271    2.5263    1.0168 H   0  0  0  0  0  0  0  0  0  0  0  0
   -5.5174    3.2000   -0.4680 H   0  0  0  0  0  0  0  0  0  0  0  0
   -1.5359    1.6866    0.5169 H   0  0  0  0  0  0  0  0  0  0  0  0
   -0.0783    1.8515    1.5072 H   0  0  0  0  0  0  0  0  0  0  0  0
  1  2  1  0
  1 29  1  0
  1 30  1  0
  1 31  1  0
  2  3  1  0
  2  7  1  0
  2 14  1  0
  3  4  2  0
  3  5  1  0
  5  6  1  0
  5 32  1  0
  6  7  1  0
  6 33  1  0
  6 34  1  0
  7  8  1  0
  8  9  2  0
  8 13  1  0
  9 10  1  0
  9 35  1  0
 10 11  2  0
 10 36  1  0
 11 12  1  0
 11 37  1  0
 12 13  2  0
 12 38  1  0
 13 39  1  0
 14 15  1  0
 14 40  1  0
 14 41  1  0
 15 16  1  0
 15 42  1  0
 15 43  1  0
 16 17  1  0
 16 29  1  0
 17 18  1  0
 17 44  1  0
 17 45  1  0
 18 19  1  0
 18 46  1  0
 18 47  1  0
 19 20  2  0
 19 48  1  0
 20 21  1  0
 20 28  1  0
 21 22  2  0
 21 26  1  0
 22 23  1  0
 22 49  1  0
 23 24  2  0
 23 50  1  0
 24 25  1  0
 24 27  1  0
 25 26  2  0
 25 51  1  0
 26 52  1  0
 28 53  1  0
 28 54  1  0
 28 55  1  0
 29 56  1  0
 29 57  1  0
M  END

