57
rmsd36.gzmat
C          0.00000        0.00000        0.00000
C          1.53610        0.00000        0.00000
C          2.02780        0.00000        1.47220
O          1.74910        0.77220        2.35350
N          2.89360       -1.06420        1.64080
C          3.02060       -1.88330        0.42890
N          2.02490       -1.31020       -0.52080
C          2.20220       -1.55960       -1.89010
C          3.15650       -2.49740       -2.33250
C          3.25040       -2.81480       -3.68350
C          2.40940       -2.21640       -4.61800
C          1.45540       -1.29710       -4.18560
C          1.34530       -0.97060       -2.84050
C          2.15660        1.21390       -0.70870
C          1.47440        2.51980       -0.25250
N          0.00750        2.50700       -0.39460
C         -0.41920        2.51140       -1.81220
C         -1.86610        3.04590       -1.89850
C         -2.33180        2.98520       -3.31320
C         -2.91200        1.91000       -3.86600
C         -3.35630        1.93780       -5.26790
C         -2.82650        1.03110       -6.19180
C         -3.25220        1.04730       -7.51670
C         -4.21520        1.98590       -7.88470
C         -4.75950        2.90490       -6.98960
C         -4.31610        2.87180       -5.67050
F         -4.63190        2.00470       -9.14250
C         -3.16800        0.63690       -3.13040
C         -0.55430        1.38710        0.38190
H         -0.37820       -0.76580        0.70570
H         -0.38820       -0.31200       -0.98730
H          3.28940       -1.35000        2.51320
H          4.06970       -1.82260        0.04430
H          2.74370       -2.94870        0.62610
H          3.82620       -2.99170       -1.63780
H          3.99490       -3.54080       -4.01120
H          2.49320       -2.46440       -5.67140
H          0.78710       -0.82860       -4.90870
H          0.57840       -0.26580       -2.52890
H          3.24280        1.26490       -0.50750
H          2.07130        1.11520       -1.80720
H          1.70040        2.70990        0.82580
H          1.88620        3.38450       -0.81410
H         -0.35450        1.51340       -2.29340
H          0.25000        3.18560       -2.39010
H         -1.89740        4.08310       -1.50650
H         -2.53250        2.46910       -1.22680
H         -2.16070        3.89150       -3.89280
H         -2.07430        0.31040       -5.87040
H         -2.84530        0.34620       -8.24240
H         -5.50850        3.62760       -7.30730
H         -4.72190        3.57600       -4.94370
H         -2.24850        0.23410       -2.68180
H         -3.58780       -0.14730       -3.77500
H         -3.88700        0.79340       -2.31140
H         -1.65980        1.39340        0.28110
H         -0.33560        1.59560        1.45930
