57
rmsd121.gzmat
C          0.00000        0.00000        0.00000
C          1.53530        0.00000        0.00000
C          2.03220        0.00000        1.47070
O          1.74090        0.76170        2.35690
N          2.92630       -1.04350        1.62600
C          3.04860       -1.86250        0.41300
N          2.02150       -1.31080       -0.51610
C          2.14390       -1.60390       -1.88070
C          3.00110       -2.63980       -2.30600
C          3.03910       -3.00800       -3.64630
C          2.24620       -2.35880       -4.58910
C          1.39260       -1.33860       -4.17440
C          1.33290       -0.96400       -2.83820
C          2.16740        1.21400       -0.70000
C          1.47210        2.51980       -0.26260
N          0.00610        2.50080       -0.42190
C         -0.40030        2.47500       -1.84560
C         -1.85050        2.98400       -1.96990
C         -2.31480        2.93330       -3.38380
C         -3.50950        3.38840       -3.78450
C         -3.91030        3.29070       -5.19720
C         -4.68880        2.21020       -5.62170
C         -5.07540        2.10380       -6.95460
C         -4.66370        3.10170       -7.83680
C         -3.88810        4.19090       -7.44300
C         -3.51200        4.27540       -6.10510
F         -5.02360        3.00910       -9.10910
C         -4.50970        4.01980       -2.87750
C         -0.55780        1.38950        0.36620
H         -0.37780       -0.75820        0.71400
H         -0.38980       -0.32600       -0.98280
H          3.32910       -1.32830        2.49540
H          4.08540       -1.77650        0.00090
H          2.80240       -2.93370        0.61950
H          3.63060       -3.17430       -1.60410
H          3.69900       -3.81730       -3.95940
H          2.28990       -2.64790       -5.63420
H          0.76210       -0.82880       -4.90400
H          0.63960       -0.18110       -2.54090
H          3.24870        1.26880       -0.47220
H          2.11220        1.11030       -1.79940
H          1.68390        2.71880        0.81680
H          1.88800        3.38210       -0.82470
H         -0.31180        1.46830       -2.30590
H          0.26970        3.15130       -2.42100
H         -1.91190        4.01680       -1.56450
H         -2.52600        2.38570       -1.32270
H         -1.62300        2.48870       -4.09890
H         -4.99020        1.44800       -4.90330
H         -5.67970        1.26500       -7.29360
H         -3.58320        4.95340       -8.15690
H         -2.90330        5.11140       -5.76130
H         -4.59340        3.48340       -1.92150
H         -5.51440        4.05370       -3.32070
H         -4.22580        5.05720       -2.64300
H         -1.66300        1.39210        0.26170
H         -0.34400        1.61000        1.44180
