rmsd246.gzmat
 OpenBabel08211713413D

 57 60  0  0  1  0  0  0  0  0999 V2000
    0.0000    0.0000    0.0000 C   0  0  0  0  0  0  0  0  0  0  0  0
    1.5360    0.0000    0.0000 C   0  0  1  0  0  0  0  0  0  0  0  0
    2.0338    0.0000    1.4699 C   0  0  0  0  0  0  0  0  0  0  0  0
    1.7451    0.7623    2.3567 O   0  0  0  0  0  0  0  0  0  0  0  0
    2.9251   -1.0455    1.6249 N   0  0  0  0  0  0  0  0  0  0  0  0
    3.0535   -1.8586    0.4086 C   0  0  0  0  0  0  0  0  0  0  0  0
    2.0281   -1.3084   -0.5239 N   0  0  0  0  0  0  0  0  0  0  0  0
    2.1932   -1.5518   -1.8971 C   0  0  0  0  0  0  0  0  0  0  0  0
    1.3158   -0.9741   -2.8360 C   0  0  0  0  0  0  0  0  0  0  0  0
    1.4143   -1.2974   -4.1830 C   0  0  0  0  0  0  0  0  0  0  0  0
    2.3781   -2.2002   -4.6283 C   0  0  0  0  0  0  0  0  0  0  0  0
    3.2384   -2.7876   -3.7049 C   0  0  0  0  0  0  0  0  0  0  0  0
    3.1564   -2.4741   -2.3520 C   0  0  0  0  0  0  0  0  0  0  0  0
    2.1614    1.2129   -0.7059 C   0  0  0  0  0  0  0  0  0  0  0  0
    1.4663    2.5207   -0.2750 C   0  0  0  0  0  0  0  0  0  0  0  0
   -0.0009    2.4982   -0.4148 N   0  0  0  0  0  0  0  0  0  0  0  0
   -0.4496    2.4636   -1.8253 C   0  0  0  0  0  0  0  0  0  0  0  0
   -0.3383    3.8856   -2.4211 C   0  0  0  0  0  0  0  0  0  0  0  0
   -0.7555    3.8391   -3.8517 C   0  0  0  0  0  0  0  0  0  0  0  0
   -1.9842    4.1254   -4.2998 C   0  0  0  0  0  0  0  0  0  0  0  0
   -2.2939    4.0247   -5.7370 C   0  0  0  0  0  0  0  0  0  0  0  0
   -2.8111    2.8317   -6.2499 C   0  0  0  0  0  0  0  0  0  0  0  0
   -3.1126    2.7216   -7.6043 C   0  0  0  0  0  0  0  0  0  0  0  0
   -2.8831    3.8302   -8.4178 C   0  0  0  0  0  0  0  0  0  0  0  0
   -2.3665    5.0316   -7.9358 C   0  0  0  0  0  0  0  0  0  0  0  0
   -2.0724    5.1186   -6.5776 C   0  0  0  0  0  0  0  0  0  0  0  0
   -3.1683    3.7363   -9.7088 F   0  0  0  0  0  0  0  0  0  0  0  0
   -3.1263    4.5650   -3.4488 C   0  0  0  0  0  0  0  0  0  0  0  0
   -0.5532    1.3867    0.3820 C   0  0  0  0  0  0  0  0  0  0  0  0
   -0.3789   -0.7677    0.7030 H   0  0  0  0  0  0  0  0  0  0  0  0
   -0.3892   -0.3085   -0.9886 H   0  0  0  0  0  0  0  0  0  0  0  0
    3.3302   -1.3304    2.4931 H   0  0  0  0  0  0  0  0  0  0  0  0
    4.0945   -1.7699    0.0079 H   0  0  0  0  0  0  0  0  0  0  0  0
    2.8082   -2.9315    0.6073 H   0  0  0  0  0  0  0  0  0  0  0  0
    0.5398   -0.2832   -2.5148 H   0  0  0  0  0  0  0  0  0  0  0  0
    0.7274   -0.8408   -4.8967 H   0  0  0  0  0  0  0  0  0  0  0  0
    2.4537   -2.4450   -5.6834 H   0  0  0  0  0  0  0  0  0  0  0  0
    3.9886   -3.5025   -4.0434 H   0  0  0  0  0  0  0  0  0  0  0  0
    3.8410   -2.9602   -1.6661 H   0  0  0  0  0  0  0  0  0  0  0  0
    3.2433    1.2721   -0.4843 H   0  0  0  0  0  0  0  0  0  0  0  0
    2.1006    1.1028   -1.8054 H   0  0  0  0  0  0  0  0  0  0  0  0
    1.6914    2.7328    0.7988 H   0  0  0  0  0  0  0  0  0  0  0  0
    1.8746    3.3745   -0.8552 H   0  0  0  0  0  0  0  0  0  0  0  0
   -1.5119    2.1388   -1.8609 H   0  0  0  0  0  0  0  0  0  0  0  0
    0.1242    1.7500   -2.4526 H   0  0  0  0  0  0  0  0  0  0  0  0
    0.6995    4.2632   -2.3290 H   0  0  0  0  0  0  0  0  0  0  0  0
   -0.9487    4.5879   -1.8192 H   0  0  0  0  0  0  0  0  0  0  0  0
    0.0310    3.5293   -4.5416 H   0  0  0  0  0  0  0  0  0  0  0  0
   -2.9777    1.9849   -5.5843 H   0  0  0  0  0  0  0  0  0  0  0  0
   -3.5149    1.7969   -8.0124 H   0  0  0  0  0  0  0  0  0  0  0  0
   -2.1956    5.8784   -8.5976 H   0  0  0  0  0  0  0  0  0  0  0  0
   -1.6665    6.0430   -6.1673 H   0  0  0  0  0  0  0  0  0  0  0  0
   -3.0354    4.2175   -2.4098 H   0  0  0  0  0  0  0  0  0  0  0  0
   -4.0892    4.1959   -3.8295 H   0  0  0  0  0  0  0  0  0  0  0  0
   -3.1902    5.6636   -3.4211 H   0  0  0  0  0  0  0  0  0  0  0  0
   -1.6597    1.3943    0.2978 H   0  0  0  0  0  0  0  0  0  0  0  0
   -0.3206    1.6038    1.4547 H   0  0  0  0  0  0  0  0  0  0  0  0
  1 29  1  0  0  0  0
  1 30  1  0  0  0  0
  2  1  1  0  0  0  0
  2  3  1  1  0  0  0
  3  5  1  0  0  0  0
  3  4  2  0  0  0  0
  5 32  1  0  0  0  0
  6 34  1  0  0  0  0
  6  5  1  0  0  0  0
  7  2  1  0  0  0  0
  7  6  1  0  0  0  0
  8  7  1  0  0  0  0
  9 35  1  0  0  0  0
  9  8  2  0  0  0  0
 10  9  1  0  0  0  0
 11 10  2  0  0  0  0
 11 12  1  0  0  0  0
 12 13  2  0  0  0  0
 13  8  1  0  0  0  0
 13 39  1  0  0  0  0
 14 40  1  0  0  0  0
 14 15  1  0  0  0  0
 14  2  1  0  0  0  0
 15 42  1  0  0  0  0
 16 15  1  0  0  0  0
 16 29  1  0  0  0  0
 17 16  1  0  0  0  0
 18 46  1  0  0  0  0
 18 17  1  0  0  0  0
 18 47  1  0  0  0  0
 19 18  1  0  0  0  0
 20 19  2  0  0  0  0
 20 28  1  0  0  0  0
 21 20  1  0  0  0  0
 22 21  1  0  0  0  0
 22 49  1  0  0  0  0
 23 22  2  0  0  0  0
 24 25  2  0  0  0  0
 24 23  1  0  0  0  0
 25 26  1  0  0  0  0
 26 52  1  0  0  0  0
 26 21  2  0  0  0  0
 27 24  1  0  0  0  0
 28 55  1  0  0  0  0
 28 53  1  0  0  0  0
 29 57  1  0  0  0  0
 31  1  1  0  0  0  0
 33  6  1  0  0  0  0
 36 10  1  0  0  0  0
 37 11  1  0  0  0  0
 38 12  1  0  0  0  0
 41 14  1  0  0  0  0
 43 15  1  0  0  0  0
 44 17  1  0  0  0  0
 45 17  1  0  0  0  0
 48 19  1  0  0  0  0
 50 23  1  0  0  0  0
 51 25  1  0  0  0  0
 54 28  1  0  0  0  0
 56 29  1  0  0  0  0
M  END
$$$$
