rmsd84.gzmat
 OpenBabel08211713383D

 35 36  0  0  1  0  0  0  0  0999 V2000
    0.0000    0.0000    0.0000 N   0  0  0  0  0  0  0  0  0  0  0  0
    1.3989    0.0000    0.0000 C   0  0  0  0  0  0  0  0  0  0  0  0
    2.0752    0.0000    0.9985 O   0  0  0  0  0  0  0  0  0  0  0  0
    1.9663   -0.0374   -1.7143 S   0  0  0  0  0  0  0  0  0  0  0  0
    0.3087    0.0385   -2.3034 C   0  0  0  0  0  0  0  0  0  0  0  0
   -0.5902    0.0645   -1.2798 C   0  0  0  0  0  0  0  0  0  0  0  0
   -2.0623    0.1312   -1.4269 C   0  0  0  0  0  0  0  0  0  0  0  0
    0.0113    0.0486   -3.7478 C   0  0  0  0  0  0  0  0  0  0  0  0
   -0.1594   -1.3858   -4.2826 C   0  0  0  0  0  0  0  0  0  0  0  0
   -1.1651   -2.0767   -3.5741 O   0  0  0  0  0  0  0  0  0  0  0  0
   -0.7558    0.1325    1.2584 C   0  0  0  0  0  0  0  0  0  0  0  0
   -1.1591    1.5418    1.5268 C   0  0  2  0  0  0  0  0  0  0  0  0
   -0.2732    2.5066    2.0860 C   0  0  0  0  0  0  0  0  0  0  0  0
   -0.6691    3.8095    2.2643 N   0  0  0  0  0  0  0  0  0  0  0  0
   -1.9281    4.1436    1.9253 C   0  0  0  0  0  0  0  0  0  0  0  0
   -2.8424    3.2639    1.4219 N   0  0  0  0  0  0  0  0  0  0  0  0
   -2.4515    1.9922    1.2384 C   0  0  0  0  0  0  0  0  0  0  0  0
   -2.3569    5.5590    2.1161 C   0  0  0  0  0  0  0  0  0  0  0  0
    0.9824    2.2136    2.5309 N   0  0  0  0  0  0  0  0  0  0  0  0
   -2.4194    1.1750   -1.3719 H   0  0  0  0  0  0  0  0  0  0  0  0
   -2.6044   -0.4508   -0.6676 H   0  0  0  0  0  0  0  0  0  0  0  0
   -2.3932   -0.2627   -2.4075 H   0  0  0  0  0  0  0  0  0  0  0  0
    0.7946    0.5729   -4.3368 H   0  0  0  0  0  0  0  0  0  0  0  0
   -0.9169    0.6305   -3.9492 H   0  0  0  0  0  0  0  0  0  0  0  0
    0.7799   -1.9631   -4.2261 H   0  0  0  0  0  0  0  0  0  0  0  0
   -0.5394   -1.3926   -5.3209 H   0  0  0  0  0  0  0  0  0  0  0  0
   -0.9403   -2.1180   -2.6206 H   0  0  0  0  0  0  0  0  0  0  0  0
   -0.1178   -0.2700    2.0901 H   0  0  0  0  0  0  0  0  0  0  0  0
   -1.6445   -0.5441    1.2182 H   0  0  0  0  0  0  0  0  0  0  0  0
   -3.2245    1.3162    0.8473 H   0  0  0  0  0  0  0  0  0  0  0  0
   -3.3382    5.7514    1.6521 H   0  0  0  0  0  0  0  0  0  0  0  0
   -1.6257    6.2613    1.6848 H   0  0  0  0  0  0  0  0  0  0  0  0
   -2.4390    5.8003    3.1888 H   0  0  0  0  0  0  0  0  0  0  0  0
    1.4314    1.3569    2.2457 H   0  0  0  0  0  0  0  0  0  0  0  0
    1.5718    2.9553    2.8675 H   0  0  0  0  0  0  0  0  0  0  0  0
  1  2  1  0  0  0  0
  1 11  1  0  0  0  0
  2  3  2  0  0  0  0
  4  2  1  0  0  0  0
  5  4  1  0  0  0  0
  5  6  2  0  0  0  0
  6  1  1  0  0  0  0
  7 20  1  0  0  0  0
  7  6  1  0  0  0  0
  7 21  1  0  0  0  0
  8  5  1  0  0  0  0
  9 25  1  0  0  0  0
  9  8  1  0  0  0  0
  9 10  1  0  0  0  0
 10 27  1  0  0  0  0
 11 28  1  0  0  0  0
 12 11  1  1  0  0  0
 12 13  1  0  0  0  0
 13 14  2  0  0  0  0
 13 19  1  0  0  0  0
 15 18  1  0  0  0  0
 15 14  2  0  0  0  0
 16 15  2  0  0  0  0
 17 16  2  0  0  0  0
 17 12  1  0  0  0  0
 18 33  1  0  0  0  0
 19 35  1  0  0  0  0
 22  7  1  0  0  0  0
 23  8  1  0  0  0  0
 24  8  1  0  0  0  0
 26  9  1  0  0  0  0
 29 11  1  0  0  0  0
 30 17  1  0  0  0  0
 31 18  1  0  0  0  0
 32 18  1  0  0  0  0
 34 19  1  0  0  0  0
M  RAD  1  12   2
M  END
$$$$
