rmsd11.gzmat
 OpenBabel08211713383D

 35 36  0  0  1  0  0  0  0  0999 V2000
    0.0000    0.0000    0.0000 N   0  0  0  0  0  0  0  0  0  0  0  0
    1.3981    0.0000    0.0000 C   0  0  0  0  0  0  0  0  0  0  0  0
    2.0729    0.0000    0.9997 O   0  0  0  0  0  0  0  0  0  0  0  0
    1.9614    0.0321   -1.7159 S   0  0  0  0  0  0  0  0  0  0  0  0
    0.3027   -0.0519   -2.3031 C   0  0  0  0  0  0  0  0  0  0  0  0
   -0.5933   -0.0750   -1.2775 C   0  0  0  0  0  0  0  0  0  0  0  0
   -2.0657   -0.1551   -1.4118 C   0  0  0  0  0  0  0  0  0  0  0  0
    0.0057   -0.0736   -3.7472 C   0  0  0  0  0  0  0  0  0  0  0  0
   -0.2036    1.3537   -4.2856 C   0  0  0  0  0  0  0  0  0  0  0  0
   -1.3193    1.9606   -3.6698 O   0  0  0  0  0  0  0  0  0  0  0  0
   -0.7594   -0.0625    1.2608 C   0  0  0  0  0  0  0  0  0  0  0  0
   -1.2242   -1.4423    1.5765 C   0  0  1  0  0  0  0  0  0  0  0  0
   -0.3722   -2.4458    2.1198 C   0  0  0  0  0  0  0  0  0  0  0  0
   -0.8315   -3.7238    2.3266 N   0  0  0  0  0  0  0  0  0  0  0  0
   -2.1189   -3.9915    2.0398 C   0  0  0  0  0  0  0  0  0  0  0  0
   -3.0062   -3.0654    1.5719 N   0  0  0  0  0  0  0  0  0  0  0  0
   -2.5530   -1.8201    1.3561 C   0  0  0  0  0  0  0  0  0  0  0  0
   -2.6113   -5.3824    2.2558 C   0  0  0  0  0  0  0  0  0  0  0  0
    0.9104   -2.2161    2.5208 N   0  0  0  0  0  0  0  0  0  0  0  0
   -2.5965    0.5497   -0.7549 H   0  0  0  0  0  0  0  0  0  0  0  0
   -2.4325   -1.1721   -1.1834 H   0  0  0  0  0  0  0  0  0  0  0  0
   -2.3985    0.0706   -2.4430 H   0  0  0  0  0  0  0  0  0  0  0  0
   -0.9103   -0.6761   -3.9481 H   0  0  0  0  0  0  0  0  0  0  0  0
    0.8011   -0.5808   -4.3338 H   0  0  0  0  0  0  0  0  0  0  0  0
   -0.4803    1.3521   -5.3561 H   0  0  0  0  0  0  0  0  0  0  0  0
    0.6847    1.9919   -4.1341 H   0  0  0  0  0  0  0  0  0  0  0  0
   -1.1795    2.0188   -2.7012 H   0  0  0  0  0  0  0  0  0  0  0  0
   -1.6203    0.6474    1.1945 H   0  0  0  0  0  0  0  0  0  0  0  0
   -0.1053    0.3402    2.0796 H   0  0  0  0  0  0  0  0  0  0  0  0
   -3.3033   -1.1020    0.9968 H   0  0  0  0  0  0  0  0  0  0  0  0
   -3.5477   -5.5731    1.7062 H   0  0  0  0  0  0  0  0  0  0  0  0
   -2.8116   -5.5574    3.3261 H   0  0  0  0  0  0  0  0  0  0  0  0
   -1.8644   -6.1288    1.9405 H   0  0  0  0  0  0  0  0  0  0  0  0
    1.3914   -1.3818    2.2239 H   0  0  0  0  0  0  0  0  0  0  0  0
    1.4695   -2.9828    2.8527 H   0  0  0  0  0  0  0  0  0  0  0  0
  1  2  1  0  0  0  0
  1 11  1  0  0  0  0
  2  3  2  0  0  0  0
  4  2  1  0  0  0  0
  5  4  1  0  0  0  0
  5  6  2  0  0  0  0
  6  1  1  0  0  0  0
  7  6  1  0  0  0  0
  7 21  1  0  0  0  0
  7 20  1  0  0  0  0
  8  5  1  0  0  0  0
  9 26  1  0  0  0  0
  9  8  1  0  0  0  0
  9 10  1  0  0  0  0
 10 27  1  0  0  0  0
 11 29  1  0  0  0  0
 12 11  1  1  0  0  0
 12 13  1  0  0  0  0
 13 14  2  0  0  0  0
 13 19  1  0  0  0  0
 15 18  1  0  0  0  0
 15 14  2  0  0  0  0
 16 15  2  0  0  0  0
 17 16  2  0  0  0  0
 17 12  1  0  0  0  0
 18 32  1  0  0  0  0
 19 35  1  0  0  0  0
 22  7  1  0  0  0  0
 23  8  1  0  0  0  0
 24  8  1  0  0  0  0
 25  9  1  0  0  0  0
 28 11  1  0  0  0  0
 30 17  1  0  0  0  0
 31 18  1  0  0  0  0
 33 18  1  0  0  0  0
 34 19  1  0  0  0  0
M  RAD  1  12   2
M  END
$$$$
