35
rmsd29.gzmat
N          0.00000        0.00000        0.00000
C          1.39860        0.00000        0.00000
O          2.07590        0.00000        0.99810
S          1.96630        0.04100       -1.71420
C          0.30850       -0.01160       -2.30370
C         -0.59020       -0.04000       -1.27970
C         -2.06200       -0.08840       -1.43620
C          0.00900        0.00120       -3.74770
C         -0.05130        1.44390       -4.28250
O         -1.02950        2.19560       -3.59740
C         -0.75700       -0.09960        1.25990
C         -1.15300       -1.49970        1.58300
C         -0.27640       -2.42650        2.21630
N         -0.68130       -3.71120        2.48510
C         -1.93750       -4.06470        2.15710
N         -2.83730       -3.22460        1.56690
C         -2.43800       -1.97150        1.29550
C         -2.37770       -5.45610        2.46390
N          0.97740       -2.11100        2.65080
H         -2.60820        0.45480       -0.65220
H         -2.42440       -1.13170       -1.43750
H         -2.37920        0.35950       -2.39800
H         -0.96360       -0.50360       -3.94880
H          0.74670       -0.58590       -4.33600
H         -0.40170        1.47810       -5.33060
H          0.92130        1.96020       -4.20090
H         -0.83720        2.20550       -2.63640
H         -1.65180        0.56730        1.19640
H         -0.12350        0.33770        2.07790
H         -3.19930       -1.32800        0.83290
H         -3.23820       -5.75580        1.84390
H         -2.68650       -5.53830        3.51970
H         -1.56370       -6.18210        2.30630
H          1.43730       -1.28300        2.30450
H          1.55840       -2.83350        3.04070
