
     RDKit          3D

 35 36  0  0  0  0  0  0  0  0999 V2000
   -0.0345    0.0641   -0.0343 N   0  0  0  0  0  0  0  0  0  0  0  0
    1.3311   -0.1078    0.0431 C   0  0  0  0  0  0  0  0  0  0  0  0
    1.9916   -0.1304    1.0698 O   0  0  0  0  0  0  0  0  0  0  0  0
    1.9710   -0.2619   -1.6148 S   0  0  0  0  0  0  0  0  0  0  0  0
    0.3590   -0.0545   -2.3054 C   0  0  0  0  0  0  0  0  0  0  0  0
   -0.5775    0.0913   -1.3294 C   0  0  0  0  0  0  0  0  0  0  0  0
   -2.0480    0.2865   -1.5274 C   0  0  0  0  0  0  0  0  0  0  0  0
    0.1588   -0.1276   -3.7901 C   0  0  0  0  0  0  0  0  0  0  0  0
   -0.0915   -1.5624   -4.2826 C   0  0  0  0  0  0  0  0  0  0  0  0
   -1.2268   -2.1429   -3.6835 O   0  0  0  0  0  0  0  0  0  0  0  0
   -0.8102    0.2157    1.2066 C   0  0  0  0  0  0  0  0  0  0  0  0
   -1.2158    1.6294    1.5253 C   0  0  0  0  0  0  0  0  0  0  0  0
   -0.2871    2.6295    1.9454 C   0  0  0  0  0  0  0  0  0  0  0  0
   -0.7097    3.8775    2.2091 N   0  0  0  0  0  0  0  0  0  0  0  0
   -2.0084    4.1542    2.0829 C   0  0  0  0  0  0  0  0  0  0  0  0
   -2.9601    3.2829    1.7226 N   0  0  0  0  0  0  0  0  0  0  0  0
   -2.5394    2.0427    1.4561 C   0  0  0  0  0  0  0  0  0  0  0  0
   -2.4348    5.5631    2.3900 C   0  0  0  0  0  0  0  0  0  0  0  0
    1.0301    2.3838    2.1069 N   0  0  0  0  0  0  0  0  0  0  0  0
   -2.3583    1.3101   -1.2651 H   0  0  0  0  0  0  0  0  0  0  0  0
   -2.6338   -0.4031   -0.8997 H   0  0  0  0  0  0  0  0  0  0  0  0
   -2.3180    0.0795   -2.5687 H   0  0  0  0  0  0  0  0  0  0  0  0
    1.0398    0.2864   -4.3078 H   0  0  0  0  0  0  0  0  0  0  0  0
   -0.6991    0.5010   -4.0746 H   0  0  0  0  0  0  0  0  0  0  0  0
    0.8175   -2.1733   -4.1117 H   0  0  0  0  0  0  0  0  0  0  0  0
   -0.2777   -1.5486   -5.3680 H   0  0  0  0  0  0  0  0  0  0  0  0
   -1.0453   -2.2169   -2.7359 H   0  0  0  0  0  0  0  0  0  0  0  0
   -0.1735   -0.2018    1.9999 H   0  0  0  0  0  0  0  0  0  0  0  0
   -1.7056   -0.4172    1.1353 H   0  0  0  0  0  0  0  0  0  0  0  0
   -3.3120    1.3170    1.1685 H   0  0  0  0  0  0  0  0  0  0  0  0
   -3.4873    5.7096    2.1185 H   0  0  0  0  0  0  0  0  0  0  0  0
   -1.7977    6.2810    1.8519 H   0  0  0  0  0  0  0  0  0  0  0  0
   -2.3081    5.7664    3.4662 H   0  0  0  0  0  0  0  0  0  0  0  0
    1.4634    1.4796    1.9211 H   0  0  0  0  0  0  0  0  0  0  0  0
    1.6021    3.1613    2.4111 H   0  0  0  0  0  0  0  0  0  0  0  0
  1  2  1  0
  1  6  1  0
  1 11  1  0
  2  3  2  0
  2  4  1  0
  4  5  1  0
  5  6  2  0
  5  8  1  0
  6  7  1  0
  7 20  1  0
  7 21  1  0
  7 22  1  0
  8  9  1  0
  8 23  1  0
  8 24  1  0
  9 10  1  0
  9 25  1  0
  9 26  1  0
 10 27  1  0
 11 12  1  0
 11 28  1  0
 11 29  1  0
 12 13  2  0
 12 17  1  0
 13 14  1  0
 13 19  1  0
 14 15  2  0
 15 16  1  0
 15 18  1  0
 16 17  2  0
 17 30  1  0
 18 31  1  0
 18 32  1  0
 18 33  1  0
 19 34  1  0
 19 35  1  0
M  END

