rmsd46.gzmat
 OpenBabel08211713383D

 35 36  0  0  1  0  0  0  0  0999 V2000
    0.0000    0.0000    0.0000 N   0  0  0  0  0  0  0  0  0  0  0  0
    1.3986    0.0000    0.0000 C   0  0  0  0  0  0  0  0  0  0  0  0
    2.0738    0.0000    0.9995 O   0  0  0  0  0  0  0  0  0  0  0  0
    1.9669    0.0317   -1.7132 S   0  0  0  0  0  0  0  0  0  0  0  0
    0.3089   -0.0370   -2.3018 C   0  0  0  0  0  0  0  0  0  0  0  0
   -0.5907   -0.0598   -1.2785 C   0  0  0  0  0  0  0  0  0  0  0  0
   -2.0621   -0.1270   -1.4326 C   0  0  0  0  0  0  0  0  0  0  0  0
    0.0113   -0.0352   -3.7460 C   0  0  0  0  0  0  0  0  0  0  0  0
   -0.0328    1.4053   -4.2884 C   0  0  0  0  0  0  0  0  0  0  0  0
   -1.0111    2.1647   -3.6120 O   0  0  0  0  0  0  0  0  0  0  0  0
   -0.7552   -0.0618    1.2634 C   0  0  0  0  0  0  0  0  0  0  0  0
   -1.2208   -1.4392    1.5887 C   0  0  1  0  0  0  0  0  0  0  0  0
   -0.3712   -2.4362    2.1479 C   0  0  0  0  0  0  0  0  0  0  0  0
   -0.8422   -3.7013    2.4038 N   0  0  0  0  0  0  0  0  0  0  0  0
   -2.1353   -3.9646    2.1415 C   0  0  0  0  0  0  0  0  0  0  0  0
   -3.0138   -3.0502    1.6349 N   0  0  0  0  0  0  0  0  0  0  0  0
   -2.5503   -1.8177    1.3730 C   0  0  0  0  0  0  0  0  0  0  0  0
   -2.6458   -5.3351    2.4327 C   0  0  0  0  0  0  0  0  0  0  0  0
    0.9224   -2.2147    2.5151 N   0  0  0  0  0  0  0  0  0  0  0  0
   -2.6111    0.4532   -0.6778 H   0  0  0  0  0  0  0  0  0  0  0  0
   -2.4185   -1.1711   -1.3759 H   0  0  0  0  0  0  0  0  0  0  0  0
   -2.3833    0.2662   -2.4163 H   0  0  0  0  0  0  0  0  0  0  0  0
   -0.9678   -0.5290   -3.9444 H   0  0  0  0  0  0  0  0  0  0  0  0
    0.7436   -0.6346   -4.3277 H   0  0  0  0  0  0  0  0  0  0  0  0
   -0.3752    1.4380   -5.3391 H   0  0  0  0  0  0  0  0  0  0  0  0
    0.9430    1.9148   -4.2016 H   0  0  0  0  0  0  0  0  0  0  0  0
   -0.8265    2.1745   -2.6493 H   0  0  0  0  0  0  0  0  0  0  0  0
   -1.6146    0.6505    1.2026 H   0  0  0  0  0  0  0  0  0  0  0  0
   -0.0964    0.3410    2.0793 H   0  0  0  0  0  0  0  0  0  0  0  0
   -3.2940   -1.1108    0.9796 H   0  0  0  0  0  0  0  0  0  0  0  0
   -3.4938   -5.5980    1.7796 H   0  0  0  0  0  0  0  0  0  0  0  0
   -3.0031   -5.3986    3.4744 H   0  0  0  0  0  0  0  0  0  0  0  0
   -1.8589   -6.0968    2.3113 H   0  0  0  0  0  0  0  0  0  0  0  0
    1.4043   -1.3873    2.2016 H   0  0  0  0  0  0  0  0  0  0  0  0
    1.4806   -2.9813    2.8481 H   0  0  0  0  0  0  0  0  0  0  0  0
  1  2  1  0  0  0  0
  1 11  1  0  0  0  0
  2  3  2  0  0  0  0
  4  2  1  0  0  0  0
  5  4  1  0  0  0  0
  5  6  2  0  0  0  0
  6  1  1  0  0  0  0
  7 21  1  0  0  0  0
  7  6  1  0  0  0  0
  7 20  1  0  0  0  0
  8  5  1  0  0  0  0
  9 26  1  0  0  0  0
  9  8  1  0  0  0  0
  9 10  1  0  0  0  0
 10 27  1  0  0  0  0
 11 29  1  0  0  0  0
 12 11  1  1  0  0  0
 12 13  1  0  0  0  0
 13 14  2  0  0  0  0
 13 19  1  0  0  0  0
 15 14  2  0  0  0  0
 15 18  1  0  0  0  0
 16 15  2  0  0  0  0
 17 12  1  0  0  0  0
 17 16  2  0  0  0  0
 18 32  1  0  0  0  0
 19 35  1  0  0  0  0
 22  7  1  0  0  0  0
 23  8  1  0  0  0  0
 24  8  1  0  0  0  0
 25  9  1  0  0  0  0
 28 11  1  0  0  0  0
 30 17  1  0  0  0  0
 31 18  1  0  0  0  0
 33 18  1  0  0  0  0
 34 19  1  0  0  0  0
M  RAD  1  12   2
M  END
$$$$
