35
rmsd11.gzmat
N          0.00000        0.00000        0.00000
C          1.39810        0.00000        0.00000
O          2.07290        0.00000        0.99970
S          1.96140        0.03210       -1.71590
C          0.30270       -0.05190       -2.30310
C         -0.59330       -0.07500       -1.27750
C         -2.06570       -0.15510       -1.41180
C          0.00570       -0.07360       -3.74720
C         -0.20360        1.35370       -4.28560
O         -1.31930        1.96060       -3.66980
C         -0.75940       -0.06250        1.26080
C         -1.22420       -1.44230        1.57650
C         -0.37220       -2.44580        2.11980
N         -0.83150       -3.72380        2.32660
C         -2.11890       -3.99150        2.03980
N         -3.00620       -3.06540        1.57190
C         -2.55300       -1.82010        1.35610
C         -2.61130       -5.38240        2.25580
N          0.91040       -2.21610        2.52080
H         -2.59650        0.54970       -0.75490
H         -2.43250       -1.17210       -1.18340
H         -2.39850        0.07060       -2.44300
H         -0.91030       -0.67610       -3.94810
H          0.80110       -0.58080       -4.33380
H         -0.48030        1.35210       -5.35610
H          0.68470        1.99190       -4.13410
H         -1.17950        2.01880       -2.70120
H         -1.62030        0.64740        1.19450
H         -0.10530        0.34020        2.07960
H         -3.30330       -1.10200        0.99680
H         -3.54770       -5.57310        1.70620
H         -2.81160       -5.55740        3.32610
H         -1.86440       -6.12880        1.94050
H          1.39140       -1.38180        2.22390
H          1.46950       -2.98280        2.85270
