35
rmsd28.gzmat
N          0.00000        0.00000        0.00000
C          1.39810        0.00000        0.00000
O          2.07240        0.00000        1.00000
S          1.96240       -0.02600       -1.71510
C          0.30430        0.06300       -2.30310
C         -0.59180        0.08720       -1.27740
C         -2.06230        0.19460       -1.41040
C          0.01180        0.08970       -3.74810
C         -0.19280       -1.33510       -4.29530
O         -1.31940       -1.94420       -3.70270
C         -0.76070       -0.00510        1.26200
C         -1.29470        1.33960        1.61620
C         -0.47880        2.37940        2.14600
N         -0.99960        3.62600        2.39620
C         -2.30960        3.82580        2.16450
N         -3.16350        2.85890        1.71570
C         -2.65060        1.64550        1.45610
C         -2.86220        5.19030        2.40030
N          0.83000        2.21680        2.48810
H         -2.40970        1.21060       -1.14860
H         -2.60600       -0.51810       -0.77320
H         -2.39780        0.00680       -2.44760
H          0.80970        0.60010       -4.32920
H         -0.90370        0.69180       -3.95150
H          0.69080       -1.97630       -4.13080
H         -0.45250       -1.32800       -5.37020
H         -1.21190       -1.97950       -2.72940
H         -0.08480       -0.39230        2.07190
H         -1.58250       -0.75830        1.18040
H         -3.37450        0.89380        1.11080
H         -3.89570        5.14680        2.78050
H         -2.88620        5.76280        1.45790
H         -2.24810        5.76100        3.11570
H          1.33860        1.40420        2.17870
H          1.36000        3.00560        2.81390
