35
rmsd46.gzmat
N          0.00000        0.00000        0.00000
C          1.39860        0.00000        0.00000
O          2.07380        0.00000        0.99950
S          1.96690        0.03170       -1.71320
C          0.30890       -0.03700       -2.30180
C         -0.59070       -0.05980       -1.27850
C         -2.06210       -0.12700       -1.43260
C          0.01130       -0.03520       -3.74600
C         -0.03280        1.40530       -4.28840
O         -1.01110        2.16470       -3.61200
C         -0.75520       -0.06180        1.26340
C         -1.22080       -1.43920        1.58870
C         -0.37120       -2.43620        2.14790
N         -0.84220       -3.70130        2.40380
C         -2.13530       -3.96460        2.14150
N         -3.01380       -3.05020        1.63490
C         -2.55030       -1.81770        1.37300
C         -2.64580       -5.33510        2.43270
N          0.92240       -2.21470        2.51510
H         -2.61110        0.45320       -0.67780
H         -2.41850       -1.17110       -1.37590
H         -2.38330        0.26620       -2.41630
H         -0.96780       -0.52900       -3.94440
H          0.74360       -0.63460       -4.32770
H         -0.37520        1.43800       -5.33910
H          0.94300        1.91480       -4.20160
H         -0.82650        2.17450       -2.64930
H         -1.61460        0.65050        1.20260
H         -0.09640        0.34100        2.07930
H         -3.29400       -1.11080        0.97960
H         -3.49380       -5.59800        1.77960
H         -3.00310       -5.39860        3.47440
H         -1.85890       -6.09680        2.31130
H          1.40430       -1.38730        2.20160
H          1.48060       -2.98130        2.84810
