35
rmsd31.gzmat
N          0.00000        0.00000        0.00000
C          1.39840        0.00000        0.00000
O          2.07460        0.00000        0.99880
S          1.96400       -0.03890       -1.71480
C          0.30590        0.03500       -2.30320
C         -0.59140        0.06510       -1.27850
C         -2.06320        0.14390       -1.42100
C          0.00890        0.03780       -3.74760
C         -0.15470       -1.40010       -4.27570
O         -1.19530       -2.07060       -3.59880
C         -0.75980        0.06250        1.26100
C         -1.20100        1.44640        1.59330
C         -0.33850        2.41620        2.17960
N         -0.77600        3.69600        2.42030
C         -2.05020        4.00140        2.11420
N         -2.94550        3.11080        1.59480
C         -2.51430        1.86280        1.35010
C         -2.51180        5.40050        2.34450
N          0.93420        2.15150        2.59100
H         -2.42200        1.17830       -1.27320
H         -2.60350       -0.50360       -0.71530
H         -2.39280       -0.16260       -2.43250
H          0.79040        0.56330       -4.33760
H         -0.92360        0.61230       -3.95320
H          0.77610       -1.98650       -4.17950
H         -0.49490       -1.41440       -5.32780
H         -1.00410       -2.11270       -2.63850
H         -0.11380       -0.36100        2.07610
H         -1.63130       -0.63370        1.18770
H         -3.27190        1.17640        0.94640
H         -2.30960        6.02360        1.45710
H         -1.99020        5.86550        3.19650
H         -3.59700        5.44330        2.53320
H          1.40680        1.32080        2.27080
H          1.50340        2.90120        2.94500
