35
rmsd84.gzmat
N          0.00000        0.00000        0.00000
C          1.39890        0.00000        0.00000
O          2.07520        0.00000        0.99850
S          1.96630       -0.03740       -1.71430
C          0.30870        0.03850       -2.30340
C         -0.59020        0.06450       -1.27980
C         -2.06230        0.13120       -1.42690
C          0.01130        0.04860       -3.74780
C         -0.15940       -1.38580       -4.28260
O         -1.16510       -2.07670       -3.57410
C         -0.75580        0.13250        1.25840
C         -1.15910        1.54180        1.52680
C         -0.27320        2.50660        2.08600
N         -0.66910        3.80950        2.26430
C         -1.92810        4.14360        1.92530
N         -2.84240        3.26390        1.42190
C         -2.45150        1.99220        1.23840
C         -2.35690        5.55900        2.11610
N          0.98240        2.21360        2.53090
H         -2.41940        1.17500       -1.37190
H         -2.60440       -0.45080       -0.66760
H         -2.39320       -0.26270       -2.40750
H          0.79460        0.57290       -4.33680
H         -0.91690        0.63050       -3.94920
H          0.77990       -1.96310       -4.22610
H         -0.53940       -1.39260       -5.32090
H         -0.94030       -2.11800       -2.62060
H         -0.11780       -0.27000        2.09010
H         -1.64450       -0.54410        1.21820
H         -3.22450        1.31620        0.84730
H         -3.33820        5.75140        1.65210
H         -1.62570        6.26130        1.68480
H         -2.43900        5.80030        3.18880
H          1.43140        1.35690        2.24570
H          1.57180        2.95530        2.86750
