35
rmsd45.gzmat
N          0.00000        0.00000        0.00000
C          1.39790        0.00000        0.00000
O          2.07400        0.00000        0.99900
S          1.96430        0.02810       -1.71430
C          0.30600       -0.05010       -2.30330
C         -0.59180       -0.07070       -1.27880
C         -2.06420       -0.14560       -1.41800
C          0.01440       -0.06460       -3.74880
C         -0.13140        1.36890       -4.29170
O         -1.22480        2.02340       -3.68520
C         -0.75870       -0.04500        1.26250
C         -1.22750       -1.41820        1.60040
C         -0.37960       -2.41390        2.16300
N         -0.84850       -3.68210        2.40990
C         -2.13740       -3.94930        2.13370
N         -3.01830       -3.03180        1.63490
C         -2.55770       -1.79610        1.38630
C         -2.64460       -5.32690        2.39500
N          0.90900       -2.18680        2.54430
H         -2.59830        0.54250       -0.74660
H         -2.43180       -1.16740       -1.21360
H         -2.39260        0.10690       -2.44430
H         -0.92510       -0.62830       -3.95360
H          0.79070       -0.60740       -4.33010
H         -0.40040        1.37670       -5.36400
H          0.78140        1.97010       -4.13470
H         -1.10050        2.05890       -2.71400
H         -1.61730        0.66730        1.18910
H         -0.10240        0.36640        2.07580
H         -3.30360       -1.08480        1.00530
H         -3.25160       -5.69510        1.55180
H         -3.29470       -5.33680        3.28590
H         -1.82320       -6.04010        2.57150
H          1.39310       -1.36130        2.22790
H          1.46550       -2.95010        2.88810
