rmsd118.gzmat
 OpenBabel08211713403D

 44 45  0  0  1  0  0  0  0  0999 V2000
    0.0000    0.0000    0.0000 C   0  0  0  0  0  0  0  0  0  0  0  0
    1.4049    0.0000    0.0000 C   0  0  0  0  0  0  0  0  0  0  0  0
    2.1046    0.0000    1.2168 C   0  0  0  0  0  0  0  0  0  0  0  0
    1.4039    0.0120    2.4158 C   0  0  0  0  0  0  0  0  0  0  0  0
    0.0079    0.0396    2.4207 C   0  0  0  0  0  0  0  0  0  0  0  0
   -0.6878    0.0365    1.2180 C   0  0  0  0  0  0  0  0  0  0  0  0
    2.1157    0.0917   -1.2252 N   0  0  0  0  0  0  0  0  0  0  0  0
    3.1517   -0.7317   -1.5691 C   0  0  0  0  0  0  0  0  0  0  0  0
    3.5686   -1.6442   -0.6494 N   0  0  0  0  0  0  0  0  0  0  0  0
    4.6007   -2.4698   -0.9609 C   0  0  0  0  0  0  0  0  0  0  0  0
    5.2870   -2.4064   -2.2207 C   0  0  2  0  0  0  0  0  0  0  0  0
    4.8504   -1.4621   -3.1466 C   0  0  0  0  0  0  0  0  0  0  0  0
    3.7838   -0.6148   -2.8576 C   0  0  0  0  0  0  0  0  0  0  0  0
    3.3186    0.3564   -3.8350 C   0  0  0  0  0  0  0  0  0  0  0  0
    2.4145    1.1554   -3.6935 O   0  0  0  0  0  0  0  0  0  0  0  0
    4.0168    0.2704   -4.9930 O   0  0  0  0  0  0  0  0  0  0  0  0
    3.6824    1.2012   -6.0281 C   0  0  0  0  0  0  0  0  0  0  0  0
    4.2678    2.5647   -5.7063 C   0  0  0  0  0  0  0  0  0  0  0  0
    6.3539   -3.2749   -2.5118 C   0  0  0  0  0  0  0  0  0  0  0  0
    7.2305   -3.9968   -2.7448 N   0  0  0  0  0  0  0  0  0  0  0  0
    4.9385   -3.3634    0.0115 N   0  0  0  0  0  0  0  0  0  0  0  0
   -0.8320   -0.0686   -1.2159 C   0  0  0  0  0  0  0  0  0  0  0  0
   -1.9847    0.2712   -1.3114 O   0  0  0  0  0  0  0  0  0  0  0  0
   -0.1442   -0.6217   -2.2437 O   0  0  0  0  0  0  0  0  0  0  0  0
   -0.8156   -0.7473   -3.5016 C   0  0  0  0  0  0  0  0  0  0  0  0
   -0.8282    0.5945   -4.2095 C   0  0  0  0  0  0  0  0  0  0  0  0
    3.1958   -0.0172    1.2125 H   0  0  0  0  0  0  0  0  0  0  0  0
    1.9493    0.0050    3.3598 H   0  0  0  0  0  0  0  0  0  0  0  0
   -0.5333    0.0608    3.3639 H   0  0  0  0  0  0  0  0  0  0  0  0
   -1.7825    0.0603    1.2122 H   0  0  0  0  0  0  0  0  0  0  0  0
    1.6722    0.6310   -1.9939 H   0  0  0  0  0  0  0  0  0  0  0  0
    5.3557   -1.3885   -4.1208 H   0  0  0  0  0  0  0  0  0  0  0  0
    2.5861    1.2325   -6.1591 H   0  0  0  0  0  0  0  0  0  0  0  0
    4.1593    0.7214   -6.9040 H   0  0  0  0  0  0  0  0  0  0  0  0
    3.7501    3.0264   -4.8517 H   0  0  0  0  0  0  0  0  0  0  0  0
    4.1771    3.2520   -6.5545 H   0  0  0  0  0  0  0  0  0  0  0  0
    5.3306    2.4936   -5.4425 H   0  0  0  0  0  0  0  0  0  0  0  0
    5.6676   -4.0332   -0.1225 H   0  0  0  0  0  0  0  0  0  0  0  0
    4.4178   -3.3946    0.8694 H   0  0  0  0  0  0  0  0  0  0  0  0
   -1.8297   -1.1543   -3.3403 H   0  0  0  0  0  0  0  0  0  0  0  0
   -0.1785   -1.4973   -4.0087 H   0  0  0  0  0  0  0  0  0  0  0  0
   -1.4593    1.3197   -3.6766 H   0  0  0  0  0  0  0  0  0  0  0  0
   -1.2137    0.5065   -5.2304 H   0  0  0  0  0  0  0  0  0  0  0  0
    0.1817    1.0283   -4.2694 H   0  0  0  0  0  0  0  0  0  0  0  0
  1  6  1  0  0  0  0
  2  1  2  0  0  0  0
  2  3  1  0  0  0  0
  3  4  2  0  0  0  0
  4  5  1  0  0  0  0
  4 28  1  0  0  0  0
  5 29  1  0  0  0  0
  6  5  2  0  0  0  0
  7  2  1  0  0  0  0
  8  7  1  0  0  0  0
  8  9  2  0  0  0  0
 10  9  2  0  0  0  0
 10 21  1  0  0  0  0
 11 19  1  6  0  0  0
 11 10  1  0  0  0  0
 12 13  2  0  0  0  0
 12 11  1  0  0  0  0
 13  8  1  0  0  0  0
 14 15  2  0  0  0  0
 14 13  1  0  0  0  0
 16 14  1  0  0  0  0
 17 18  1  0  0  0  0
 17 16  1  0  0  0  0
 18 37  1  0  0  0  0
 18 35  1  0  0  0  0
 20 19  3  0  0  0  0
 21 39  1  0  0  0  0
 22  1  1  0  0  0  0
 23 22  2  0  0  0  0
 24 22  1  0  0  0  0
 25 40  1  0  0  0  0
 25 24  1  0  0  0  0
 26 42  1  0  0  0  0
 26 25  1  0  0  0  0
 27  3  1  0  0  0  0
 30  6  1  0  0  0  0
 31  7  1  0  0  0  0
 32 12  1  0  0  0  0
 33 17  1  0  0  0  0
 34 17  1  0  0  0  0
 36 18  1  0  0  0  0
 38 21  1  0  0  0  0
 41 25  1  0  0  0  0
 43 26  1  0  0  0  0
 44 26  1  0  0  0  0
M  RAD  1  11   2
M  END
$$$$
