rmsd63.gzmat
 OpenBabel08211713403D

 44 45  0  0  1  0  0  0  0  0999 V2000
    0.0000    0.0000    0.0000 C   0  0  0  0  0  0  0  0  0  0  0  0
    1.4047    0.0000    0.0000 C   0  0  0  0  0  0  0  0  0  0  0  0
    2.1067    0.0000    1.2153 C   0  0  0  0  0  0  0  0  0  0  0  0
    1.4072   -0.0050    2.4152 C   0  0  0  0  0  0  0  0  0  0  0  0
    0.0109   -0.0229    2.4213 C   0  0  0  0  0  0  0  0  0  0  0  0
   -0.6862   -0.0230    1.2194 C   0  0  0  0  0  0  0  0  0  0  0  0
    2.1172   -0.0825   -1.2254 N   0  0  0  0  0  0  0  0  0  0  0  0
    3.1217    0.7760   -1.5757 C   0  0  0  0  0  0  0  0  0  0  0  0
    3.5269    1.6872   -0.6495 N   0  0  0  0  0  0  0  0  0  0  0  0
    4.5209    2.5551   -0.9698 C   0  0  0  0  0  0  0  0  0  0  0  0
    5.1721    2.5440   -2.2493 C   0  0  1  0  0  0  0  0  0  0  0  0
    4.7521    1.5961   -3.1799 C   0  0  0  0  0  0  0  0  0  0  0  0
    3.7310    0.6991   -2.8781 C   0  0  0  0  0  0  0  0  0  0  0  0
    3.2773   -0.2764   -3.8564 C   0  0  0  0  0  0  0  0  0  0  0  0
    2.4150   -1.1178   -3.6991 O   0  0  0  0  0  0  0  0  0  0  0  0
    3.9436   -0.1558   -5.0302 O   0  0  0  0  0  0  0  0  0  0  0  0
    3.5312   -1.0143   -6.0996 C   0  0  0  0  0  0  0  0  0  0  0  0
    2.2551   -0.4757   -6.7236 C   0  0  0  0  0  0  0  0  0  0  0  0
    6.1901    3.4634   -2.5577 C   0  0  0  0  0  0  0  0  0  0  0  0
    7.0271    4.2260   -2.8067 N   0  0  0  0  0  0  0  0  0  0  0  0
    4.8559    3.4368    0.0145 N   0  0  0  0  0  0  0  0  0  0  0  0
   -0.8358    0.0496   -1.2142 C   0  0  0  0  0  0  0  0  0  0  0  0
   -1.9959   -0.2694   -1.2926 O   0  0  0  0  0  0  0  0  0  0  0  0
   -0.1442    0.5516   -2.2658 O   0  0  0  0  0  0  0  0  0  0  0  0
   -0.8261    0.6571   -3.5198 C   0  0  0  0  0  0  0  0  0  0  0  0
   -0.8863   -0.7035   -4.1891 C   0  0  0  0  0  0  0  0  0  0  0  0
    3.1981    0.0147    1.2082 H   0  0  0  0  0  0  0  0  0  0  0  0
    1.9532    0.0001    3.3586 H   0  0  0  0  0  0  0  0  0  0  0  0
   -0.5301   -0.0350    3.3649 H   0  0  0  0  0  0  0  0  0  0  0  0
   -1.7811   -0.0383    1.2154 H   0  0  0  0  0  0  0  0  0  0  0  0
    1.6892   -0.6404   -1.9896 H   0  0  0  0  0  0  0  0  0  0  0  0
    5.2340    1.5626   -4.1679 H   0  0  0  0  0  0  0  0  0  0  0  0
    3.4174   -2.0479   -5.7249 H   0  0  0  0  0  0  0  0  0  0  0  0
    4.4049   -0.9474   -6.7751 H   0  0  0  0  0  0  0  0  0  0  0  0
    1.4057   -0.5685   -6.0304 H   0  0  0  0  0  0  0  0  0  0  0  0
    1.9943   -1.0198   -7.6378 H   0  0  0  0  0  0  0  0  0  0  0  0
    2.3516    0.5867   -6.9803 H   0  0  0  0  0  0  0  0  0  0  0  0
    5.5536    4.1378   -0.1247 H   0  0  0  0  0  0  0  0  0  0  0  0
    4.3589    3.4299    0.8870 H   0  0  0  0  0  0  0  0  0  0  0  0
   -0.1743    1.3736   -4.0557 H   0  0  0  0  0  0  0  0  0  0  0  0
   -1.8263    1.0975   -3.3591 H   0  0  0  0  0  0  0  0  0  0  0  0
    0.1007   -1.1917   -4.1957 H   0  0  0  0  0  0  0  0  0  0  0  0
   -1.2305   -0.6268   -5.2257 H   0  0  0  0  0  0  0  0  0  0  0  0
   -1.5744   -1.3783   -3.6598 H   0  0  0  0  0  0  0  0  0  0  0  0
  1  6  1  0  0  0  0
  2  1  2  0  0  0  0
  2  3  1  0  0  0  0
  3  4  2  0  0  0  0
  4  5  1  0  0  0  0
  4 28  1  0  0  0  0
  5 29  1  0  0  0  0
  6  5  2  0  0  0  0
  7  2  1  0  0  0  0
  8  7  1  0  0  0  0
  8  9  2  0  0  0  0
 10  9  2  0  0  0  0
 10 21  1  0  0  0  0
 11 19  1  6  0  0  0
 11 10  1  0  0  0  0
 12 13  2  0  0  0  0
 12 11  1  0  0  0  0
 13  8  1  0  0  0  0
 14 15  2  0  0  0  0
 14 13  1  0  0  0  0
 16 14  1  0  0  0  0
 17 33  1  0  0  0  0
 17 16  1  0  0  0  0
 18 17  1  0  0  0  0
 18 35  1  0  0  0  0
 20 19  3  0  0  0  0
 21 39  1  0  0  0  0
 22  1  1  0  0  0  0
 23 22  2  0  0  0  0
 24 22  1  0  0  0  0
 25 41  1  0  0  0  0
 25 24  1  0  0  0  0
 26 44  1  0  0  0  0
 26 25  1  0  0  0  0
 27  3  1  0  0  0  0
 30  6  1  0  0  0  0
 31  7  1  0  0  0  0
 32 12  1  0  0  0  0
 34 17  1  0  0  0  0
 36 18  1  0  0  0  0
 37 18  1  0  0  0  0
 38 21  1  0  0  0  0
 40 25  1  0  0  0  0
 42 26  1  0  0  0  0
 43 26  1  0  0  0  0
M  RAD  1  11   2
M  END
$$$$
