
     RDKit          3D

 44 45  0  0  0  0  0  0  0  0999 V2000
   -0.0307   -0.0323   -0.0608 C   0  0  0  0  0  0  0  0  0  0  0  0
    1.3787   -0.2486   -0.0259 C   0  0  0  0  0  0  0  0  0  0  0  0
    1.9997   -0.3620    1.2353 C   0  0  0  0  0  0  0  0  0  0  0  0
    1.2646   -0.2822    2.4129 C   0  0  0  0  0  0  0  0  0  0  0  0
   -0.1185   -0.0812    2.3812 C   0  0  0  0  0  0  0  0  0  0  0  0
   -0.7441    0.0479    1.1487 C   0  0  0  0  0  0  0  0  0  0  0  0
    2.1280   -0.2852   -1.2100 N   0  0  0  0  0  0  0  0  0  0  0  0
    3.3309   -0.8703   -1.4628 C   0  0  0  0  0  0  0  0  0  0  0  0
    3.9071   -1.6127   -0.5121 N   0  0  0  0  0  0  0  0  0  0  0  0
    5.0712   -2.2210   -0.7211 C   0  0  0  0  0  0  0  0  0  0  0  0
    5.7752   -2.1058   -1.9654 C   0  0  0  0  0  0  0  0  0  0  0  0
    5.1825   -1.3300   -2.9585 C   0  0  0  0  0  0  0  0  0  0  0  0
    3.9557   -0.6948   -2.7534 C   0  0  0  0  0  0  0  0  0  0  0  0
    3.3607    0.1238   -3.8202 C   0  0  0  0  0  0  0  0  0  0  0  0
    2.2791    0.6876   -3.7507 O   0  0  0  0  0  0  0  0  0  0  0  0
    4.1360    0.1964   -4.9167 O   0  0  0  0  0  0  0  0  0  0  0  0
    3.6601    0.9905   -6.0170 C   0  0  0  0  0  0  0  0  0  0  0  0
    3.9777    2.4625   -5.8230 C   0  0  0  0  0  0  0  0  0  0  0  0
    7.0210   -2.7714   -2.1391 C   0  0  0  0  0  0  0  0  0  0  0  0
    8.0323   -3.3424   -2.2138 N   0  0  0  0  0  0  0  0  0  0  0  0
    5.5771   -2.9600    0.2902 N   0  0  0  0  0  0  0  0  0  0  0  0
   -0.8786    0.1322   -1.2824 C   0  0  0  0  0  0  0  0  0  0  0  0
   -2.0688    0.3509   -1.2525 O   0  0  0  0  0  0  0  0  0  0  0  0
   -0.1895    0.0139   -2.4315 O   0  0  0  0  0  0  0  0  0  0  0  0
   -0.8824    0.2344   -3.6731 C   0  0  0  0  0  0  0  0  0  0  0  0
   -0.9456    1.7126   -4.0084 C   0  0  0  0  0  0  0  0  0  0  0  0
    3.0727   -0.5161    1.2738 H   0  0  0  0  0  0  0  0  0  0  0  0
    1.7856   -0.3703    3.3697 H   0  0  0  0  0  0  0  0  0  0  0  0
   -0.6970   -0.0191    3.3049 H   0  0  0  0  0  0  0  0  0  0  0  0
   -1.8192    0.2155    1.0761 H   0  0  0  0  0  0  0  0  0  0  0  0
    1.6805    0.1223   -2.0363 H   0  0  0  0  0  0  0  0  0  0  0  0
    5.6805   -1.2107   -3.9197 H   0  0  0  0  0  0  0  0  0  0  0  0
    2.5779    0.8316   -6.1303 H   0  0  0  0  0  0  0  0  0  0  0  0
    4.1773    0.5807   -6.8959 H   0  0  0  0  0  0  0  0  0  0  0  0
    3.4386    2.8658   -4.9538 H   0  0  0  0  0  0  0  0  0  0  0  0
    3.6698    3.0325   -6.7139 H   0  0  0  0  0  0  0  0  0  0  0  0
    5.0578    2.6134   -5.6730 H   0  0  0  0  0  0  0  0  0  0  0  0
    6.4388   -3.4780    0.1800 H   0  0  0  0  0  0  0  0  0  0  0  0
    5.0295   -3.0619    1.1341 H   0  0  0  0  0  0  0  0  0  0  0  0
   -1.8865   -0.2064   -3.5966 H   0  0  0  0  0  0  0  0  0  0  0  0
   -0.2898   -0.3166   -4.4152 H   0  0  0  0  0  0  0  0  0  0  0  0
   -1.5350    2.2574   -3.2563 H   0  0  0  0  0  0  0  0  0  0  0  0
   -1.4284    1.8530   -4.9888 H   0  0  0  0  0  0  0  0  0  0  0  0
    0.0698    2.1320   -4.0533 H   0  0  0  0  0  0  0  0  0  0  0  0
  1  2  2  0
  1  6  1  0
  1 22  1  0
  2  3  1  0
  2  7  1  0
  3  4  2  0
  3 27  1  0
  4  5  1  0
  4 28  1  0
  5  6  2  0
  5 29  1  0
  6 30  1  0
  7  8  1  0
  7 31  1  0
  8  9  2  0
  8 13  1  0
  9 10  1  0
 10 11  2  0
 10 21  1  0
 11 12  1  0
 11 19  1  0
 12 13  2  0
 12 32  1  0
 13 14  1  0
 14 15  2  0
 14 16  1  0
 16 17  1  0
 17 18  1  0
 17 33  1  0
 17 34  1  0
 18 35  1  0
 18 36  1  0
 18 37  1  0
 19 20  3  0
 21 38  1  0
 21 39  1  0
 22 23  2  0
 22 24  1  0
 24 25  1  0
 25 26  1  0
 25 40  1  0
 25 41  1  0
 26 42  1  0
 26 43  1  0
 26 44  1  0
M  END

