44
rmsd96.gzmat
C          0.00000        0.00000        0.00000
C          1.40640        0.00000        0.00000
C          2.09720        0.00000        1.22150
C          1.39030        0.00730        2.41730
C         -0.00540        0.01810        2.41850
C         -0.69530        0.01750        1.21200
N          2.09800       -0.05940       -1.23610
C          3.24250        0.62450       -1.53400
N          3.76130        1.44830       -0.58320
C          4.89150        2.14950       -0.85890
C          5.57340        2.04970       -2.11800
C          5.03310        1.19690       -3.07730
C          3.87180        0.47220       -2.82120
C          3.32060       -0.42010       -3.82920
O          2.25720       -1.00470       -3.78210
O          4.16090       -0.55520       -4.88350
C          3.73550       -1.41030       -5.95000
C          2.73170       -0.68290       -6.82690
C          6.74480        2.78420       -2.37440
N          7.71080        3.39130       -2.57880
N          5.33580        2.94930        0.15120
C         -0.81930        0.01500       -1.22850
O         -1.80990        0.66960       -1.42540
O         -0.31480       -0.85400       -2.13780
C         -0.93300       -0.91950       -3.42630
C         -2.18300       -1.77740       -3.35000
H          3.18860       -0.00310        1.22990
H          1.93220        0.00220        3.36300
H         -0.54970        0.02810        3.36000
H         -1.78850        0.03760        1.20270
H          1.63120       -0.58040       -2.00830
H          5.53330        1.09980       -4.05210
H          3.33220       -2.35060       -5.53280
H          4.69730       -1.60250       -6.46250
H          1.79380       -0.49610       -6.28430
H          2.48630       -1.26590       -7.72130
H          3.11600        0.29060       -7.15620
H          6.14280        3.52840        0.04460
H          4.81790        3.01320        1.00920
H         -0.12270       -1.38390       -4.02560
H         -1.13940        0.10270       -3.78880
H         -1.96380       -2.76530       -2.92610
H         -2.62540       -1.92670       -4.34110
H         -2.94630       -1.30930       -2.71180
