rmsd18.gzmat
 OpenBabel08211713403D

 44 45  0  0  1  0  0  0  0  0999 V2000
    0.0000    0.0000    0.0000 C   0  0  0  0  0  0  0  0  0  0  0  0
    1.4059    0.0000    0.0000 C   0  0  0  0  0  0  0  0  0  0  0  0
    2.1012    0.0000    1.2210 C   0  0  0  0  0  0  0  0  0  0  0  0
    1.4025   -0.0245    2.4198 C   0  0  0  0  0  0  0  0  0  0  0  0
    0.0064   -0.0380    2.4250 C   0  0  0  0  0  0  0  0  0  0  0  0
   -0.6857   -0.0186    1.2216 C   0  0  0  0  0  0  0  0  0  0  0  0
    2.1218    0.0877   -1.2204 N   0  0  0  0  0  0  0  0  0  0  0  0
    3.2292   -0.6569   -1.5217 C   0  0  0  0  0  0  0  0  0  0  0  0
    3.6946   -1.5182   -0.5765 N   0  0  0  0  0  0  0  0  0  0  0  0
    4.7987   -2.2623   -0.8440 C   0  0  0  0  0  0  0  0  0  0  0  0
    5.5103   -2.1670   -2.0867 C   0  0  1  0  0  0  0  0  0  0  0  0
    5.0195   -1.2822   -3.0439 C   0  0  0  0  0  0  0  0  0  0  0  0
    3.8822   -0.5172   -2.7976 C   0  0  0  0  0  0  0  0  0  0  0  0
    3.3772    0.4043   -3.8031 C   0  0  0  0  0  0  0  0  0  0  0  0
    2.4287    1.1544   -3.6928 O   0  0  0  0  0  0  0  0  0  0  0  0
    4.0994    0.3351   -4.9482 O   0  0  0  0  0  0  0  0  0  0  0  0
    3.7415    1.2401   -5.9980 C   0  0  0  0  0  0  0  0  0  0  0  0
    4.2669    2.6287   -5.6800 C   0  0  0  0  0  0  0  0  0  0  0  0
    6.6617   -2.9358   -2.3319 C   0  0  0  0  0  0  0  0  0  0  0  0
    7.6127   -3.5690   -2.5279 N   0  0  0  0  0  0  0  0  0  0  0  0
    5.1830   -3.1034    0.1573 N   0  0  0  0  0  0  0  0  0  0  0  0
   -0.8534    0.0231   -1.2024 C   0  0  0  0  0  0  0  0  0  0  0  0
   -2.0275    0.2997   -1.2277 O   0  0  0  0  0  0  0  0  0  0  0  0
   -0.1709   -0.3373   -2.3156 O   0  0  0  0  0  0  0  0  0  0  0  0
   -0.8590   -0.2659   -3.5699 C   0  0  0  0  0  0  0  0  0  0  0  0
   -0.8460    1.1668   -4.0699 C   0  0  0  0  0  0  0  0  0  0  0  0
    3.1927    0.0124    1.2233 H   0  0  0  0  0  0  0  0  0  0  0  0
    1.9491   -0.0285    3.3630 H   0  0  0  0  0  0  0  0  0  0  0  0
   -0.5355   -0.0595    3.3676 H   0  0  0  0  0  0  0  0  0  0  0  0
   -1.7816   -0.0162    1.2175 H   0  0  0  0  0  0  0  0  0  0  0  0
    1.6579    0.5793   -2.0109 H   0  0  0  0  0  0  0  0  0  0  0  0
    5.5424   -1.1892   -4.0072 H   0  0  0  0  0  0  0  0  0  0  0  0
    2.6470    1.2233   -6.1451 H   0  0  0  0  0  0  0  0  0  0  0  0
    4.2509    0.7745   -6.8628 H   0  0  0  0  0  0  0  0  0  0  0  0
    3.7400    3.0634   -4.8173 H   0  0  0  0  0  0  0  0  0  0  0  0
    4.1330    3.3123   -6.5252 H   0  0  0  0  0  0  0  0  0  0  0  0
    5.3353    2.6063   -5.4306 H   0  0  0  0  0  0  0  0  0  0  0  0
    5.9710   -3.7093    0.0595 H   0  0  0  0  0  0  0  0  0  0  0  0
    4.6449   -3.1578    1.0035 H   0  0  0  0  0  0  0  0  0  0  0  0
   -1.8808   -0.6705   -3.4588 H   0  0  0  0  0  0  0  0  0  0  0  0
   -0.2432   -0.9447   -4.1902 H   0  0  0  0  0  0  0  0  0  0  0  0
   -1.4341    1.8245   -3.4152 H   0  0  0  0  0  0  0  0  0  0  0  0
   -1.2654    1.2437   -5.0785 H   0  0  0  0  0  0  0  0  0  0  0  0
    0.1782    1.5702   -4.1039 H   0  0  0  0  0  0  0  0  0  0  0  0
  1  6  1  0  0  0  0
  2  1  2  0  0  0  0
  2  3  1  0  0  0  0
  3 27  1  0  0  0  0
  3  4  2  0  0  0  0
  4  5  1  0  0  0  0
  4 28  1  0  0  0  0
  5 29  1  0  0  0  0
  6  5  2  0  0  0  0
  7  2  1  0  0  0  0
  8  7  1  0  0  0  0
  8  9  2  0  0  0  0
 10  9  2  0  0  0  0
 10 21  1  0  0  0  0
 11 19  1  1  0  0  0
 11 10  1  0  0  0  0
 12 13  2  0  0  0  0
 12 11  1  0  0  0  0
 13  8  1  0  0  0  0
 14 15  2  0  0  0  0
 14 13  1  0  0  0  0
 16 14  1  0  0  0  0
 17 18  1  0  0  0  0
 17 16  1  0  0  0  0
 18 37  1  0  0  0  0
 18 35  1  0  0  0  0
 20 19  3  0  0  0  0
 21 39  1  0  0  0  0
 22  1  1  0  0  0  0
 23 22  2  0  0  0  0
 24 22  1  0  0  0  0
 25 40  1  0  0  0  0
 25 24  1  0  0  0  0
 26 25  1  0  0  0  0
 26 42  1  0  0  0  0
 30  6  1  0  0  0  0
 31  7  1  0  0  0  0
 32 12  1  0  0  0  0
 33 17  1  0  0  0  0
 34 17  1  0  0  0  0
 36 18  1  0  0  0  0
 38 21  1  0  0  0  0
 41 25  1  0  0  0  0
 43 26  1  0  0  0  0
 44 26  1  0  0  0  0
M  RAD  1  11   2
M  END
$$$$
