44

C         -0.03070       -0.03230       -0.06080
C          1.37870       -0.24860       -0.02590
C          1.99970       -0.36200        1.23530
C          1.26460       -0.28220        2.41290
C         -0.11850       -0.08120        2.38120
C         -0.74410        0.04790        1.14870
N          2.12800       -0.28520       -1.21000
C          3.33090       -0.87030       -1.46280
N          3.90710       -1.61270       -0.51210
C          5.07120       -2.22100       -0.72110
C          5.77520       -2.10580       -1.96540
C          5.18250       -1.33000       -2.95850
C          3.95570       -0.69480       -2.75340
C          3.36070        0.12380       -3.82020
O          2.27910        0.68760       -3.75070
O          4.13600        0.19640       -4.91670
C          3.66010        0.99050       -6.01700
C          3.97770        2.46250       -5.82300
C          7.02100       -2.77140       -2.13910
N          8.03230       -3.34240       -2.21380
N          5.57710       -2.96000        0.29020
C         -0.87860        0.13220       -1.28240
O         -2.06880        0.35090       -1.25250
O         -0.18950        0.01390       -2.43150
C         -0.88240        0.23440       -3.67310
C         -0.94560        1.71260       -4.00840
H          3.07270       -0.51610        1.27380
H          1.78560       -0.37030        3.36970
H         -0.69700       -0.01910        3.30490
H         -1.81920        0.21550        1.07610
H          1.68050        0.12230       -2.03630
H          5.68050       -1.21070       -3.91970
H          2.57790        0.83160       -6.13030
H          4.17730        0.58070       -6.89590
H          3.43860        2.86580       -4.95380
H          3.66980        3.03250       -6.71390
H          5.05780        2.61340       -5.67300
H          6.43880       -3.47800        0.18000
H          5.02950       -3.06190        1.13410
H         -1.88650       -0.20640       -3.59660
H         -0.28980       -0.31660       -4.41520
H         -1.53500        2.25740       -3.25630
H         -1.42840        1.85300       -4.98880
H          0.06980        2.13200       -4.05330
