44

C          0.01240       -0.06170       -0.03290
C          1.42660        0.09350        0.01050
C          2.03710        0.26030        1.26910
C          1.28190        0.29640        2.43710
C         -0.11040        0.17580        2.39250
C         -0.72710       -0.00070        1.16030
N          2.18830        0.06020       -1.16930
C          3.34390        0.72160       -1.45290
N          3.85500        1.54960       -0.53630
C          4.97280        2.23120       -0.76800
C          5.69570        2.10790       -2.00110
C          5.16580        1.25050       -2.96190
C          3.98570        0.53890       -2.73360
C          3.44090       -0.34440       -3.77390
O          2.39800       -0.97370       -3.68150
O          4.21340       -0.39820       -4.87390
C          3.75000       -1.20460       -5.97060
C          2.75210       -0.45410       -6.83500
C          6.89210        2.85260       -2.19890
N          7.86030        3.49110       -2.29480
N          5.41300        3.05400        0.20880
C         -0.80390       -0.27170       -1.26640
O         -1.99100       -0.05250       -1.34180
O         -0.08320       -0.77920       -2.28290
C         -0.72270       -0.96550       -3.55790
C         -0.74920        0.33070       -4.34660
H          3.11630        0.36560        1.31630
H          1.79220        0.41750        3.39590
H         -0.70410        0.21260        3.30790
H         -1.81060       -0.09910        1.08060
H          1.78390       -0.45730       -1.95620
H          5.67410        1.12950       -3.91750
H          3.31060       -2.13020       -5.57170
H          4.66050       -1.45240       -6.53400
H          1.83450       -0.23220       -6.27130
H          2.47840       -1.06700       -7.70830
H          3.18210        0.49170       -7.19880
H          6.23580        3.62760        0.07940
H          4.85220        3.15270        1.04450
H         -1.73720       -1.35390       -3.38870
H         -0.10730       -1.72310       -4.05830
H         -1.37420        1.08320       -3.84380
H         -1.16630        0.15240       -5.35050
H          0.27100        0.72700       -4.45890
