rmsd224.gzmat
 OpenBabel08211713403D

 44 45  0  0  1  0  0  0  0  0999 V2000
    0.0000    0.0000    0.0000 C   0  0  0  0  0  0  0  0  0  0  0  0
    1.4047    0.0000    0.0000 C   0  0  0  0  0  0  0  0  0  0  0  0
    2.1067    0.0000    1.2153 C   0  0  0  0  0  0  0  0  0  0  0  0
    1.4087    0.0099    2.4156 C   0  0  0  0  0  0  0  0  0  0  0  0
    0.0125    0.0270    2.4221 C   0  0  0  0  0  0  0  0  0  0  0  0
   -0.6848    0.0226    1.2209 C   0  0  0  0  0  0  0  0  0  0  0  0
    2.1236    0.0837   -1.2220 N   0  0  0  0  0  0  0  0  0  0  0  0
    3.1158   -0.7878   -1.5751 C   0  0  0  0  0  0  0  0  0  0  0  0
    3.4951   -1.7200   -0.6584 N   0  0  0  0  0  0  0  0  0  0  0  0
    4.4822   -2.5954   -0.9795 C   0  0  0  0  0  0  0  0  0  0  0  0
    5.1559   -2.5682   -2.2473 C   0  0  2  0  0  0  0  0  0  0  0  0
    4.7573   -1.6041   -3.1704 C   0  0  0  0  0  0  0  0  0  0  0  0
    3.7412   -0.7011   -2.8693 C   0  0  0  0  0  0  0  0  0  0  0  0
    3.3140    0.2952   -3.8387 C   0  0  0  0  0  0  0  0  0  0  0  0
    2.4592    1.1442   -3.6822 O   0  0  0  0  0  0  0  0  0  0  0  0
    4.0006    0.1853   -5.0021 O   0  0  0  0  0  0  0  0  0  0  0  0
    3.6289    1.0723   -6.0621 C   0  0  0  0  0  0  0  0  0  0  0  0
    2.3389    0.5947   -6.7057 C   0  0  0  0  0  0  0  0  0  0  0  0
    6.1783   -3.4848   -2.5494 C   0  0  0  0  0  0  0  0  0  0  0  0
    7.0196   -4.2444   -2.7923 N   0  0  0  0  0  0  0  0  0  0  0  0
    4.7876   -3.5028   -0.0092 N   0  0  0  0  0  0  0  0  0  0  0  0
   -0.8391   -0.0428   -1.2120 C   0  0  0  0  0  0  0  0  0  0  0  0
   -2.0147    0.2189   -1.2711 O   0  0  0  0  0  0  0  0  0  0  0  0
   -0.1310   -0.4575   -2.2899 O   0  0  0  0  0  0  0  0  0  0  0  0
   -0.8012   -0.4885   -3.5543 C   0  0  0  0  0  0  0  0  0  0  0  0
   -0.8490    0.9138   -4.1326 C   0  0  0  0  0  0  0  0  0  0  0  0
    3.1979   -0.0181    1.2078 H   0  0  0  0  0  0  0  0  0  0  0  0
    1.9559    0.0089    3.3584 H   0  0  0  0  0  0  0  0  0  0  0  0
   -0.5274    0.0422    3.3662 H   0  0  0  0  0  0  0  0  0  0  0  0
   -1.7799    0.0354    1.2178 H   0  0  0  0  0  0  0  0  0  0  0  0
    1.7061    0.6543   -1.9832 H   0  0  0  0  0  0  0  0  0  0  0  0
    5.2536   -1.5602   -4.1509 H   0  0  0  0  0  0  0  0  0  0  0  0
    4.5048    0.9806   -6.7319 H   0  0  0  0  0  0  0  0  0  0  0  0
    3.5523    2.1035   -5.6730 H   0  0  0  0  0  0  0  0  0  0  0  0
    2.3925   -0.4691   -6.9689 H   0  0  0  0  0  0  0  0  0  0  0  0
    2.1151    1.1561   -7.6192 H   0  0  0  0  0  0  0  0  0  0  0  0
    1.4852    0.7213   -6.0232 H   0  0  0  0  0  0  0  0  0  0  0  0
    5.4791   -4.2096   -0.1510 H   0  0  0  0  0  0  0  0  0  0  0  0
    4.2789   -3.5047    0.8565 H   0  0  0  0  0  0  0  0  0  0  0  0
   -1.8039   -0.9361   -3.4337 H   0  0  0  0  0  0  0  0  0  0  0  0
   -0.1445   -1.1704   -4.1274 H   0  0  0  0  0  0  0  0  0  0  0  0
   -1.5381    1.5554   -3.5657 H   0  0  0  0  0  0  0  0  0  0  0  0
   -1.1821    0.9097   -5.1752 H   0  0  0  0  0  0  0  0  0  0  0  0
    0.1411    1.3948   -4.0992 H   0  0  0  0  0  0  0  0  0  0  0  0
  1  6  1  0  0  0  0
  2  1  2  0  0  0  0
  2  3  1  0  0  0  0
  3  4  2  0  0  0  0
  4  5  1  0  0  0  0
  4 28  1  0  0  0  0
  5 29  1  0  0  0  0
  6  5  2  0  0  0  0
  7  2  1  0  0  0  0
  8  7  1  0  0  0  0
  8  9  2  0  0  0  0
 10  9  2  0  0  0  0
 10 21  1  0  0  0  0
 11 19  1  6  0  0  0
 11 10  1  0  0  0  0
 12 13  2  0  0  0  0
 12 11  1  0  0  0  0
 13  8  1  0  0  0  0
 14 15  2  0  0  0  0
 14 13  1  0  0  0  0
 16 14  1  0  0  0  0
 17 34  1  0  0  0  0
 17 16  1  0  0  0  0
 18 17  1  0  0  0  0
 18 37  1  0  0  0  0
 20 19  3  0  0  0  0
 21 39  1  0  0  0  0
 22  1  1  0  0  0  0
 23 22  2  0  0  0  0
 24 22  1  0  0  0  0
 25 40  1  0  0  0  0
 25 24  1  0  0  0  0
 26 44  1  0  0  0  0
 26 42  1  0  0  0  0
 26 25  1  0  0  0  0
 27  3  1  0  0  0  0
 30  6  1  0  0  0  0
 31  7  1  0  0  0  0
 32 12  1  0  0  0  0
 33 17  1  0  0  0  0
 35 18  1  0  0  0  0
 36 18  1  0  0  0  0
 38 21  1  0  0  0  0
 41 25  1  0  0  0  0
 43 26  1  0  0  0  0
M  RAD  1  11   2
M  END
$$$$
