
     RDKit          3D

 44 45  0  0  0  0  0  0  0  0999 V2000
   -0.0460    0.0094    0.0554 C   0  0  0  0  0  0  0  0  0  0  0  0
    1.3684    0.0147    0.0319 C   0  0  0  0  0  0  0  0  0  0  0  0
    2.0630    0.1037    1.2509 C   0  0  0  0  0  0  0  0  0  0  0  0
    1.3849    0.2158    2.4621 C   0  0  0  0  0  0  0  0  0  0  0  0
   -0.0113    0.2751    2.4799 C   0  0  0  0  0  0  0  0  0  0  0  0
   -0.7100    0.1789    1.2784 C   0  0  0  0  0  0  0  0  0  0  0  0
    2.1503   -0.0406   -1.1333 N   0  0  0  0  0  0  0  0  0  0  0  0
    1.9038    0.5614   -2.3259 C   0  0  0  0  0  0  0  0  0  0  0  0
    0.7492    1.2054   -2.4691 N   0  0  0  0  0  0  0  0  0  0  0  0
    0.3948    1.7523   -3.6270 C   0  0  0  0  0  0  0  0  0  0  0  0
    1.2797    1.7381   -4.7590 C   0  0  0  0  0  0  0  0  0  0  0  0
    2.5153    1.1112   -4.5963 C   0  0  0  0  0  0  0  0  0  0  0  0
    2.8705    0.5018   -3.3892 C   0  0  0  0  0  0  0  0  0  0  0  0
    4.1725   -0.1514   -3.2075 C   0  0  0  0  0  0  0  0  0  0  0  0
    4.5514   -0.6697   -2.1645 O   0  0  0  0  0  0  0  0  0  0  0  0
    4.9324   -0.1289   -4.3140 O   0  0  0  0  0  0  0  0  0  0  0  0
    6.2436   -0.7166   -4.2335 C   0  0  0  0  0  0  0  0  0  0  0  0
    7.2537    0.2494   -3.6405 C   0  0  0  0  0  0  0  0  0  0  0  0
    0.8670    2.3316   -5.9850 C   0  0  0  0  0  0  0  0  0  0  0  0
    0.4673    2.8291   -6.9580 N   0  0  0  0  0  0  0  0  0  0  0  0
   -0.8344    2.3051   -3.6862 N   0  0  0  0  0  0  0  0  0  0  0  0
   -0.9151   -0.2186   -1.1389 C   0  0  0  0  0  0  0  0  0  0  0  0
   -1.9558    0.3676   -1.3508 O   0  0  0  0  0  0  0  0  0  0  0  0
   -0.4684   -1.2376   -1.8903 O   0  0  0  0  0  0  0  0  0  0  0  0
   -1.1753   -1.5134   -3.1107 C   0  0  0  0  0  0  0  0  0  0  0  0
   -2.3652   -2.4264   -2.8764 C   0  0  0  0  0  0  0  0  0  0  0  0
    3.1555    0.1106    1.2306 H   0  0  0  0  0  0  0  0  0  0  0  0
    1.9527    0.2814    3.3931 H   0  0  0  0  0  0  0  0  0  0  0  0
   -0.5506    0.3899    3.4223 H   0  0  0  0  0  0  0  0  0  0  0  0
   -1.8011    0.2108    1.2641 H   0  0  0  0  0  0  0  0  0  0  0  0
    3.0962   -0.4253   -1.0604 H   0  0  0  0  0  0  0  0  0  0  0  0
    3.2211    1.0842   -5.4260 H   0  0  0  0  0  0  0  0  0  0  0  0
    6.4937   -0.9725   -5.2726 H   0  0  0  0  0  0  0  0  0  0  0  0
    6.1834   -1.6394   -3.6386 H   0  0  0  0  0  0  0  0  0  0  0  0
    7.2797    1.1896   -4.2125 H   0  0  0  0  0  0  0  0  0  0  0  0
    8.2595   -0.1989   -3.6667 H   0  0  0  0  0  0  0  0  0  0  0  0
    7.0058    0.4756   -2.5935 H   0  0  0  0  0  0  0  0  0  0  0  0
   -1.1932    2.6878   -4.5509 H   0  0  0  0  0  0  0  0  0  0  0  0
   -1.4557    2.1496   -2.8972 H   0  0  0  0  0  0  0  0  0  0  0  0
   -0.4277   -1.9860   -3.7639 H   0  0  0  0  0  0  0  0  0  0  0  0
   -1.4913   -0.5614   -3.5616 H   0  0  0  0  0  0  0  0  0  0  0  0
   -2.0505   -3.3585   -2.3824 H   0  0  0  0  0  0  0  0  0  0  0  0
   -2.8355   -2.6862   -3.8381 H   0  0  0  0  0  0  0  0  0  0  0  0
   -3.1154   -1.9261   -2.2475 H   0  0  0  0  0  0  0  0  0  0  0  0
  1  2  2  0
  1  6  1  0
  1 22  1  0
  2  3  1  0
  2  7  1  0
  3  4  2  0
  3 27  1  0
  4  5  1  0
  4 28  1  0
  5  6  2  0
  5 29  1  0
  6 30  1  0
  7  8  1  0
  7 31  1  0
  8  9  2  0
  8 13  1  0
  9 10  1  0
 10 11  2  0
 10 21  1  0
 11 12  1  0
 11 19  1  0
 12 13  2  0
 12 32  1  0
 13 14  1  0
 14 15  2  0
 14 16  1  0
 16 17  1  0
 17 18  1  0
 17 33  1  0
 17 34  1  0
 18 35  1  0
 18 36  1  0
 18 37  1  0
 19 20  3  0
 21 38  1  0
 21 39  1  0
 22 23  2  0
 22 24  1  0
 24 25  1  0
 25 26  1  0
 25 40  1  0
 25 41  1  0
 26 42  1  0
 26 43  1  0
 26 44  1  0
M  END

