44
rmsd18.gzmat
C          0.00000        0.00000        0.00000
C          1.40590        0.00000        0.00000
C          2.10120        0.00000        1.22100
C          1.40250       -0.02450        2.41980
C          0.00640       -0.03800        2.42500
C         -0.68570       -0.01860        1.22160
N          2.12180        0.08770       -1.22040
C          3.22920       -0.65690       -1.52170
N          3.69460       -1.51820       -0.57650
C          4.79870       -2.26230       -0.84400
C          5.51030       -2.16700       -2.08670
C          5.01950       -1.28220       -3.04390
C          3.88220       -0.51720       -2.79760
C          3.37720        0.40430       -3.80310
O          2.42870        1.15440       -3.69280
O          4.09940        0.33510       -4.94820
C          3.74150        1.24010       -5.99800
C          4.26690        2.62870       -5.68000
C          6.66170       -2.93580       -2.33190
N          7.61270       -3.56900       -2.52790
N          5.18300       -3.10340        0.15730
C         -0.85340        0.02310       -1.20240
O         -2.02750        0.29970       -1.22770
O         -0.17090       -0.33730       -2.31560
C         -0.85900       -0.26590       -3.56990
C         -0.84600        1.16680       -4.06990
H          3.19270        0.01240        1.22330
H          1.94910       -0.02850        3.36300
H         -0.53550       -0.05950        3.36760
H         -1.78160       -0.01620        1.21750
H          1.65790        0.57930       -2.01090
H          5.54240       -1.18920       -4.00720
H          2.64700        1.22330       -6.14510
H          4.25090        0.77450       -6.86280
H          3.74000        3.06340       -4.81730
H          4.13300        3.31230       -6.52520
H          5.33530        2.60630       -5.43060
H          5.97100       -3.70930        0.05950
H          4.64490       -3.15780        1.00350
H         -1.88080       -0.67050       -3.45880
H         -0.24320       -0.94470       -4.19020
H         -1.43410        1.82450       -3.41520
H         -1.26540        1.24370       -5.07850
H          0.17820        1.57020       -4.10390
