rmsd176.gzmat
 OpenBabel08211713393D

 49 52  0  0  1  0  0  0  0  0999 V2000
    0.0000    0.0000    0.0000 Cl  0  0  0  0  0  0  0  0  0  0  0  0
    1.7084    0.0000    0.0000 C   0  0  0  0  0  0  0  0  0  0  0  0
    2.3781    0.0000    1.2177 C   0  0  0  0  0  0  0  0  0  0  0  0
    3.7682   -0.0122    1.2041 C   0  0  0  0  0  0  0  0  0  0  0  0
    4.4769   -0.0216   -0.0062 C   0  0  0  0  0  0  0  0  0  0  0  0
    3.7721   -0.0109   -1.2095 C   0  0  0  0  0  0  0  0  0  0  0  0
    2.3767   -0.0032   -1.2147 C   0  0  0  0  0  0  0  0  0  0  0  0
    5.9897   -0.0494    0.0649 C   0  0  2  0  0  0  0  0  0  0  0  0
    6.4444   -1.2736    0.9105 C   0  0  0  0  0  0  0  0  0  0  0  0
    7.0528   -0.6446    2.1737 C   0  0  1  0  0  0  0  0  0  0  0  0
    6.5875   -1.0046    3.1192 H   0  0  0  0  0  0  0  0  0  0  0  0
    8.5766   -0.7790    2.2330 C   0  0  0  0  0  0  0  0  0  0  0  0
    8.9996   -0.7583    3.5883 O   0  0  0  0  0  0  0  0  0  0  0  0
    9.0629    0.4376    4.2327 C   0  0  0  0  0  0  0  0  0  0  0  0
    8.9052    1.6924    3.6430 C   0  0  0  0  0  0  0  0  0  0  0  0
    8.9983    2.8286    4.4430 C   0  0  0  0  0  0  0  0  0  0  0  0
    9.2570    2.6727    5.7975 C   0  0  0  0  0  0  0  0  0  0  0  0
    9.3675    4.0725    6.7792 Cl  0  0  0  0  0  0  0  0  0  0  0  0
    9.4340    1.4282    6.3941 C   0  0  0  0  0  0  0  0  0  0  0  0
    9.3338    0.2911    5.6043 C   0  0  0  0  0  0  0  0  0  0  0  0
    6.6837    0.7366    2.1449 O   0  0  0  0  0  0  0  0  0  0  0  0
    6.5955    1.1242    0.7792 N   0  0  0  0  0  0  0  0  0  0  0  0
    5.7903    2.3574    0.7981 C   0  0  0  0  0  0  0  0  0  0  0  0
    6.6373   -0.0554   -1.3566 C   0  0  0  0  0  0  0  0  0  0  0  0
    8.0782   -0.2149   -1.3239 N   0  0  0  0  0  0  0  0  0  0  0  0
    9.0137    0.7146   -0.8704 C   0  0  0  0  0  0  0  0  0  0  0  0
   10.2417    0.1711   -0.8965 N   0  0  0  0  0  0  0  0  0  0  0  0
   10.1068   -1.1311   -1.3552 C   0  0  0  0  0  0  0  0  0  0  0  0
    8.7629   -1.3954   -1.6199 C   0  0  0  0  0  0  0  0  0  0  0  0
    1.8329    0.0075    2.1628 H   0  0  0  0  0  0  0  0  0  0  0  0
    4.3139   -0.0099    2.1528 H   0  0  0  0  0  0  0  0  0  0  0  0
    4.2843   -0.0088   -2.1705 H   0  0  0  0  0  0  0  0  0  0  0  0
    1.8320   -0.0018   -2.1596 H   0  0  0  0  0  0  0  0  0  0  0  0
    7.1682   -1.9045    0.3683 H   0  0  0  0  0  0  0  0  0  0  0  0
    5.6006   -1.9421    1.1508 H   0  0  0  0  0  0  0  0  0  0  0  0
    8.9332   -1.7779    1.9138 H   0  0  0  0  0  0  0  0  0  0  0  0
    9.0932   -0.0095    1.6287 H   0  0  0  0  0  0  0  0  0  0  0  0
    8.7042    1.7943    2.5764 H   0  0  0  0  0  0  0  0  0  0  0  0
    8.8683    3.8174    4.0027 H   0  0  0  0  0  0  0  0  0  0  0  0
    9.6476    1.3410    7.4598 H   0  0  0  0  0  0  0  0  0  0  0  0
    9.4610   -0.7033    6.0250 H   0  0  0  0  0  0  0  0  0  0  0  0
    5.4495    2.6011   -0.2190 H   0  0  0  0  0  0  0  0  0  0  0  0
    6.4451    3.1757    1.1548 H   0  0  0  0  0  0  0  0  0  0  0  0
    4.9119    2.3219    1.4631 H   0  0  0  0  0  0  0  0  0  0  0  0
    6.1920   -0.8831   -1.9580 H   0  0  0  0  0  0  0  0  0  0  0  0
    6.3931    0.9063   -1.8713 H   0  0  0  0  0  0  0  0  0  0  0  0
    8.7593    1.7108   -0.5452 H   0  0  0  0  0  0  0  0  0  0  0  0
   10.9638   -1.7661   -1.4643 H   0  0  0  0  0  0  0  0  0  0  0  0
    8.2836   -2.2707   -1.9964 H   0  0  0  0  0  0  0  0  0  0  0  0
  2  1  1  0  0  0  0
  2  3  2  0  0  0  0
  3 30  1  0  0  0  0
  4  3  1  0  0  0  0
  4 31  1  0  0  0  0
  5  8  1  0  0  0  0
  5  4  2  0  0  0  0
  6  5  1  0  0  0  0
  7  6  2  0  0  0  0
  7  2  1  0  0  0  0
  8 24  1  6  0  0  0
  8 22  1  0  0  0  0
  8  9  1  0  0  0  0
  9 35  1  0  0  0  0
  9 10  1  0  0  0  0
 10 12  1  0  0  0  0
 10 11  1  1  0  0  0
 12 13  1  0  0  0  0
 13 14  1  0  0  0  0
 14 20  1  0  0  0  0
 15 14  2  0  0  0  0
 15 16  1  0  0  0  0
 16 17  2  0  0  0  0
 17 19  1  0  0  0  0
 17 18  1  0  0  0  0
 19 40  1  0  0  0  0
 20 41  1  0  0  0  0
 20 19  2  0  0  0  0
 21 10  1  0  0  0  0
 22 23  1  0  0  0  0
 22 21  1  0  0  0  0
 23 43  1  0  0  0  0
 23 44  1  0  0  0  0
 24 25  1  0  0  0  0
 25 26  1  0  0  0  0
 26 47  1  0  0  0  0
 27 26  2  0  0  0  0
 28 27  2  0  0  0  0
 29 28  1  0  0  0  0
 29 25  1  0  0  0  0
 32  6  1  0  0  0  0
 33  7  1  0  0  0  0
 34  9  1  0  0  0  0
 36 12  1  0  0  0  0
 37 12  1  0  0  0  0
 38 15  1  0  0  0  0
 39 16  1  0  0  0  0
 42 23  1  0  0  0  0
 45 24  1  0  0  0  0
 46 24  1  0  0  0  0
 48 28  1  0  0  0  0
 49 29  1  0  0  0  0
M  RAD  1  29   2
M  END
$$$$
