49
rmsd37.gzmat
Cl         0.00000        0.00000        0.00000
C          1.70960        0.00000        0.00000
C          2.37820        0.00000        1.21680
C          3.77020        0.00090        1.20420
C          4.47490       -0.00900       -0.00510
C          3.77000        0.01100       -1.21150
C          2.37620        0.01040       -1.21700
C          5.97840        0.04250       -0.00080
C          6.64620       -0.51050       -1.29850
C          7.95300       -1.13150       -0.79410
H          8.00670       -2.22310       -0.99840
C          9.22490       -0.43010       -1.27170
O         10.23060       -1.38650       -1.56810
C         10.76010       -2.10660       -0.53880
C         10.67370       -1.77220        0.81240
C         11.28580       -2.60360        1.74880
C         11.96970       -3.72570        1.30240
Cl        12.71730       -4.74460        2.45620
C         12.07560       -4.05860       -0.04510
C         11.45960       -3.24110       -0.98260
O          7.93980       -0.96930        0.63980
N          6.63620       -0.73180        1.10180
C          6.01800       -2.04470        1.38190
C          6.43960        1.53610        0.17350
N          5.88980        2.15580        1.36020
C          6.20890        1.83770        2.68240
N          5.40670        2.51620        3.51670
C          4.54310        3.27240        2.73580
C          4.82070        3.05270        1.38700
H          1.83790        0.01170        2.16500
H          4.31210        0.03580        2.15590
H          4.29610        0.03710       -2.16490
H          1.83030        0.02160       -2.16070
H          6.79810        0.27070       -2.05650
H          6.00920       -1.27730       -1.77520
H          9.10130        0.05230       -2.26150
H          9.59410        0.31710       -0.54570
H         10.14170       -0.88390        1.14920
H         11.21970       -2.36700        2.81210
H         12.62710       -4.94390       -0.36480
H         11.50860       -3.46230       -2.04660
H          5.28610       -1.90940        2.19730
H          6.79430       -2.73880        1.75600
H          5.51520       -2.51540        0.52690
H          7.55630        1.55700        0.23750
H          6.14050        2.11620       -0.72830
H          6.98730        1.14220        2.95520
H          3.80580        3.90550        3.18750
H          4.36970        3.44920        0.50500
