49
rmsd120.gzmat
Cl         0.00000        0.00000        0.00000
C          1.70830        0.00000        0.00000
C          2.37710        0.00000        1.21450
C          3.77260       -0.00430        1.20960
C          4.47780       -0.00150        0.00630
C          3.76820       -0.00170       -1.20370
C          2.37800       -0.00170       -1.21770
C          5.99140       -0.01990       -0.06440
C          6.49380        1.13410       -0.97690
C          7.10770        0.40690       -2.18410
H          6.70730        0.75520       -3.16200
C          8.64190        0.40930       -2.18570
O          8.97640        1.49640       -3.04960
C         10.26940        1.91050       -3.05320
C         10.50200        2.93530       -3.98840
C         11.77880        3.46730       -4.09720
C         12.78280        2.96880       -3.27170
Cl        14.35600        3.63190       -3.40720
C         12.56300        1.95840       -2.34660
C         11.28490        1.41430       -2.23440
O          6.66260       -0.94870       -2.09590
N          6.54960       -1.25790       -0.71010
C          5.68550       -2.44990       -0.67230
C          6.63330        0.04230        1.35890
N          8.07880        0.15620        1.33740
C          8.99020       -0.83180        0.96580
N         10.23630       -0.32950        0.98320
C         10.13770        1.00370        1.35640
C          8.79910        1.32930        1.57370
H          1.83310        0.00260        2.15970
H          4.28440       -0.01180        2.17090
H          4.31390       -0.00980       -2.15190
H          1.83370       -0.00170       -2.16320
H          7.23120        1.78140       -0.47060
H          5.67660        1.81160       -1.27570
H          9.06640        0.56310       -1.17960
H          9.04370       -0.52710       -2.61670
H          9.68400        3.29220       -4.60950
H         11.98490        4.26010       -4.81680
H         13.36980        1.58640       -1.71230
H         11.10320        0.61980       -1.50990
H          5.36360       -2.64710        0.36140
H          6.28940       -3.30980       -1.02060
H          4.79040       -2.39020       -1.31310
H          6.20760        0.91380        1.91110
H          6.35700       -0.88380        1.92110
H          8.70570       -1.83600        0.69460
H         11.01350        1.61630        1.44470
H          8.34370        2.24520        1.87760
