
     RDKit          3D

 49 52  0  0  0  0  0  0  0  0999 V2000
   -0.0785   -0.2836    0.3104 Cl  0  0  0  0  0  0  0  0  0  0  0  0
    1.6577   -0.1632    0.1768 C   0  0  0  0  0  0  0  0  0  0  0  0
    2.4336   -0.0045    1.3238 C   0  0  0  0  0  0  0  0  0  0  0  0
    3.8233    0.0907    1.2076 C   0  0  0  0  0  0  0  0  0  0  0  0
    4.4604    0.0433   -0.0408 C   0  0  0  0  0  0  0  0  0  0  0  0
    3.6493   -0.1201   -1.1800 C   0  0  0  0  0  0  0  0  0  0  0  0
    2.2642   -0.2271   -1.0811 C   0  0  0  0  0  0  0  0  0  0  0  0
    5.9807    0.0956   -0.2120 C   0  0  2  0  0  0  0  0  0  0  0  0
    6.4005    1.1261   -1.2993 C   0  0  0  0  0  0  0  0  0  0  0  0
    6.9543    0.2621   -2.4485 C   0  0  1  0  0  0  0  0  0  0  0  0
    6.5568    0.5706   -3.4269 H   0  0  0  0  0  0  0  0  0  0  0  0
    8.4794    0.2504   -2.5092 C   0  0  0  0  0  0  0  0  0  0  0  0
    8.8828    1.5715   -2.8164 O   0  0  0  0  0  0  0  0  0  0  0  0
   10.2025    1.8948   -2.7885 C   0  0  0  0  0  0  0  0  0  0  0  0
   10.5283    3.1966   -3.2011 C   0  0  0  0  0  0  0  0  0  0  0  0
   11.8503    3.6306   -3.1921 C   0  0  0  0  0  0  0  0  0  0  0  0
   12.8603    2.7588   -2.7704 C   0  0  0  0  0  0  0  0  0  0  0  0
   14.5247    3.3014   -2.7560 Cl  0  0  0  0  0  0  0  0  0  0  0  0
   12.5469    1.4635   -2.3606 C   0  0  0  0  0  0  0  0  0  0  0  0
   11.2192    1.0263   -2.3701 C   0  0  0  0  0  0  0  0  0  0  0  0
    6.4498   -1.0382   -2.1991 O   0  0  0  0  0  0  0  0  0  0  0  0
    6.5424   -1.1715   -0.7662 N   0  0  0  0  0  0  0  0  0  0  0  0
    5.9104   -2.4220   -0.4161 C   0  0  0  0  0  0  0  0  0  0  0  0
    6.6967    0.3459    1.1378 C   0  0  0  0  0  0  0  0  0  0  0  0
    8.1356    0.4597    1.0386 N   0  0  0  0  0  0  0  0  0  0  0  0
    9.0340   -0.5695    0.9208 C   0  0  0  0  0  0  0  0  0  0  0  0
   10.2657   -0.1330    0.7734 N   0  0  0  0  0  0  0  0  0  0  0  0
   10.1800    1.2398    0.7956 C   0  0  0  0  0  0  0  0  0  0  0  0
    8.8706    1.6311    0.9594 C   0  0  0  0  0  0  0  0  0  0  0  0
    1.9534    0.0441    2.3021 H   0  0  0  0  0  0  0  0  0  0  0  0
    4.3966    0.2066    2.1272 H   0  0  0  0  0  0  0  0  0  0  0  0
    4.1133   -0.1899   -2.1640 H   0  0  0  0  0  0  0  0  0  0  0  0
    1.6504   -0.3585   -1.9732 H   0  0  0  0  0  0  0  0  0  0  0  0
    7.1690    1.8215   -0.9441 H   0  0  0  0  0  0  0  0  0  0  0  0
    5.5367    1.7198   -1.6185 H   0  0  0  0  0  0  0  0  0  0  0  0
    8.8880   -0.0814   -1.5443 H   0  0  0  0  0  0  0  0  0  0  0  0
    8.8169   -0.4543   -3.2902 H   0  0  0  0  0  0  0  0  0  0  0  0
    9.7222    3.8573   -3.5251 H   0  0  0  0  0  0  0  0  0  0  0  0
   12.1053    4.6421   -3.5117 H   0  0  0  0  0  0  0  0  0  0  0  0
   13.3390    0.7936   -2.0235 H   0  0  0  0  0  0  0  0  0  0  0  0
   10.9940    0.0245   -2.0085 H   0  0  0  0  0  0  0  0  0  0  0  0
    5.8935   -2.5082    0.6803 H   0  0  0  0  0  0  0  0  0  0  0  0
    6.5158   -3.2462   -0.8200 H   0  0  0  0  0  0  0  0  0  0  0  0
    4.8755   -2.5157   -0.7926 H   0  0  0  0  0  0  0  0  0  0  0  0
    6.3117    1.2699    1.5896 H   0  0  0  0  0  0  0  0  0  0  0  0
    6.4652   -0.4752    1.8315 H   0  0  0  0  0  0  0  0  0  0  0  0
    8.7161   -1.6099    0.9357 H   0  0  0  0  0  0  0  0  0  0  0  0
   11.0587    1.8724    0.6847 H   0  0  0  0  0  0  0  0  0  0  0  0
    8.4033    2.6090    1.0407 H   0  0  0  0  0  0  0  0  0  0  0  0
  1  2  1  0
  2  3  2  0
  2  7  1  0
  3  4  1  0
  3 30  1  0
  4  5  2  0
  4 31  1  0
  5  6  1  0
  5  8  1  0
  6  7  2  0
  6 32  1  0
  7 33  1  0
  8  9  1  0
  8 22  1  0
  8 24  1  1
  9 10  1  0
  9 34  1  0
  9 35  1  0
 10 11  1  6
 10 12  1  0
 10 21  1  0
 12 13  1  0
 12 36  1  0
 12 37  1  0
 13 14  1  0
 14 15  2  0
 14 20  1  0
 15 16  1  0
 15 38  1  0
 16 17  2  0
 16 39  1  0
 17 18  1  0
 17 19  1  0
 19 20  2  0
 19 40  1  0
 20 41  1  0
 21 22  1  0
 22 23  1  0
 23 42  1  0
 23 43  1  0
 23 44  1  0
 24 25  1  0
 24 45  1  0
 24 46  1  0
 25 26  1  0
 25 29  1  0
 26 27  2  0
 26 47  1  0
 27 28  1  0
 28 29  2  0
 28 48  1  0
 29 49  1  0
M  END

