49

Cl        -0.07850       -0.28360        0.31040
C          1.65770       -0.16320        0.17680
C          2.43360       -0.00450        1.32380
C          3.82330        0.09070        1.20760
C          4.46040        0.04330       -0.04080
C          3.64930       -0.12010       -1.18000
C          2.26420       -0.22710       -1.08110
C          5.98070        0.09560       -0.21200
C          6.40050        1.12610       -1.29930
C          6.95430        0.26210       -2.44850
H          6.55680        0.57060       -3.42690
C          8.47940        0.25040       -2.50920
O          8.88280        1.57150       -2.81640
C         10.20250        1.89480       -2.78850
C         10.52830        3.19660       -3.20110
C         11.85030        3.63060       -3.19210
C         12.86030        2.75880       -2.77040
Cl        14.52470        3.30140       -2.75600
C         12.54690        1.46350       -2.36060
C         11.21920        1.02630       -2.37010
O          6.44980       -1.03820       -2.19910
N          6.54240       -1.17150       -0.76620
C          5.91040       -2.42200       -0.41610
C          6.69670        0.34590        1.13780
N          8.13560        0.45970        1.03860
C          9.03400       -0.56950        0.92080
N         10.26570       -0.13300        0.77340
C         10.18000        1.23980        0.79560
C          8.87060        1.63110        0.95940
H          1.95340        0.04410        2.30210
H          4.39660        0.20660        2.12720
H          4.11330       -0.18990       -2.16400
H          1.65040       -0.35850       -1.97320
H          7.16900        1.82150       -0.94410
H          5.53670        1.71980       -1.61850
H          8.88800       -0.08140       -1.54430
H          8.81690       -0.45430       -3.29020
H          9.72220        3.85730       -3.52510
H         12.10530        4.64210       -3.51170
H         13.33900        0.79360       -2.02350
H         10.99400        0.02450       -2.00850
H          5.89350       -2.50820        0.68030
H          6.51580       -3.24620       -0.82000
H          4.87550       -2.51570       -0.79260
H          6.31170        1.26990        1.58960
H          6.46520       -0.47520        1.83150
H          8.71610       -1.60990        0.93570
H         11.05870        1.87240        0.68470
H          8.40330        2.60900        1.04070
