49

Cl        -0.06360        0.31660        0.20140
C          1.67460        0.20150        0.09480
C          2.40160       -0.34760        1.15460
C          3.78790       -0.44530        1.05760
C          4.48140        0.00270       -0.08280
C          3.72450        0.56180       -1.12320
C          2.33260        0.65840       -1.04620
C          6.01020       -0.06830       -0.10680
C          6.53400       -1.46190        0.34170
C          7.13930       -1.21020        1.73950
H          6.76150       -1.91980        2.49010
C          8.66800       -1.22870        1.73220
O          9.20960       -1.02370        3.02210
C          9.21080       -2.02630        3.93450
C          9.64680       -1.68000        5.22520
C          9.70660       -2.63360        6.23500
C          9.32630       -3.95380        5.96560
Cl         9.39510       -5.15580        7.23560
C          8.89200       -4.31210        4.69120
C          8.83220       -3.35270        3.67490
O          6.63120        0.05610        2.12960
N          6.64390        0.81970        0.91180
C          6.01660        2.08780        1.20620
C          6.57820        0.35160       -1.48380
N          8.01120        0.19550       -1.60920
C          8.98160        1.00410       -1.07540
N         10.19000        0.54130       -1.30720
C         10.01340       -0.61930       -2.02100
C          8.67150       -0.85580       -2.22260
H          1.88040       -0.69540        2.04750
H          4.34370       -0.85560        1.90020
H          4.20340        0.93810       -2.02700
H          1.75910        1.08770       -1.86880
H          7.29460       -1.84460       -0.35000
H          5.71550       -2.18990        0.37490
H          9.03670       -2.16900        1.28600
H          9.04280       -0.40100        1.11670
H          9.93750       -0.64440        5.40990
H         10.04620       -2.36140        7.23540
H          8.59850       -5.34330        4.48930
H          8.49360       -3.66020        2.68610
H          5.94030        2.66630        0.27390
H          6.65970        2.63960        1.90630
H          5.00720        1.98730        1.64510
H          6.10330       -0.24610       -2.27300
H          6.32500        1.40380       -1.67750
H          8.73150        1.90360       -0.51700
H         10.85670       -1.21890       -2.36150
H          8.13430       -1.63890       -2.75190
