rmsd37.gzmat
 OpenBabel08211713393D

 49 52  0  0  1  0  0  0  0  0999 V2000
    0.0000    0.0000    0.0000 Cl  0  0  0  0  0  0  0  0  0  0  0  0
    1.7096    0.0000    0.0000 C   0  0  0  0  0  0  0  0  0  0  0  0
    2.3782    0.0000    1.2168 C   0  0  0  0  0  0  0  0  0  0  0  0
    3.7702    0.0009    1.2042 C   0  0  0  0  0  0  0  0  0  0  0  0
    4.4749   -0.0090   -0.0051 C   0  0  0  0  0  0  0  0  0  0  0  0
    3.7700    0.0110   -1.2115 C   0  0  0  0  0  0  0  0  0  0  0  0
    2.3762    0.0104   -1.2170 C   0  0  0  0  0  0  0  0  0  0  0  0
    5.9784    0.0425   -0.0008 C   0  0  2  0  0  0  0  0  0  0  0  0
    6.6462   -0.5105   -1.2985 C   0  0  0  0  0  0  0  0  0  0  0  0
    7.9530   -1.1315   -0.7941 C   0  0  1  0  0  0  0  0  0  0  0  0
    8.0067   -2.2231   -0.9984 H   0  0  0  0  0  0  0  0  0  0  0  0
    9.2249   -0.4301   -1.2717 C   0  0  0  0  0  0  0  0  0  0  0  0
   10.2306   -1.3865   -1.5681 O   0  0  0  0  0  0  0  0  0  0  0  0
   10.7601   -2.1066   -0.5388 C   0  0  0  0  0  0  0  0  0  0  0  0
   10.6737   -1.7722    0.8124 C   0  0  0  0  0  0  0  0  0  0  0  0
   11.2858   -2.6036    1.7488 C   0  0  0  0  0  0  0  0  0  0  0  0
   11.9697   -3.7257    1.3024 C   0  0  0  0  0  0  0  0  0  0  0  0
   12.7173   -4.7446    2.4562 Cl  0  0  0  0  0  0  0  0  0  0  0  0
   12.0756   -4.0586   -0.0451 C   0  0  0  0  0  0  0  0  0  0  0  0
   11.4596   -3.2411   -0.9826 C   0  0  0  0  0  0  0  0  0  0  0  0
    7.9398   -0.9693    0.6398 O   0  0  0  0  0  0  0  0  0  0  0  0
    6.6362   -0.7318    1.1018 N   0  0  0  0  0  0  0  0  0  0  0  0
    6.0180   -2.0447    1.3819 C   0  0  0  0  0  0  0  0  0  0  0  0
    6.4396    1.5361    0.1735 C   0  0  0  0  0  0  0  0  0  0  0  0
    5.8898    2.1558    1.3602 N   0  0  0  0  0  0  0  0  0  0  0  0
    6.2089    1.8377    2.6824 C   0  0  0  0  0  0  0  0  0  0  0  0
    5.4067    2.5162    3.5167 N   0  0  0  0  0  0  0  0  0  0  0  0
    4.5431    3.2724    2.7358 C   0  0  0  0  0  0  0  0  0  0  0  0
    4.8207    3.0527    1.3870 C   0  0  0  0  0  0  0  0  0  0  0  0
    1.8379    0.0117    2.1650 H   0  0  0  0  0  0  0  0  0  0  0  0
    4.3121    0.0358    2.1559 H   0  0  0  0  0  0  0  0  0  0  0  0
    4.2961    0.0371   -2.1649 H   0  0  0  0  0  0  0  0  0  0  0  0
    1.8303    0.0216   -2.1607 H   0  0  0  0  0  0  0  0  0  0  0  0
    6.7981    0.2707   -2.0565 H   0  0  0  0  0  0  0  0  0  0  0  0
    6.0092   -1.2773   -1.7752 H   0  0  0  0  0  0  0  0  0  0  0  0
    9.1013    0.0523   -2.2615 H   0  0  0  0  0  0  0  0  0  0  0  0
    9.5941    0.3171   -0.5457 H   0  0  0  0  0  0  0  0  0  0  0  0
   10.1417   -0.8839    1.1492 H   0  0  0  0  0  0  0  0  0  0  0  0
   11.2197   -2.3670    2.8121 H   0  0  0  0  0  0  0  0  0  0  0  0
   12.6271   -4.9439   -0.3648 H   0  0  0  0  0  0  0  0  0  0  0  0
   11.5086   -3.4623   -2.0466 H   0  0  0  0  0  0  0  0  0  0  0  0
    5.2861   -1.9094    2.1973 H   0  0  0  0  0  0  0  0  0  0  0  0
    6.7943   -2.7388    1.7560 H   0  0  0  0  0  0  0  0  0  0  0  0
    5.5152   -2.5154    0.5269 H   0  0  0  0  0  0  0  0  0  0  0  0
    7.5563    1.5570    0.2375 H   0  0  0  0  0  0  0  0  0  0  0  0
    6.1405    2.1162   -0.7283 H   0  0  0  0  0  0  0  0  0  0  0  0
    6.9873    1.1422    2.9552 H   0  0  0  0  0  0  0  0  0  0  0  0
    3.8058    3.9055    3.1875 H   0  0  0  0  0  0  0  0  0  0  0  0
    4.3697    3.4492    0.5050 H   0  0  0  0  0  0  0  0  0  0  0  0
  1  2  1  0  0  0  0
  2  3  2  0  0  0  0
  3 30  1  0  0  0  0
  4  3  1  0  0  0  0
  4 31  1  0  0  0  0
  5  8  1  0  0  0  0
  5  4  2  0  0  0  0
  6  5  1  0  0  0  0
  7  6  2  0  0  0  0
  7  2  1  0  0  0  0
  8 24  1  1  0  0  0
  8 22  1  0  0  0  0
  9 10  1  0  0  0  0
  9  8  1  0  0  0  0
 10 11  1  6  0  0  0
 10 21  1  0  0  0  0
 12 10  1  0  0  0  0
 12 37  1  0  0  0  0
 13 12  1  0  0  0  0
 13 14  1  0  0  0  0
 14 15  1  0  0  0  0
 15 38  1  0  0  0  0
 15 16  2  0  0  0  0
 16 39  1  0  0  0  0
 17 16  1  0  0  0  0
 17 18  1  0  0  0  0
 19 17  2  0  0  0  0
 20 14  2  0  0  0  0
 20 19  1  0  0  0  0
 21 22  1  0  0  0  0
 22 23  1  0  0  0  0
 23 43  1  0  0  0  0
 23 42  1  0  0  0  0
 24 45  1  0  0  0  0
 24 25  1  0  0  0  0
 25 29  1  0  0  0  0
 25 26  1  0  0  0  0
 26 47  1  0  0  0  0
 26 27  2  0  0  0  0
 28 48  1  0  0  0  0
 28 27  2  0  0  0  0
 29 28  1  0  0  0  0
 32  6  1  0  0  0  0
 33  7  1  0  0  0  0
 34  9  1  0  0  0  0
 35  9  1  0  0  0  0
 36 12  1  0  0  0  0
 40 19  1  0  0  0  0
 41 20  1  0  0  0  0
 44 23  1  0  0  0  0
 46 24  1  0  0  0  0
 49 29  1  0  0  0  0
M  RAD  1  29   2
M  END
$$$$
