49

Cl        -0.05210       -0.33840        0.13750
C          1.68860       -0.22330        0.08630
C          2.43170       -0.40720        1.25130
C          3.82520       -0.31270        1.20140
C          4.49910       -0.02270        0.00600
C          3.72110        0.15190       -1.15430
C          2.33210        0.05120       -1.12380
C          6.02460        0.03360       -0.10460
C          6.50500        1.29240       -0.88400
C          7.08760        0.72910       -2.19800
H          6.74840        1.28140       -3.08670
C          8.60620        0.66670       -2.19540
O          9.03900        0.34000       -3.49840
C         10.32900       -0.04310       -3.68550
C         11.25650       -0.24480       -2.65150
C         12.55980       -0.64870       -2.96030
C         12.93950       -0.84550       -4.28660
Cl        14.57490       -1.34740       -4.66390
C         12.01950       -0.64540       -5.32190
C         10.72220       -0.24550       -5.01910
O          6.51420       -0.56710       -2.30130
N          6.57820       -1.06380       -0.95340
C          5.91980       -2.34980       -0.94290
C          6.69960       -0.09020        1.28380
N          8.13620        0.09460        1.26960
C          9.08330       -0.80240        0.85060
N         10.29320       -0.28430        0.87150
C         10.13970        1.00470        1.32360
C          8.81160        1.26330        1.57840
H          1.92300       -0.62390        2.19160
H          4.37170       -0.47230        2.13080
H          4.21340        0.34380       -2.10760
H          1.74430        0.18470       -2.03290
H          7.26010        1.85540       -0.32270
H          5.66330        1.96650       -1.07700
H          9.03550        1.63600       -1.87970
H          8.91890       -0.09590       -1.47000
H         10.99030       -0.11810       -1.60160
H         13.28070       -0.81220       -2.15790
H         12.32490       -0.80320       -6.35730
H          9.98530       -0.08330       -5.80780
H          5.88670       -2.71780        0.09320
H          6.51650       -3.05130       -1.54300
H          4.88900       -2.32050       -1.34040
H          6.27420        0.65760        1.96580
H          6.48060       -1.08010        1.70900
H          8.81720       -1.80550        0.52470
H         10.98910        1.67470        1.44930
H          8.29520        2.13910        1.96330
