rmsd80.gzmat
 OpenBabel08211713393D

 49 52  0  0  1  0  0  0  0  0999 V2000
    0.0000    0.0000    0.0000 Cl  0  0  0  0  0  0  0  0  0  0  0  0
    1.7086    0.0000    0.0000 C   0  0  0  0  0  0  0  0  0  0  0  0
    2.3781    0.0000    1.2138 C   0  0  0  0  0  0  0  0  0  0  0  0
    3.7741   -0.0053    1.2080 C   0  0  0  0  0  0  0  0  0  0  0  0
    4.4787   -0.0024    0.0046 C   0  0  0  0  0  0  0  0  0  0  0  0
    3.7684   -0.0032   -1.2052 C   0  0  0  0  0  0  0  0  0  0  0  0
    2.3782   -0.0026   -1.2181 C   0  0  0  0  0  0  0  0  0  0  0  0
    5.9925   -0.0059   -0.0694 C   0  0  2  0  0  0  0  0  0  0  0  0
    6.4738    1.1693   -0.9651 C   0  0  0  0  0  0  0  0  0  0  0  0
    7.0294    0.4749   -2.2166 C   0  0  1  0  0  0  0  0  0  0  0  0
    6.5344    0.8175   -3.1527 H   0  0  0  0  0  0  0  0  0  0  0  0
    8.5554    0.5551   -2.3412 C   0  0  0  0  0  0  0  0  0  0  0  0
    8.9227    1.7885   -2.9398 O   0  0  0  0  0  0  0  0  0  0  0  0
    8.7592    1.9360   -4.2797 C   0  0  0  0  0  0  0  0  0  0  0  0
    8.3278    0.9454   -5.1630 C   0  0  0  0  0  0  0  0  0  0  0  0
    8.2121    1.2565   -6.5174 C   0  0  0  0  0  0  0  0  0  0  0  0
    8.5290    2.5388   -6.9395 C   0  0  0  0  0  0  0  0  0  0  0  0
    8.3808    2.9182   -8.6019 Cl  0  0  0  0  0  0  0  0  0  0  0  0
    8.9650    3.5342   -6.0677 C   0  0  0  0  0  0  0  0  0  0  0  0
    9.0860    3.2323   -4.7200 C   0  0  0  0  0  0  0  0  0  0  0  0
    6.6492   -0.9001   -2.1221 O   0  0  0  0  0  0  0  0  0  0  0  0
    6.5673   -1.2226   -0.7376 N   0  0  0  0  0  0  0  0  0  0  0  0
    5.7326   -2.4350   -0.6909 C   0  0  0  0  0  0  0  0  0  0  0  0
    6.6421    0.0454    1.3495 C   0  0  0  0  0  0  0  0  0  0  0  0
    8.0856    0.1781    1.3123 N   0  0  0  0  0  0  0  0  0  0  0  0
    9.0043   -0.7778    0.8792 C   0  0  0  0  0  0  0  0  0  0  0  0
   10.2440   -0.2627    0.9130 N   0  0  0  0  0  0  0  0  0  0  0  0
   10.1341    1.0483    1.3545 C   0  0  0  0  0  0  0  0  0  0  0  0
    8.7943    1.3465    1.6015 C   0  0  0  0  0  0  0  0  0  0  0  0
    1.8348    0.0034    2.1594 H   0  0  0  0  0  0  0  0  0  0  0  0
    4.2872   -0.0127    2.1686 H   0  0  0  0  0  0  0  0  0  0  0  0
    4.3137   -0.0115   -2.1536 H   0  0  0  0  0  0  0  0  0  0  0  0
    1.8341   -0.0034   -2.1632 H   0  0  0  0  0  0  0  0  0  0  0  0
    7.2413    1.7900   -0.4692 H   0  0  0  0  0  0  0  0  0  0  0  0
    5.6552    1.8672   -1.2069 H   0  0  0  0  0  0  0  0  0  0  0  0
    9.0728    0.6255   -1.3609 H   0  0  0  0  0  0  0  0  0  0  0  0
    8.9740   -0.3112   -2.8820 H   0  0  0  0  0  0  0  0  0  0  0  0
    8.0913   -0.0579   -4.8194 H   0  0  0  0  0  0  0  0  0  0  0  0
    7.8759    0.4971   -7.2250 H   0  0  0  0  0  0  0  0  0  0  0  0
    9.2068    4.5331   -6.4340 H   0  0  0  0  0  0  0  0  0  0  0  0
    9.4308    3.9728   -4.0010 H   0  0  0  0  0  0  0  0  0  0  0  0
    5.4664   -2.6600    0.3532 H   0  0  0  0  0  0  0  0  0  0  0  0
    6.3383   -3.2738   -1.0839 H   0  0  0  0  0  0  0  0  0  0  0  0
    4.8068   -2.3832   -1.2862 H   0  0  0  0  0  0  0  0  0  0  0  0
    6.2113    0.9046    1.9164 H   0  0  0  0  0  0  0  0  0  0  0  0
    6.3820   -0.8898    1.9036 H   0  0  0  0  0  0  0  0  0  0  0  0
    8.7279   -1.7689    0.5560 H   0  0  0  0  0  0  0  0  0  0  0  0
   11.0034    1.6663    1.4622 H   0  0  0  0  0  0  0  0  0  0  0  0
    8.3302    2.2390    1.9563 H   0  0  0  0  0  0  0  0  0  0  0  0
  2  1  1  0  0  0  0
  2  3  2  0  0  0  0
  3 30  1  0  0  0  0
  4  3  1  0  0  0  0
  4 31  1  0  0  0  0
  5  4  2  0  0  0  0
  6  5  1  0  0  0  0
  7  6  2  0  0  0  0
  7  2  1  0  0  0  0
  8  5  1  0  0  0  0
  8 24  1  1  0  0  0
  9 34  1  0  0  0  0
  9  8  1  0  0  0  0
 10 11  1  6  0  0  0
 10 21  1  0  0  0  0
 10  9  1  0  0  0  0
 12 10  1  0  0  0  0
 12 36  1  0  0  0  0
 13 12  1  0  0  0  0
 14 13  1  0  0  0  0
 15 38  1  0  0  0  0
 15 14  2  0  0  0  0
 16 15  1  0  0  0  0
 17 16  2  0  0  0  0
 17 19  1  0  0  0  0
 18 17  1  0  0  0  0
 19 20  2  0  0  0  0
 20 14  1  0  0  0  0
 20 41  1  0  0  0  0
 21 22  1  0  0  0  0
 22 23  1  0  0  0  0
 22  8  1  0  0  0  0
 23 42  1  0  0  0  0
 24 46  1  0  0  0  0
 24 45  1  0  0  0  0
 25 24  1  0  0  0  0
 25 29  1  0  0  0  0
 26 27  2  0  0  0  0
 26 25  1  0  0  0  0
 27 28  2  0  0  0  0
 28 48  1  0  0  0  0
 28 29  1  0  0  0  0
 29 49  1  0  0  0  0
 32  6  1  0  0  0  0
 33  7  1  0  0  0  0
 35  9  1  0  0  0  0
 37 12  1  0  0  0  0
 39 16  1  0  0  0  0
 40 19  1  0  0  0  0
 43 23  1  0  0  0  0
 44 23  1  0  0  0  0
 47 26  1  0  0  0  0
M  RAD  1  29   2
M  END
$$$$
