49
rmsd80.gzmat
Cl         0.00000        0.00000        0.00000
C          1.70860        0.00000        0.00000
C          2.37810        0.00000        1.21380
C          3.77410       -0.00530        1.20800
C          4.47870       -0.00240        0.00460
C          3.76840       -0.00320       -1.20520
C          2.37820       -0.00260       -1.21810
C          5.99250       -0.00590       -0.06940
C          6.47380        1.16930       -0.96510
C          7.02940        0.47490       -2.21660
H          6.53440        0.81750       -3.15270
C          8.55540        0.55510       -2.34120
O          8.92270        1.78850       -2.93980
C          8.75920        1.93600       -4.27970
C          8.32780        0.94540       -5.16300
C          8.21210        1.25650       -6.51740
C          8.52900        2.53880       -6.93950
Cl         8.38080        2.91820       -8.60190
C          8.96500        3.53420       -6.06770
C          9.08600        3.23230       -4.72000
O          6.64920       -0.90010       -2.12210
N          6.56730       -1.22260       -0.73760
C          5.73260       -2.43500       -0.69090
C          6.64210        0.04540        1.34950
N          8.08560        0.17810        1.31230
C          9.00430       -0.77780        0.87920
N         10.24400       -0.26270        0.91300
C         10.13410        1.04830        1.35450
C          8.79430        1.34650        1.60150
H          1.83480        0.00340        2.15940
H          4.28720       -0.01270        2.16860
H          4.31370       -0.01150       -2.15360
H          1.83410       -0.00340       -2.16320
H          7.24130        1.79000       -0.46920
H          5.65520        1.86720       -1.20690
H          9.07280        0.62550       -1.36090
H          8.97400       -0.31120       -2.88200
H          8.09130       -0.05790       -4.81940
H          7.87590        0.49710       -7.22500
H          9.20680        4.53310       -6.43400
H          9.43080        3.97280       -4.00100
H          5.46640       -2.66000        0.35320
H          6.33830       -3.27380       -1.08390
H          4.80680       -2.38320       -1.28620
H          6.21130        0.90460        1.91640
H          6.38200       -0.88980        1.90360
H          8.72790       -1.76890        0.55600
H         11.00340        1.66630        1.46220
H          8.33020        2.23900        1.95630
