
     RDKit          3D

 49 52  0  0  0  0  0  0  0  0999 V2000
   -0.0687    1.3860    0.0610 Cl  0  0  0  0  0  0  0  0  0  0  0  0
    1.6073    0.9021    0.0035 C   0  0  0  0  0  0  0  0  0  0  0  0
    2.2883    0.6177    1.1902 C   0  0  0  0  0  0  0  0  0  0  0  0
    3.6269    0.2356    1.1378 C   0  0  0  0  0  0  0  0  0  0  0  0
    4.3011    0.1150   -0.0899 C   0  0  0  0  0  0  0  0  0  0  0  0
    3.5982    0.4160   -1.2639 C   0  0  0  0  0  0  0  0  0  0  0  0
    2.2579    0.8076   -1.2272 C   0  0  0  0  0  0  0  0  0  0  0  0
    5.7789   -0.2237   -0.1179 C   0  0  2  0  0  0  0  0  0  0  0  0
    6.3292   -0.7494   -1.4716 C   0  0  0  0  0  0  0  0  0  0  0  0
    7.4499   -1.7151   -1.0402 C   0  0  1  0  0  0  0  0  0  0  0  0
    7.2370   -2.7453   -1.3737 H   0  0  0  0  0  0  0  0  0  0  0  0
    8.8300   -1.3405   -1.5611 C   0  0  0  0  0  0  0  0  0  0  0  0
    9.7925   -2.3581   -1.3880 O   0  0  0  0  0  0  0  0  0  0  0  0
   10.6889   -2.3184   -0.3591 C   0  0  0  0  0  0  0  0  0  0  0  0
   10.4854   -1.6289    0.8433 C   0  0  0  0  0  0  0  0  0  0  0  0
   11.4724   -1.6512    1.8326 C   0  0  0  0  0  0  0  0  0  0  0  0
   12.6512   -2.3683    1.6287 C   0  0  0  0  0  0  0  0  0  0  0  0
   13.8815   -2.3961    2.8725 Cl  0  0  0  0  0  0  0  0  0  0  0  0
   12.8535   -3.0722    0.4370 C   0  0  0  0  0  0  0  0  0  0  0  0
   11.8756   -3.0410   -0.5533 C   0  0  0  0  0  0  0  0  0  0  0  0
    7.4417   -1.6695    0.4027 O   0  0  0  0  0  0  0  0  0  0  0  0
    6.1368   -1.2993    0.8330 N   0  0  0  0  0  0  0  0  0  0  0  0
    5.2893   -2.4875    0.8229 C   0  0  0  0  0  0  0  0  0  0  0  0
    6.6088    1.0382    0.2718 C   0  0  0  0  0  0  0  0  0  0  0  0
    6.2704    1.6056    1.5542 N   0  0  0  0  0  0  0  0  0  0  0  0
    6.5869    1.0908    2.7871 C   0  0  0  0  0  0  0  0  0  0  0  0
    6.0488    1.7906    3.7610 N   0  0  0  0  0  0  0  0  0  0  0  0
    5.3487    2.8039    3.1492 C   0  0  0  0  0  0  0  0  0  0  0  0
    5.4672    2.7082    1.7812 C   0  0  0  0  0  0  0  0  0  0  0  0
    1.7747    0.7076    2.1480 H   0  0  0  0  0  0  0  0  0  0  0  0
    4.1555    0.0334    2.0700 H   0  0  0  0  0  0  0  0  0  0  0  0
    4.0932    0.3559   -2.2343 H   0  0  0  0  0  0  0  0  0  0  0  0
    1.7184    1.0381   -2.1467 H   0  0  0  0  0  0  0  0  0  0  0  0
    6.6989    0.0679   -2.1087 H   0  0  0  0  0  0  0  0  0  0  0  0
    5.5537   -1.2821   -2.0351 H   0  0  0  0  0  0  0  0  0  0  0  0
    8.7449   -1.1894   -2.6497 H   0  0  0  0  0  0  0  0  0  0  0  0
    9.1661   -0.3896   -1.1124 H   0  0  0  0  0  0  0  0  0  0  0  0
    9.5429   -1.1184    1.0316 H   0  0  0  0  0  0  0  0  0  0  0  0
   11.3172   -1.1205    2.7731 H   0  0  0  0  0  0  0  0  0  0  0  0
   13.7777   -3.6323    0.2879 H   0  0  0  0  0  0  0  0  0  0  0  0
   12.0141   -3.5721   -1.4967 H   0  0  0  0  0  0  0  0  0  0  0  0
    4.3346   -2.2591    1.3107 H   0  0  0  0  0  0  0  0  0  0  0  0
    5.8054   -3.2601    1.4074 H   0  0  0  0  0  0  0  0  0  0  0  0
    5.0748   -2.8854   -0.1877 H   0  0  0  0  0  0  0  0  0  0  0  0
    7.6729    0.7670    0.2739 H   0  0  0  0  0  0  0  0  0  0  0  0
    6.4545    1.8071   -0.4970 H   0  0  0  0  0  0  0  0  0  0  0  0
    7.1984    0.1960    2.8883 H   0  0  0  0  0  0  0  0  0  0  0  0
    4.7998    3.5505    3.7218 H   0  0  0  0  0  0  0  0  0  0  0  0
    5.0618    3.2980    0.9634 H   0  0  0  0  0  0  0  0  0  0  0  0
  1  2  1  0
  2  3  2  0
  2  7  1  0
  3  4  1  0
  3 30  1  0
  4  5  2  0
  4 31  1  0
  5  6  1  0
  5  8  1  0
  6  7  2  0
  6 32  1  0
  7 33  1  0
  8  9  1  0
  8 22  1  0
  8 24  1  1
  9 10  1  0
  9 34  1  0
  9 35  1  0
 10 11  1  1
 10 12  1  0
 10 21  1  0
 12 13  1  0
 12 36  1  0
 12 37  1  0
 13 14  1  0
 14 15  2  0
 14 20  1  0
 15 16  1  0
 15 38  1  0
 16 17  2  0
 16 39  1  0
 17 18  1  0
 17 19  1  0
 19 20  2  0
 19 40  1  0
 20 41  1  0
 21 22  1  0
 22 23  1  0
 23 42  1  0
 23 43  1  0
 23 44  1  0
 24 25  1  0
 24 45  1  0
 24 46  1  0
 25 26  1  0
 25 29  1  0
 26 27  2  0
 26 47  1  0
 27 28  1  0
 28 29  2  0
 28 48  1  0
 29 49  1  0
M  END

