
     RDKit          3D

 49 52  0  0  0  0  0  0  0  0999 V2000
   -0.0521   -0.3384    0.1375 Cl  0  0  0  0  0  0  0  0  0  0  0  0
    1.6886   -0.2233    0.0863 C   0  0  0  0  0  0  0  0  0  0  0  0
    2.4317   -0.4072    1.2513 C   0  0  0  0  0  0  0  0  0  0  0  0
    3.8252   -0.3127    1.2014 C   0  0  0  0  0  0  0  0  0  0  0  0
    4.4991   -0.0227    0.0060 C   0  0  0  0  0  0  0  0  0  0  0  0
    3.7211    0.1519   -1.1543 C   0  0  0  0  0  0  0  0  0  0  0  0
    2.3321    0.0512   -1.1238 C   0  0  0  0  0  0  0  0  0  0  0  0
    6.0246    0.0336   -0.1046 C   0  0  2  0  0  0  0  0  0  0  0  0
    6.5050    1.2924   -0.8840 C   0  0  0  0  0  0  0  0  0  0  0  0
    7.0876    0.7291   -2.1980 C   0  0  1  0  0  0  0  0  0  0  0  0
    6.7484    1.2814   -3.0867 H   0  0  0  0  0  0  0  0  0  0  0  0
    8.6062    0.6667   -2.1954 C   0  0  0  0  0  0  0  0  0  0  0  0
    9.0390    0.3400   -3.4984 O   0  0  0  0  0  0  0  0  0  0  0  0
   10.3290   -0.0431   -3.6855 C   0  0  0  0  0  0  0  0  0  0  0  0
   11.2565   -0.2448   -2.6515 C   0  0  0  0  0  0  0  0  0  0  0  0
   12.5598   -0.6487   -2.9603 C   0  0  0  0  0  0  0  0  0  0  0  0
   12.9395   -0.8455   -4.2866 C   0  0  0  0  0  0  0  0  0  0  0  0
   14.5749   -1.3474   -4.6639 Cl  0  0  0  0  0  0  0  0  0  0  0  0
   12.0195   -0.6454   -5.3219 C   0  0  0  0  0  0  0  0  0  0  0  0
   10.7222   -0.2455   -5.0191 C   0  0  0  0  0  0  0  0  0  0  0  0
    6.5142   -0.5671   -2.3013 O   0  0  0  0  0  0  0  0  0  0  0  0
    6.5782   -1.0638   -0.9534 N   0  0  0  0  0  0  0  0  0  0  0  0
    5.9198   -2.3498   -0.9429 C   0  0  0  0  0  0  0  0  0  0  0  0
    6.6996   -0.0902    1.2838 C   0  0  0  0  0  0  0  0  0  0  0  0
    8.1362    0.0946    1.2696 N   0  0  0  0  0  0  0  0  0  0  0  0
    9.0833   -0.8024    0.8506 C   0  0  0  0  0  0  0  0  0  0  0  0
   10.2932   -0.2843    0.8715 N   0  0  0  0  0  0  0  0  0  0  0  0
   10.1397    1.0047    1.3236 C   0  0  0  0  0  0  0  0  0  0  0  0
    8.8116    1.2633    1.5784 C   0  0  0  0  0  0  0  0  0  0  0  0
    1.9230   -0.6239    2.1916 H   0  0  0  0  0  0  0  0  0  0  0  0
    4.3717   -0.4723    2.1308 H   0  0  0  0  0  0  0  0  0  0  0  0
    4.2134    0.3438   -2.1076 H   0  0  0  0  0  0  0  0  0  0  0  0
    1.7443    0.1847   -2.0329 H   0  0  0  0  0  0  0  0  0  0  0  0
    7.2601    1.8554   -0.3227 H   0  0  0  0  0  0  0  0  0  0  0  0
    5.6633    1.9665   -1.0770 H   0  0  0  0  0  0  0  0  0  0  0  0
    9.0355    1.6360   -1.8797 H   0  0  0  0  0  0  0  0  0  0  0  0
    8.9189   -0.0959   -1.4700 H   0  0  0  0  0  0  0  0  0  0  0  0
   10.9903   -0.1181   -1.6016 H   0  0  0  0  0  0  0  0  0  0  0  0
   13.2807   -0.8122   -2.1579 H   0  0  0  0  0  0  0  0  0  0  0  0
   12.3249   -0.8032   -6.3573 H   0  0  0  0  0  0  0  0  0  0  0  0
    9.9853   -0.0833   -5.8078 H   0  0  0  0  0  0  0  0  0  0  0  0
    5.8867   -2.7178    0.0932 H   0  0  0  0  0  0  0  0  0  0  0  0
    6.5165   -3.0513   -1.5430 H   0  0  0  0  0  0  0  0  0  0  0  0
    4.8890   -2.3205   -1.3404 H   0  0  0  0  0  0  0  0  0  0  0  0
    6.2742    0.6576    1.9658 H   0  0  0  0  0  0  0  0  0  0  0  0
    6.4806   -1.0801    1.7090 H   0  0  0  0  0  0  0  0  0  0  0  0
    8.8172   -1.8055    0.5247 H   0  0  0  0  0  0  0  0  0  0  0  0
   10.9891    1.6747    1.4493 H   0  0  0  0  0  0  0  0  0  0  0  0
    8.2952    2.1391    1.9633 H   0  0  0  0  0  0  0  0  0  0  0  0
  1  2  1  0
  2  3  2  0
  2  7  1  0
  3  4  1  0
  3 30  1  0
  4  5  2  0
  4 31  1  0
  5  6  1  0
  5  8  1  0
  6  7  2  0
  6 32  1  0
  7 33  1  0
  8  9  1  0
  8 22  1  0
  8 24  1  1
  9 10  1  0
  9 34  1  0
  9 35  1  0
 10 11  1  6
 10 12  1  0
 10 21  1  0
 12 13  1  0
 12 36  1  0
 12 37  1  0
 13 14  1  0
 14 15  2  0
 14 20  1  0
 15 16  1  0
 15 38  1  0
 16 17  2  0
 16 39  1  0
 17 18  1  0
 17 19  1  0
 19 20  2  0
 19 40  1  0
 20 41  1  0
 21 22  1  0
 22 23  1  0
 23 42  1  0
 23 43  1  0
 23 44  1  0
 24 25  1  0
 24 45  1  0
 24 46  1  0
 25 26  1  0
 25 29  1  0
 26 27  2  0
 26 47  1  0
 27 28  1  0
 28 29  2  0
 28 48  1  0
 29 49  1  0
M  END

