49

Cl        -0.07820       -0.19050        0.27800
C          1.66080       -0.10420        0.16180
C          2.44640       -0.37700        1.28050
C          3.83850       -0.30570        1.17850
C          4.46970        0.04690       -0.02330
C          3.64880        0.31450       -1.13550
C          2.26050        0.23800       -1.05350
C          5.99140        0.09210       -0.18990
C          6.45270        1.41120       -0.87390
C          6.92570        0.96940       -2.27420
H          6.50140        1.58350       -3.08260
C          8.44690        0.97520       -2.40760
O          8.85600        0.59540       -3.70680
C          9.15370       -0.69950       -3.99650
C          9.61380       -0.94230       -5.30030
C          9.96200       -2.22900       -5.70220
C          9.85610       -3.28810       -4.79570
Cl        10.29320       -4.90960       -5.29270
C          9.40010       -3.05760       -3.49770
C          9.04460       -1.76800       -3.09550
O          6.36160       -0.32160       -2.44830
N          6.49690       -0.93110       -1.15260
C          5.82950       -2.21190       -1.21700
C          6.71470       -0.14900        1.15720
N          8.15660       -0.06620        1.09000
C          8.92920        1.02600        1.40520
N         10.20420        0.80990        1.18070
C         10.28170       -0.47680        0.70270
C          9.02560       -1.04010        0.63910
H          1.97190       -0.64390        2.22570
H          4.41780       -0.53280        2.07310
H          4.10510        0.56230       -2.09370
H          1.63930        0.44300       -1.92640
H          7.26840        1.89050       -0.31830
H          5.62360        2.12530       -0.92940
H          8.80260        2.00770       -2.26410
H          8.91600        0.35280       -1.63150
H          9.69320       -0.09910       -5.98860
H         10.31930       -2.41580       -6.71600
H          9.31590       -3.89190       -2.79930
H          8.66420       -1.60840       -2.08900
H          5.85010       -2.66630       -0.21550
H          6.38690       -2.85980       -1.90840
H          4.77970       -2.14400       -1.55370
H          6.36780        0.59380        1.88860
H          6.44460       -1.14010        1.54860
H          8.49170        1.93770        1.81430
H         11.23210       -0.93320        0.42970
H          8.67450       -2.01600        0.32110
