49
rmsd58.gzmat
Cl         0.00000        0.00000        0.00000
C          1.70850        0.00000        0.00000
C          2.37770        0.00000        1.21420
C          3.77340       -0.01150        1.20890
C          4.47840       -0.01840        0.00530
C          3.76810       -0.01170       -1.20450
C          2.37850       -0.00380       -1.21760
C          5.99030       -0.06240       -0.06780
C          6.51630        1.07900       -0.98500
C          7.18260        0.33120       -2.15340
H          6.85350        0.67710       -3.15900
C          8.70990        0.30170       -2.04550
O          9.15670        0.44320       -3.39580
C         10.44750        0.10970       -3.65320
C         11.40120       -0.24240       -2.69570
C         12.69230       -0.55370       -3.11760
C         12.98640       -0.49590       -4.47260
Cl        14.57610       -0.87640       -4.98530
C         12.04510       -0.14170       -5.43520
C         10.75620        0.16600       -5.02390
O          6.67660       -1.00520       -2.08610
N          6.52910       -1.31400       -0.70480
C          5.64540       -2.49050       -0.67920
C          6.64140       -0.00380        1.35240
N          8.09020        0.06760        1.31480
C          8.96740       -0.95240        0.94840
N         10.22530       -0.48050        0.91770
C         10.16850        0.86420        1.25350
C          8.84420        1.22870        1.49620
H          1.83260        0.00620        2.15910
H          4.28650       -0.01760        2.16940
H          4.31300       -0.02430       -2.15330
H          1.83480       -0.00340       -2.16320
H          7.21890        1.74650       -0.45980
H          5.70280        1.73760       -1.33270
H          9.13030        1.13510       -1.45750
H          9.04750       -0.66680       -1.62150
H         11.16270       -0.28410       -1.63180
H         13.45020       -0.83840       -2.38530
H         12.30850       -0.10740       -6.49280
H          9.98480        0.44380       -5.73810
H          5.35420       -2.71000        0.35940
H          6.22390       -3.35090       -1.06820
H          4.73350       -2.39940       -1.29080
H          6.24430        0.88460        1.89800
H          6.34370       -0.91550        1.92630
H          8.65410       -1.95890        0.71860
H         11.06130        1.45660        1.30370
H          8.41890        2.16200        1.78960
