
     RDKit          3D

 49 52  0  0  0  0  0  0  0  0999 V2000
   -0.1090    0.0957   -0.2429 Cl  0  0  0  0  0  0  0  0  0  0  0  0
    1.6329    0.0346   -0.1572 C   0  0  0  0  0  0  0  0  0  0  0  0
    2.2614   -0.1903    1.0708 C   0  0  0  0  0  0  0  0  0  0  0  0
    3.6519   -0.2479    1.1292 C   0  0  0  0  0  0  0  0  0  0  0  0
    4.4466   -0.0773   -0.0204 C   0  0  0  0  0  0  0  0  0  0  0  0
    3.7865    0.1602   -1.2351 C   0  0  0  0  0  0  0  0  0  0  0  0
    2.3922    0.2110   -1.3129 C   0  0  0  0  0  0  0  0  0  0  0  0
    5.9717   -0.0891    0.1149 C   0  0  2  0  0  0  0  0  0  0  0  0
    6.4680   -1.3125    0.9383 C   0  0  0  0  0  0  0  0  0  0  0  0
    6.9468   -0.7042    2.2733 C   0  0  1  0  0  0  0  0  0  0  0  0
    6.5347   -1.2240    3.1514 H   0  0  0  0  0  0  0  0  0  0  0  0
    8.4685   -0.6768    2.4018 C   0  0  0  0  0  0  0  0  0  0  0  0
    8.8697   -0.1498    3.6505 O   0  0  0  0  0  0  0  0  0  0  0  0
    9.1279    1.1780    3.8017 C   0  0  0  0  0  0  0  0  0  0  0  0
    9.0323    2.1354    2.7827 C   0  0  0  0  0  0  0  0  0  0  0  0
    9.3458    3.4701    3.0491 C   0  0  0  0  0  0  0  0  0  0  0  0
    9.7455    3.8557    4.3287 C   0  0  0  0  0  0  0  0  0  0  0  0
   10.1289    5.5331    4.6559 Cl  0  0  0  0  0  0  0  0  0  0  0  0
    9.8388    2.9078    5.3521 C   0  0  0  0  0  0  0  0  0  0  0  0
    9.5326    1.5760    5.0852 C   0  0  0  0  0  0  0  0  0  0  0  0
    6.3701    0.5923    2.3003 O   0  0  0  0  0  0  0  0  0  0  0  0
    6.4840    1.0453    0.9406 N   0  0  0  0  0  0  0  0  0  0  0  0
    5.8040    2.3192    0.8654 C   0  0  0  0  0  0  0  0  0  0  0  0
    6.6630    0.0069   -1.2666 C   0  0  0  0  0  0  0  0  0  0  0  0
    8.1060   -0.0807   -1.2198 N   0  0  0  0  0  0  0  0  0  0  0  0
    8.9784    0.9207   -0.8797 C   0  0  0  0  0  0  0  0  0  0  0  0
   10.2233    0.5009   -0.8484 N   0  0  0  0  0  0  0  0  0  0  0  0
   10.1744   -0.8314   -1.1819 C   0  0  0  0  0  0  0  0  0  0  0  0
    8.8730   -1.2162   -1.4186 C   0  0  0  0  0  0  0  0  0  0  0  0
    1.6608   -0.3192    1.9722 H   0  0  0  0  0  0  0  0  0  0  0  0
    4.1296   -0.4025    2.0963 H   0  0  0  0  0  0  0  0  0  0  0  0
    4.3450    0.3112   -2.1587 H   0  0  0  0  0  0  0  0  0  0  0  0
    1.8953    0.3878   -2.2677 H   0  0  0  0  0  0  0  0  0  0  0  0
    7.2888   -1.8340    0.4311 H   0  0  0  0  0  0  0  0  0  0  0  0
    5.6552   -2.0324    1.0853 H   0  0  0  0  0  0  0  0  0  0  0  0
    8.8357   -1.7150    2.3766 H   0  0  0  0  0  0  0  0  0  0  0  0
    8.9344   -0.1416    1.5616 H   0  0  0  0  0  0  0  0  0  0  0  0
    8.6975    1.8565    1.7863 H   0  0  0  0  0  0  0  0  0  0  0  0
    9.2755    4.2172    2.2570 H   0  0  0  0  0  0  0  0  0  0  0  0
   10.1525    3.2156    6.3505 H   0  0  0  0  0  0  0  0  0  0  0  0
    9.6025    0.8172    5.8665 H   0  0  0  0  0  0  0  0  0  0  0  0
    5.8072    2.6559   -0.1818 H   0  0  0  0  0  0  0  0  0  0  0  0
    6.3637    3.0469    1.4698 H   0  0  0  0  0  0  0  0  0  0  0  0
    4.7595    2.2802    1.2227 H   0  0  0  0  0  0  0  0  0  0  0  0
    6.2932   -0.7977   -1.9160 H   0  0  0  0  0  0  0  0  0  0  0  0
    6.3929    0.9592   -1.7446 H   0  0  0  0  0  0  0  0  0  0  0  0
    8.6338    1.9313   -0.6701 H   0  0  0  0  0  0  0  0  0  0  0  0
   11.0745   -1.4416   -1.2441 H   0  0  0  0  0  0  0  0  0  0  0  0
    8.4309   -2.1603   -1.7270 H   0  0  0  0  0  0  0  0  0  0  0  0
  1  2  1  0
  2  3  2  0
  2  7  1  0
  3  4  1  0
  3 30  1  0
  4  5  2  0
  4 31  1  0
  5  6  1  0
  5  8  1  0
  6  7  2  0
  6 32  1  0
  7 33  1  0
  8  9  1  0
  8 22  1  0
  8 24  1  6
  9 10  1  0
  9 34  1  0
  9 35  1  0
 10 11  1  1
 10 12  1  0
 10 21  1  0
 12 13  1  0
 12 36  1  0
 12 37  1  0
 13 14  1  0
 14 15  2  0
 14 20  1  0
 15 16  1  0
 15 38  1  0
 16 17  2  0
 16 39  1  0
 17 18  1  0
 17 19  1  0
 19 20  2  0
 19 40  1  0
 20 41  1  0
 21 22  1  0
 22 23  1  0
 23 42  1  0
 23 43  1  0
 23 44  1  0
 24 25  1  0
 24 45  1  0
 24 46  1  0
 25 26  1  0
 25 29  1  0
 26 27  2  0
 26 47  1  0
 27 28  1  0
 28 29  2  0
 28 48  1  0
 29 49  1  0
M  END

