rmsd23.gzmat
 OpenBabel08211713393D

 49 52  0  0  1  0  0  0  0  0999 V2000
    0.0000    0.0000    0.0000 Cl  0  0  0  0  0  0  0  0  0  0  0  0
    1.7084    0.0000    0.0000 C   0  0  0  0  0  0  0  0  0  0  0  0
    2.3784    0.0000    1.2177 C   0  0  0  0  0  0  0  0  0  0  0  0
    3.7685    0.0064    1.2046 C   0  0  0  0  0  0  0  0  0  0  0  0
    4.4780    0.0152   -0.0053 C   0  0  0  0  0  0  0  0  0  0  0  0
    3.7733    0.0104   -1.2085 C   0  0  0  0  0  0  0  0  0  0  0  0
    2.3775    0.0017   -1.2141 C   0  0  0  0  0  0  0  0  0  0  0  0
    5.9911    0.0394    0.0674 C   0  0  2  0  0  0  0  0  0  0  0  0
    6.4917   -1.1605    0.9217 C   0  0  0  0  0  0  0  0  0  0  0  0
    7.0956   -0.4975    2.1701 C   0  0  1  0  0  0  0  0  0  0  0  0
    6.6712   -0.8753    3.1271 H   0  0  0  0  0  0  0  0  0  0  0  0
    8.6253   -0.5556    2.1903 C   0  0  0  0  0  0  0  0  0  0  0  0
    9.0905   -0.4933    3.5299 O   0  0  0  0  0  0  0  0  0  0  0  0
    9.0627    0.7035    4.1749 C   0  0  0  0  0  0  0  0  0  0  0  0
    8.8225    1.9446    3.5840 C   0  0  0  0  0  0  0  0  0  0  0  0
    8.8327    3.0841    4.3846 C   0  0  0  0  0  0  0  0  0  0  0  0
    9.0948    2.9460    5.7404 C   0  0  0  0  0  0  0  0  0  0  0  0
    9.0996    4.3497    6.7219 Cl  0  0  0  0  0  0  0  0  0  0  0  0
    9.3521    1.7163    6.3387 C   0  0  0  0  0  0  0  0  0  0  0  0
    9.3358    0.5756    5.5480 C   0  0  0  0  0  0  0  0  0  0  0  0
    6.6555    0.8624    2.1417 O   0  0  0  0  0  0  0  0  0  0  0  0
    6.5486    1.2416    0.7747 N   0  0  0  0  0  0  0  0  0  0  0  0
    5.6920    2.4396    0.7910 C   0  0  0  0  0  0  0  0  0  0  0  0
    6.6364    0.0488   -1.3552 C   0  0  0  0  0  0  0  0  0  0  0  0
    8.0810   -0.0724   -1.3331 N   0  0  0  0  0  0  0  0  0  0  0  0
    8.8151   -1.2370   -1.5805 C   0  0  0  0  0  0  0  0  0  0  0  0
   10.1197   -1.0008   -1.3769 N   0  0  0  0  0  0  0  0  0  0  0  0
   10.2420    0.3224   -0.9806 C   0  0  0  0  0  0  0  0  0  0  0  0
    8.9786    0.9158   -0.9401 C   0  0  0  0  0  0  0  0  0  0  0  0
    1.8344   -0.0028    2.1633 H   0  0  0  0  0  0  0  0  0  0  0  0
    4.3143    0.0132    2.1530 H   0  0  0  0  0  0  0  0  0  0  0  0
    4.2858    0.0120   -2.1695 H   0  0  0  0  0  0  0  0  0  0  0  0
    1.8338   -0.0033   -2.1594 H   0  0  0  0  0  0  0  0  0  0  0  0
    7.2279   -1.7781    0.3819 H   0  0  0  0  0  0  0  0  0  0  0  0
    5.6704   -1.8499    1.1810 H   0  0  0  0  0  0  0  0  0  0  0  0
    9.0225   -1.5415    1.8752 H   0  0  0  0  0  0  0  0  0  0  0  0
    9.0829    0.2301    1.5609 H   0  0  0  0  0  0  0  0  0  0  0  0
    8.6134    2.0324    2.5179 H   0  0  0  0  0  0  0  0  0  0  0  0
    8.6345    4.0615    3.9447 H   0  0  0  0  0  0  0  0  0  0  0  0
    9.5595    1.6423    7.4066 H   0  0  0  0  0  0  0  0  0  0  0  0
    9.5272   -0.4085    5.9696 H   0  0  0  0  0  0  0  0  0  0  0  0
    5.3394    2.6644   -0.2266 H   0  0  0  0  0  0  0  0  0  0  0  0
    6.3127    3.2866    1.1411 H   0  0  0  0  0  0  0  0  0  0  0  0
    4.8170    2.3704    1.4580 H   0  0  0  0  0  0  0  0  0  0  0  0
    6.2132   -0.7938   -1.9524 H   0  0  0  0  0  0  0  0  0  0  0  0
    6.3610    1.0015   -1.8713 H   0  0  0  0  0  0  0  0  0  0  0  0
    8.3830   -2.1616   -1.9133 H   0  0  0  0  0  0  0  0  0  0  0  0
   11.2029    0.7455   -0.7634 H   0  0  0  0  0  0  0  0  0  0  0  0
    8.6672    1.9019   -0.6587 H   0  0  0  0  0  0  0  0  0  0  0  0
  1  2  1  0  0  0  0
  2  3  2  0  0  0  0
  3 30  1  0  0  0  0
  4  3  1  0  0  0  0
  4 31  1  0  0  0  0
  5  8  1  0  0  0  0
  5  4  2  0  0  0  0
  6  5  1  0  0  0  0
  7  6  2  0  0  0  0
  7  2  1  0  0  0  0
  8 24  1  6  0  0  0
  8 22  1  0  0  0  0
  8  9  1  0  0  0  0
  9 35  1  0  0  0  0
  9 10  1  0  0  0  0
 10 12  1  0  0  0  0
 10 11  1  1  0  0  0
 12 13  1  0  0  0  0
 13 14  1  0  0  0  0
 14 20  1  0  0  0  0
 15 14  2  0  0  0  0
 15 16  1  0  0  0  0
 16 17  2  0  0  0  0
 17 19  1  0  0  0  0
 17 18  1  0  0  0  0
 19 40  1  0  0  0  0
 20 41  1  0  0  0  0
 20 19  2  0  0  0  0
 21 10  1  0  0  0  0
 22 23  1  0  0  0  0
 22 21  1  0  0  0  0
 23 43  1  0  0  0  0
 23 44  1  0  0  0  0
 24 25  1  0  0  0  0
 25 29  1  0  0  0  0
 26 27  2  0  0  0  0
 26 25  1  0  0  0  0
 27 28  2  0  0  0  0
 28 29  1  0  0  0  0
 28 48  1  0  0  0  0
 29 49  1  0  0  0  0
 32  6  1  0  0  0  0
 33  7  1  0  0  0  0
 34  9  1  0  0  0  0
 36 12  1  0  0  0  0
 37 12  1  0  0  0  0
 38 15  1  0  0  0  0
 39 16  1  0  0  0  0
 42 23  1  0  0  0  0
 45 24  1  0  0  0  0
 46 24  1  0  0  0  0
 47 26  1  0  0  0  0
M  RAD  1  29   2
M  END
$$$$
