49
rmsd60.gzmat
Cl         0.00000        0.00000        0.00000
C          1.70850        0.00000        0.00000
C          2.37770        0.00000        1.21820
C          3.76780       -0.00410        1.20560
C          4.47760       -0.00660       -0.00420
C          3.77360       -0.00090       -1.20800
C          2.37820       -0.00080       -1.21410
C          5.99070       -0.00490        0.06740
C          6.47360       -1.18420        0.95860
C          7.05340       -0.49450        2.20210
H          6.56880       -0.80420        3.15530
C          8.57450       -0.64410        2.29540
O          9.00120       -0.20810        3.57710
C          9.15710        1.12800        3.78660
C          9.18260        2.11050        2.79520
C          9.39590        3.43550        3.16490
C          9.57470        3.73170        4.50960
Cl         9.83210        5.36530        4.96090
C          9.55440        2.76240        5.50680
C          9.34230        1.43860        5.14410
O          6.70190        0.88640        2.10580
N          6.57240        1.21140        0.72780
C          5.72790        2.41870        0.71700
C          6.63560       -0.05800       -1.35520
N          8.08270       -0.13860       -1.32030
C          8.96340        0.87900       -0.95500
N         10.22210        0.41040       -0.95300
C         10.16280       -0.93040       -1.30370
C          8.83510       -1.29590       -1.52880
H          1.83290        0.00290        2.16330
H          4.31230        0.00320        2.15430
H          4.28710        0.00380       -2.16850
H          1.83480       -0.00230       -2.15980
H          7.22470       -1.80800        0.44450
H          5.65040       -1.87210        1.21380
H          8.89050       -1.70530        2.30540
H          9.10580       -0.11770        1.48130
H          9.02840        1.85610        1.74620
H          9.42300        4.21690        2.40510
H          9.70250        3.02930        6.55340
H          9.32000        0.64500        5.88660
H          5.43920        2.65920       -0.31740
H          6.33450        3.25490        1.11630
H          4.81540        2.35040        1.33150
H          6.23010       -0.93840       -1.90690
H          6.34370        0.86090       -1.92160
H          8.65020        1.88110       -0.70880
H         11.05640       -1.51850       -1.37470
H          8.40770       -2.22690       -1.82600
