rmsd5.gzmat
 OpenBabel08211713393D

 39 40  0  0  1  0  0  0  0  0999 V2000
    0.0000    0.0000    0.0000 S   0  0  0  0  0  0  0  0  0  0  0  0
    1.4460    0.0000    0.0000 O   0  0  0  0  0  0  0  0  0  0  0  0
   -0.7645    0.0000   -1.2235 O   0  0  0  0  0  0  0  0  0  0  0  0
   -0.4886    1.5431    0.7202 N   0  0  0  0  0  0  0  0  0  0  0  0
   -0.1293    1.9226    2.0046 C   0  0  0  0  0  0  0  0  0  0  0  0
    0.5247    1.1654    2.6954 O   0  0  0  0  0  0  0  0  0  0  0  0
   -0.6073    3.2704    2.4924 C   0  0  0  0  0  0  0  0  0  0  0  0
   -2.0769    3.1762    2.8901 C   0  0  0  0  0  0  0  0  0  0  0  0
   -0.5948   -1.1771    1.0992 C   0  0  1  0  0  0  0  0  0  0  0  0
    0.1329   -1.6500    2.2232 C   0  0  0  0  0  0  0  0  0  0  0  0
    1.4655   -1.3797    2.3674 N   0  0  0  0  0  0  0  0  0  0  0  0
    2.1567   -1.6294    3.5905 C   0  0  0  0  0  0  0  0  0  0  0  0
    2.4744   -2.9442    3.9494 C   0  0  0  0  0  0  0  0  0  0  0  0
    3.1857   -3.1602    5.1259 C   0  0  0  0  0  0  0  0  0  0  0  0
    3.5948   -2.0907    5.9236 C   0  0  0  0  0  0  0  0  0  0  0  0
    3.2817   -0.7856    5.5463 C   0  0  0  0  0  0  0  0  0  0  0  0
    2.5594   -0.5464    4.3822 C   0  0  0  0  0  0  0  0  0  0  0  0
    3.5474   -4.5533    5.5566 C   0  0  0  0  0  0  0  0  0  0  0  0
    4.8502   -4.8183    5.4502 F   0  0  0  0  0  0  0  0  0  0  0  0
    3.2569   -4.8130    6.8330 F   0  0  0  0  0  0  0  0  0  0  0  0
    2.9529   -5.5380    4.8850 F   0  0  0  0  0  0  0  0  0  0  0  0
   -0.5577   -2.4797    3.1550 C   0  0  0  0  0  0  0  0  0  0  0  0
   -1.8592   -2.8544    2.8900 C   0  0  0  0  0  0  0  0  0  0  0  0
   -2.5294   -2.4682    1.7678 N   0  0  0  0  0  0  0  0  0  0  0  0
   -1.9085   -1.6585    0.9108 C   0  0  0  0  0  0  0  0  0  0  0  0
   -1.0144    2.1898    0.1371 H   0  0  0  0  0  0  0  0  0  0  0  0
   -0.4484    4.0574    1.7305 H   0  0  0  0  0  0  0  0  0  0  0  0
    0.0089    3.5728    3.3682 H   0  0  0  0  0  0  0  0  0  0  0  0
   -2.7210    2.9162    2.0413 H   0  0  0  0  0  0  0  0  0  0  0  0
   -2.4391    4.1287    3.2965 H   0  0  0  0  0  0  0  0  0  0  0  0
   -2.2355    2.4144    3.6670 H   0  0  0  0  0  0  0  0  0  0  0  0
    1.9143   -0.6859    1.7400 H   0  0  0  0  0  0  0  0  0  0  0  0
    2.1686   -3.7643    3.2952 H   0  0  0  0  0  0  0  0  0  0  0  0
    4.1608   -2.2629    6.8413 H   0  0  0  0  0  0  0  0  0  0  0  0
    3.6005    0.0514    6.1683 H   0  0  0  0  0  0  0  0  0  0  0  0
    2.2937    0.4739    4.0848 H   0  0  0  0  0  0  0  0  0  0  0  0
   -0.0681   -2.8032    4.0677 H   0  0  0  0  0  0  0  0  0  0  0  0
   -2.4329   -3.4952    3.5724 H   0  0  0  0  0  0  0  0  0  0  0  0
   -2.5027   -1.3786    0.0193 H   0  0  0  0  0  0  0  0  0  0  0  0
  1  4  1  0  0  0  0
  2  1  2  0  0  0  0
  3  1  2  0  0  0  0
  4  5  1  0  0  0  0
  5  7  1  0  0  0  0
  5  6  2  0  0  0  0
  7  8  1  0  0  0  0
  7 28  1  0  0  0  0
  8 30  1  0  0  0  0
  8 31  1  0  0  0  0
  9  1  1  1  0  0  0
  9 10  1  0  0  0  0
 10 11  1  0  0  0  0
 10 22  2  0  0  0  0
 11 12  1  0  0  0  0
 12 13  2  0  0  0  0
 12 17  1  0  0  0  0
 13 14  1  0  0  0  0
 14 18  1  0  0  0  0
 14 15  2  0  0  0  0
 15 34  1  0  0  0  0
 16 15  1  0  0  0  0
 16 35  1  0  0  0  0
 17 16  2  0  0  0  0
 18 20  1  0  0  0  0
 19 18  1  0  0  0  0
 21 18  1  0  0  0  0
 22 37  1  0  0  0  0
 23 22  1  0  0  0  0
 23 38  1  0  0  0  0
 24 23  2  0  0  0  0
 25  9  1  0  0  0  0
 25 24  2  0  0  0  0
 26  4  1  0  0  0  0
 27  7  1  0  0  0  0
 29  8  1  0  0  0  0
 32 11  1  0  0  0  0
 33 13  1  0  0  0  0
 36 17  1  0  0  0  0
 39 25  1  0  0  0  0
M  RAD  1   9   2
M  END
$$$$
