rmsd219.gzmat
 OpenBabel08211713393D

 39 40  0  0  1  0  0  0  0  0999 V2000
    0.0000    0.0000    0.0000 S   0  0  0  0  0  0  0  0  0  0  0  0
    1.4429    0.0000    0.0000 O   0  0  0  0  0  0  0  0  0  0  0  0
   -0.7701    0.0000   -1.2229 O   0  0  0  0  0  0  0  0  0  0  0  0
   -0.3468    1.5511    0.7825 N   0  0  0  0  0  0  0  0  0  0  0  0
   -1.6294    1.9674    1.1054 C   0  0  0  0  0  0  0  0  0  0  0  0
   -2.5707    1.2211    0.9172 O   0  0  0  0  0  0  0  0  0  0  0  0
   -1.7845    3.3474    1.7020 C   0  0  0  0  0  0  0  0  0  0  0  0
   -1.3437    3.3355    3.1615 C   0  0  0  0  0  0  0  0  0  0  0  0
   -0.6094   -1.1831    1.0845 C   0  0  2  0  0  0  0  0  0  0  0  0
   -1.9445   -1.6665    1.0667 C   0  0  0  0  0  0  0  0  0  0  0  0
   -2.7925   -1.3603    0.0389 N   0  0  0  0  0  0  0  0  0  0  0  0
   -4.1855   -1.6585    0.0955 C   0  0  0  0  0  0  0  0  0  0  0  0
   -4.6171   -2.9830   -0.0213 C   0  0  0  0  0  0  0  0  0  0  0  0
   -5.9857   -3.2469   -0.0018 C   0  0  0  0  0  0  0  0  0  0  0  0
   -6.9124   -2.2136    0.1153 C   0  0  0  0  0  0  0  0  0  0  0  0
   -6.4665   -0.8945    0.2129 C   0  0  0  0  0  0  0  0  0  0  0  0
   -5.1065   -0.6080    0.2078 C   0  0  0  0  0  0  0  0  0  0  0  0
   -6.4217   -4.6806   -0.1101 C   0  0  0  0  0  0  0  0  0  0  0  0
   -7.7376   -4.8879   -0.1009 F   0  0  0  0  0  0  0  0  0  0  0  0
   -6.0029   -5.2850   -1.2225 F   0  0  0  0  0  0  0  0  0  0  0  0
   -5.9629   -5.4480    0.8807 F   0  0  0  0  0  0  0  0  0  0  0  0
   -2.3460   -2.5369    2.1222 C   0  0  0  0  0  0  0  0  0  0  0  0
   -1.4170   -2.9308    3.0638 C   0  0  0  0  0  0  0  0  0  0  0  0
   -0.1164   -2.5250    3.0382 N   0  0  0  0  0  0  0  0  0  0  0  0
    0.2613   -1.6813    2.0783 C   0  0  0  0  0  0  0  0  0  0  0  0
    0.4334    2.1900    0.9197 H   0  0  0  0  0  0  0  0  0  0  0  0
   -2.8529    3.6492    1.6264 H   0  0  0  0  0  0  0  0  0  0  0  0
   -1.2200    4.1022    1.1206 H   0  0  0  0  0  0  0  0  0  0  0  0
   -1.9393    2.6277    3.7553 H   0  0  0  0  0  0  0  0  0  0  0  0
   -1.4676    4.3243    3.6211 H   0  0  0  0  0  0  0  0  0  0  0  0
   -0.2899    3.0529    3.2752 H   0  0  0  0  0  0  0  0  0  0  0  0
   -2.5242   -0.6217   -0.6376 H   0  0  0  0  0  0  0  0  0  0  0  0
   -3.8822   -3.7851   -0.1317 H   0  0  0  0  0  0  0  0  0  0  0  0
   -7.9856   -2.4113    0.1321 H   0  0  0  0  0  0  0  0  0  0  0  0
   -7.1904   -0.0833    0.2986 H   0  0  0  0  0  0  0  0  0  0  0  0
   -4.7474    0.4230    0.3007 H   0  0  0  0  0  0  0  0  0  0  0  0
   -3.3742   -2.8767    2.1923 H   0  0  0  0  0  0  0  0  0  0  0  0
   -1.6749   -3.6032    3.8927 H   0  0  0  0  0  0  0  0  0  0  0  0
    1.3288   -1.3889    2.1088 H   0  0  0  0  0  0  0  0  0  0  0  0
  1  2  2  0  0  0  0
  1  4  1  0  0  0  0
  3  1  2  0  0  0  0
  4 26  1  0  0  0  0
  4  5  1  0  0  0  0
  5  7  1  0  0  0  0
  6  5  2  0  0  0  0
  7  8  1  0  0  0  0
  8 31  1  0  0  0  0
  8 30  1  0  0  0  0
  8 29  1  0  0  0  0
  9  1  1  1  0  0  0
  9 25  1  0  0  0  0
 10  9  1  0  0  0  0
 10 22  2  0  0  0  0
 11 12  1  0  0  0  0
 11 10  1  0  0  0  0
 12 17  2  0  0  0  0
 13 14  2  0  0  0  0
 13 12  1  0  0  0  0
 14 15  1  0  0  0  0
 15 34  1  0  0  0  0
 15 16  2  0  0  0  0
 16 35  1  0  0  0  0
 17 16  1  0  0  0  0
 17 36  1  0  0  0  0
 18 19  1  0  0  0  0
 18 14  1  0  0  0  0
 18 21  1  0  0  0  0
 20 18  1  0  0  0  0
 22 37  1  0  0  0  0
 22 23  1  0  0  0  0
 23 38  1  0  0  0  0
 24 23  2  0  0  0  0
 25 39  1  0  0  0  0
 25 24  2  0  0  0  0
 27  7  1  0  0  0  0
 28  7  1  0  0  0  0
 32 11  1  0  0  0  0
 33 13  1  0  0  0  0
M  RAD  1   9   2
M  END
$$$$
