39
rmsd184.gzmat
S          0.00000        0.00000        0.00000
O          1.44300        0.00000        0.00000
O         -0.76920        0.00000       -1.22380
N         -0.34400        1.56190        0.76380
C         -1.62400        1.98200        1.08540
O         -2.56060        1.21850        0.94340
C         -1.80060        3.39300        1.59750
C         -1.01300        3.63210        2.87950
C         -0.60810       -1.18600        1.08140
C         -1.94030       -1.67650        1.05480
N         -2.79720       -1.35090        0.04100
C         -4.19280       -1.64060        0.12270
C         -4.64080       -2.93790       -0.14060
C         -6.01000       -3.19600       -0.09490
C         -6.91990       -2.18280        0.19750
C         -6.45720       -0.89010        0.44780
C         -5.09600       -0.60980        0.41250
C         -6.46530       -4.59950       -0.37680
F         -7.77400       -4.81790       -0.25990
F         -6.17160       -5.01650       -1.60870
F         -5.90980       -5.50830        0.42680
C         -2.33390       -2.58290        2.08320
C         -1.40370       -2.98840        3.01840
N         -0.10960       -2.56060        3.01150
C          0.26250       -1.69230        2.07150
H          0.43260        2.21130        0.86760
H         -2.88500        3.56760        1.77930
H         -1.51430        4.12120        0.81150
H         -1.24770        2.87920        3.64460
H         -1.25480        4.61200        3.31080
H          0.07070        3.61120        2.71740
H         -2.53750       -0.60280       -0.62670
H         -3.91840       -3.72140       -0.38420
H         -7.99320       -2.37630        0.23480
H         -7.16800       -0.09570        0.67640
H         -4.72330        0.40070        0.61380
H         -3.35580       -2.94460        2.13070
H         -1.65450       -3.68880        3.82560
H          1.32590       -1.38650        2.11420
