rmsd39.gzmat
 OpenBabel08211713393D

 39 40  0  0  1  0  0  0  0  0999 V2000
    0.0000    0.0000    0.0000 S   0  0  0  0  0  0  0  0  0  0  0  0
    1.4427    0.0000    0.0000 O   0  0  0  0  0  0  0  0  0  0  0  0
   -0.7668    0.0000   -1.2257 O   0  0  0  0  0  0  0  0  0  0  0  0
   -0.3520    1.5446    0.7935 N   0  0  0  0  0  0  0  0  0  0  0  0
   -1.6332    1.9339    1.1528 C   0  0  0  0  0  0  0  0  0  0  0  0
   -2.5678    1.1806    0.9592 O   0  0  0  0  0  0  0  0  0  0  0  0
   -1.7968    3.2885    1.8018 C   0  0  0  0  0  0  0  0  0  0  0  0
   -1.2867    3.2381    3.2382 C   0  0  0  0  0  0  0  0  0  0  0  0
   -0.6160   -1.1756    1.0886 C   0  0  2  0  0  0  0  0  0  0  0  0
   -1.9578   -1.6404    1.0762 C   0  0  0  0  0  0  0  0  0  0  0  0
   -2.7891   -1.3675    0.0255 N   0  0  0  0  0  0  0  0  0  0  0  0
   -4.1917   -1.6179    0.0883 C   0  0  0  0  0  0  0  0  0  0  0  0
   -4.6653   -2.9317    0.0278 C   0  0  0  0  0  0  0  0  0  0  0  0
   -6.0421   -3.1498    0.0450 C   0  0  0  0  0  0  0  0  0  0  0  0
   -6.9356   -2.0831    0.1045 C   0  0  0  0  0  0  0  0  0  0  0  0
   -6.4473   -0.7763    0.1541 C   0  0  0  0  0  0  0  0  0  0  0  0
   -5.0786   -0.5350    0.1501 C   0  0  0  0  0  0  0  0  0  0  0  0
   -6.5244   -4.5720   -0.0020 C   0  0  0  0  0  0  0  0  0  0  0  0
   -7.8448   -4.7374    0.0557 F   0  0  0  0  0  0  0  0  0  0  0  0
   -6.1600   -5.2235   -1.1070 F   0  0  0  0  0  0  0  0  0  0  0  0
   -6.0586   -5.3223    0.9984 F   0  0  0  0  0  0  0  0  0  0  0  0
   -2.3810   -2.4631    2.1614 C   0  0  0  0  0  0  0  0  0  0  0  0
   -1.4624   -2.8425    3.1191 C   0  0  0  0  0  0  0  0  0  0  0  0
   -0.1519   -2.4697    3.0800 N   0  0  0  0  0  0  0  0  0  0  0  0
    0.2447   -1.6648    2.0948 C   0  0  0  0  0  0  0  0  0  0  0  0
    0.4230    2.1872    0.9380 H   0  0  0  0  0  0  0  0  0  0  0  0
   -2.8747    3.5646    1.7863 H   0  0  0  0  0  0  0  0  0  0  0  0
   -1.2800    4.0769    1.2212 H   0  0  0  0  0  0  0  0  0  0  0  0
   -1.7959    2.4567    3.8204 H   0  0  0  0  0  0  0  0  0  0  0  0
   -1.4652    4.1896    3.7552 H   0  0  0  0  0  0  0  0  0  0  0  0
   -0.2099    3.0345    3.2882 H   0  0  0  0  0  0  0  0  0  0  0  0
   -2.4962   -0.6715   -0.6864 H   0  0  0  0  0  0  0  0  0  0  0  0
   -3.9566   -3.7610   -0.0399 H   0  0  0  0  0  0  0  0  0  0  0  0
   -8.0148   -2.2446    0.1131 H   0  0  0  0  0  0  0  0  0  0  0  0
   -7.1446    0.0609    0.2016 H   0  0  0  0  0  0  0  0  0  0  0  0
   -4.6870    0.4865    0.2065 H   0  0  0  0  0  0  0  0  0  0  0  0
   -3.4168   -2.7774    2.2397 H   0  0  0  0  0  0  0  0  0  0  0  0
   -1.7367   -3.4770    3.9720 H   0  0  0  0  0  0  0  0  0  0  0  0
    1.3187   -1.3963    2.1150 H   0  0  0  0  0  0  0  0  0  0  0  0
  1  2  2  0  0  0  0
  1  4  1  0  0  0  0
  3  1  2  0  0  0  0
  4 26  1  0  0  0  0
  4  5  1  0  0  0  0
  5  7  1  0  0  0  0
  6  5  2  0  0  0  0
  7  8  1  0  0  0  0
  8 31  1  0  0  0  0
  8 30  1  0  0  0  0
  8 29  1  0  0  0  0
  9  1  1  1  0  0  0
  9 25  1  0  0  0  0
 10  9  1  0  0  0  0
 10 22  2  0  0  0  0
 11 12  1  0  0  0  0
 11 10  1  0  0  0  0
 12 17  2  0  0  0  0
 13 14  2  0  0  0  0
 13 12  1  0  0  0  0
 14 15  1  0  0  0  0
 15 34  1  0  0  0  0
 15 16  2  0  0  0  0
 16 35  1  0  0  0  0
 17 16  1  0  0  0  0
 17 36  1  0  0  0  0
 18 14  1  0  0  0  0
 18 19  1  0  0  0  0
 18 21  1  0  0  0  0
 20 18  1  0  0  0  0
 22 37  1  0  0  0  0
 22 23  1  0  0  0  0
 23 38  1  0  0  0  0
 24 23  2  0  0  0  0
 25 39  1  0  0  0  0
 25 24  2  0  0  0  0
 27  7  1  0  0  0  0
 28  7  1  0  0  0  0
 32 11  1  0  0  0  0
 33 13  1  0  0  0  0
M  RAD  1   9   2
M  END
$$$$
