
     RDKit          3D

 39 40  0  0  0  0  0  0  0  0999 V2000
   -0.0029    0.1231   -0.2162 S   0  0  0  0  0  0  0  0  0  0  0  0
    1.4337    0.0938   -0.4710 O   0  0  0  0  0  0  0  0  0  0  0  0
   -0.9716    0.2917   -1.2975 O   0  0  0  0  0  0  0  0  0  0  0  0
   -0.1500    1.4804    0.8343 N   0  0  0  0  0  0  0  0  0  0  0  0
   -1.3417    2.0243    1.2707 C   0  0  0  0  0  0  0  0  0  0  0  0
   -2.4120    1.4914    1.0512 O   0  0  0  0  0  0  0  0  0  0  0  0
   -1.1904    3.3229    2.0469 C   0  0  0  0  0  0  0  0  0  0  0  0
   -2.5160    3.8402    2.5901 C   0  0  0  0  0  0  0  0  0  0  0  0
   -0.4615   -1.2705    0.7758 C   0  0  0  0  0  0  0  0  0  0  0  0
   -1.7932   -1.7753    0.8602 C   0  0  0  0  0  0  0  0  0  0  0  0
   -2.8210   -1.2391    0.1499 N   0  0  0  0  0  0  0  0  0  0  0  0
   -4.1875   -1.5604    0.2558 C   0  0  0  0  0  0  0  0  0  0  0  0
   -4.6534   -2.8717    0.1039 C   0  0  0  0  0  0  0  0  0  0  0  0
   -6.0219   -3.1385    0.2040 C   0  0  0  0  0  0  0  0  0  0  0  0
   -6.9374   -2.1045    0.4162 C   0  0  0  0  0  0  0  0  0  0  0  0
   -6.4696   -0.7932    0.5368 C   0  0  0  0  0  0  0  0  0  0  0  0
   -5.1051   -0.5178    0.4694 C   0  0  0  0  0  0  0  0  0  0  0  0
   -6.4870   -4.5693    0.1135 C   0  0  0  0  0  0  0  0  0  0  0  0
   -7.7960   -4.6605   -0.1701 F   0  0  0  0  0  0  0  0  0  0  0  0
   -5.8168   -5.2518   -0.8323 F   0  0  0  0  0  0  0  0  0  0  0  0
   -6.2864   -5.2213    1.2768 F   0  0  0  0  0  0  0  0  0  0  0  0
   -1.9509   -2.8624    1.7560 C   0  0  0  0  0  0  0  0  0  0  0  0
   -0.8562   -3.3639    2.4418 C   0  0  0  0  0  0  0  0  0  0  0  0
    0.4005   -2.9027    2.3260 N   0  0  0  0  0  0  0  0  0  0  0  0
    0.5732   -1.8740    1.5079 C   0  0  0  0  0  0  0  0  0  0  0  0
    0.7424    1.9315    1.0193 H   0  0  0  0  0  0  0  0  0  0  0  0
   -0.7205    4.0610    1.3724 H   0  0  0  0  0  0  0  0  0  0  0  0
   -0.4629    3.1531    2.8602 H   0  0  0  0  0  0  0  0  0  0  0  0
   -3.2296    4.0208    1.7735 H   0  0  0  0  0  0  0  0  0  0  0  0
   -2.3671    4.7818    3.1387 H   0  0  0  0  0  0  0  0  0  0  0  0
   -2.9744    3.1085    3.2712 H   0  0  0  0  0  0  0  0  0  0  0  0
   -2.6180   -0.3469   -0.2955 H   0  0  0  0  0  0  0  0  0  0  0  0
   -3.9556   -3.6794   -0.1166 H   0  0  0  0  0  0  0  0  0  0  0  0
   -8.0033   -2.3250    0.4788 H   0  0  0  0  0  0  0  0  0  0  0  0
   -7.1775    0.0226    0.6990 H   0  0  0  0  0  0  0  0  0  0  0  0
   -4.7238    0.4972    0.5961 H   0  0  0  0  0  0  0  0  0  0  0  0
   -2.9347   -3.2974    1.9217 H   0  0  0  0  0  0  0  0  0  0  0  0
   -1.0026   -4.1989    3.1362 H   0  0  0  0  0  0  0  0  0  0  0  0
    1.5892   -1.4824    1.3946 H   0  0  0  0  0  0  0  0  0  0  0  0
  1  2  2  0
  1  3  2  0
  1  4  1  0
  1  9  1  0
  4  5  1  0
  4 26  1  0
  5  6  2  0
  5  7  1  0
  7  8  1  0
  7 27  1  0
  7 28  1  0
  8 29  1  0
  8 30  1  0
  8 31  1  0
  9 10  2  0
  9 25  1  0
 10 11  1  0
 10 22  1  0
 11 12  1  0
 11 32  1  0
 12 13  2  0
 12 17  1  0
 13 14  1  0
 13 33  1  0
 14 15  2  0
 14 18  1  0
 15 16  1  0
 15 34  1  0
 16 17  2  0
 16 35  1  0
 17 36  1  0
 18 19  1  0
 18 20  1  0
 18 21  1  0
 22 23  2  0
 22 37  1  0
 23 24  1  0
 23 38  1  0
 24 25  2  0
 25 39  1  0
M  END

