rmsd26.gzmat
 OpenBabel08211713393D

 39 40  0  0  1  0  0  0  0  0999 V2000
    0.0000    0.0000    0.0000 S   0  0  0  0  0  0  0  0  0  0  0  0
    1.4429    0.0000    0.0000 O   0  0  0  0  0  0  0  0  0  0  0  0
   -0.7675    0.0000   -1.2244 O   0  0  0  0  0  0  0  0  0  0  0  0
   -0.3480    1.5551    0.7774 N   0  0  0  0  0  0  0  0  0  0  0  0
   -1.6355    1.9787    1.0682 C   0  0  0  0  0  0  0  0  0  0  0  0
   -2.5709    1.2211    0.8941 O   0  0  0  0  0  0  0  0  0  0  0  0
   -1.8092    3.3708    1.6303 C   0  0  0  0  0  0  0  0  0  0  0  0
   -1.5877    4.4093    0.5364 C   0  0  0  0  0  0  0  0  0  0  0  0
   -0.6083   -1.1832    1.0842 C   0  0  2  0  0  0  0  0  0  0  0  0
   -1.9430   -1.6670    1.0652 C   0  0  0  0  0  0  0  0  0  0  0  0
   -2.7972   -1.3550    0.0444 N   0  0  0  0  0  0  0  0  0  0  0  0
   -4.1916   -1.6521    0.1233 C   0  0  0  0  0  0  0  0  0  0  0  0
   -4.6230   -2.9661   -0.0921 C   0  0  0  0  0  0  0  0  0  0  0  0
   -5.9868   -3.2364   -0.0379 C   0  0  0  0  0  0  0  0  0  0  0  0
   -6.9107   -2.2185    0.2031 C   0  0  0  0  0  0  0  0  0  0  0  0
   -6.4662   -0.9120    0.4006 C   0  0  0  0  0  0  0  0  0  0  0  0
   -5.1063   -0.6205    0.3652 C   0  0  0  0  0  0  0  0  0  0  0  0
   -6.4952   -4.6330   -0.2549 C   0  0  0  0  0  0  0  0  0  0  0  0
   -7.4216   -5.0121    0.6272 F   0  0  0  0  0  0  0  0  0  0  0  0
   -7.0744   -4.8063   -1.4435 F   0  0  0  0  0  0  0  0  0  0  0  0
   -5.5765   -5.5952   -0.1884 F   0  0  0  0  0  0  0  0  0  0  0  0
   -2.3401   -2.5527    2.1099 C   0  0  0  0  0  0  0  0  0  0  0  0
   -1.4082   -2.9561    3.0445 C   0  0  0  0  0  0  0  0  0  0  0  0
   -0.1092   -2.5437    3.0236 N   0  0  0  0  0  0  0  0  0  0  0  0
    0.2645   -1.6874    2.0734 C   0  0  0  0  0  0  0  0  0  0  0  0
    0.4260    2.2070    0.8853 H   0  0  0  0  0  0  0  0  0  0  0  0
   -1.1324    3.5414    2.4903 H   0  0  0  0  0  0  0  0  0  0  0  0
   -2.8398    3.4617    2.0406 H   0  0  0  0  0  0  0  0  0  0  0  0
   -0.5489    4.4292    0.1855 H   0  0  0  0  0  0  0  0  0  0  0  0
   -1.8309    5.4189    0.8914 H   0  0  0  0  0  0  0  0  0  0  0  0
   -2.2258    4.2148   -0.3380 H   0  0  0  0  0  0  0  0  0  0  0  0
   -2.5381   -0.6113   -0.6285 H   0  0  0  0  0  0  0  0  0  0  0  0
   -3.8826   -3.7415   -0.3045 H   0  0  0  0  0  0  0  0  0  0  0  0
   -7.9811   -2.4326    0.2368 H   0  0  0  0  0  0  0  0  0  0  0  0
   -7.1866   -0.1154    0.5883 H   0  0  0  0  0  0  0  0  0  0  0  0
   -4.7449    0.4001    0.5322 H   0  0  0  0  0  0  0  0  0  0  0  0
   -3.3664   -2.8988    2.1709 H   0  0  0  0  0  0  0  0  0  0  0  0
   -1.6622   -3.6423    3.8627 H   0  0  0  0  0  0  0  0  0  0  0  0
    1.3308   -1.3896    2.1066 H   0  0  0  0  0  0  0  0  0  0  0  0
  1  2  2  0  0  0  0
  1  4  1  0  0  0  0
  3  1  2  0  0  0  0
  4 26  1  0  0  0  0
  4  5  1  0  0  0  0
  5  7  1  0  0  0  0
  6  5  2  0  0  0  0
  7 28  1  0  0  0  0
  7 27  1  0  0  0  0
  8 30  1  0  0  0  0
  8  7  1  0  0  0  0
  9  1  1  1  0  0  0
  9 25  1  0  0  0  0
 10  9  1  0  0  0  0
 10 22  2  0  0  0  0
 11 12  1  0  0  0  0
 11 10  1  0  0  0  0
 12 17  2  0  0  0  0
 13 14  2  0  0  0  0
 13 12  1  0  0  0  0
 14 15  1  0  0  0  0
 15 34  1  0  0  0  0
 15 16  2  0  0  0  0
 16 35  1  0  0  0  0
 17 16  1  0  0  0  0
 17 36  1  0  0  0  0
 18 21  1  0  0  0  0
 18 14  1  0  0  0  0
 18 19  1  0  0  0  0
 20 18  1  0  0  0  0
 22 37  1  0  0  0  0
 22 23  1  0  0  0  0
 23 38  1  0  0  0  0
 24 23  2  0  0  0  0
 25 39  1  0  0  0  0
 25 24  2  0  0  0  0
 29  8  1  0  0  0  0
 31  8  1  0  0  0  0
 32 11  1  0  0  0  0
 33 13  1  0  0  0  0
M  RAD  1   9   2
M  END
$$$$
