
     RDKit          3D

 39 40  0  0  0  0  0  0  0  0999 V2000
   -0.0618    0.0024    0.0597 S   0  0  0  0  0  0  0  0  0  0  0  0
    1.3745    0.1874    0.2229 O   0  0  0  0  0  0  0  0  0  0  0  0
   -0.6961   -0.0296   -1.2547 O   0  0  0  0  0  0  0  0  0  0  0  0
   -0.8493    1.3594    0.7911 N   0  0  0  0  0  0  0  0  0  0  0  0
   -0.4464    2.0142    1.9341 C   0  0  0  0  0  0  0  0  0  0  0  0
    0.4044    1.5643    2.6809 O   0  0  0  0  0  0  0  0  0  0  0  0
   -1.1530    3.3371    2.1826 C   0  0  0  0  0  0  0  0  0  0  0  0
   -0.8320    3.9303    3.5482 C   0  0  0  0  0  0  0  0  0  0  0  0
   -0.5933   -1.4101    0.9918 C   0  0  0  0  0  0  0  0  0  0  0  0
    0.0553   -1.8618    2.1799 C   0  0  0  0  0  0  0  0  0  0  0  0
    1.0932   -1.1834    2.7406 N   0  0  0  0  0  0  0  0  0  0  0  0
    1.8553   -1.5332    3.8648 C   0  0  0  0  0  0  0  0  0  0  0  0
    2.3214   -2.8361    4.0858 C   0  0  0  0  0  0  0  0  0  0  0  0
    3.0911   -3.1171    5.2176 C   0  0  0  0  0  0  0  0  0  0  0  0
    3.4297   -2.1089    6.1239 C   0  0  0  0  0  0  0  0  0  0  0  0
    2.9900   -0.8045    5.8827 C   0  0  0  0  0  0  0  0  0  0  0  0
    2.2048   -0.5140    4.7696 C   0  0  0  0  0  0  0  0  0  0  0  0
    3.6070   -4.5205    5.4112 C   0  0  0  0  0  0  0  0  0  0  0  0
    4.7243   -4.7415    4.6939 F   0  0  0  0  0  0  0  0  0  0  0  0
    3.9057   -4.7741    6.6961 F   0  0  0  0  0  0  0  0  0  0  0  0
    2.7035   -5.4381    5.0166 F   0  0  0  0  0  0  0  0  0  0  0  0
   -0.4982   -3.0410    2.7374 C   0  0  0  0  0  0  0  0  0  0  0  0
   -1.5798   -3.6586    2.1282 C   0  0  0  0  0  0  0  0  0  0  0  0
   -2.1722   -3.2319    1.0016 N   0  0  0  0  0  0  0  0  0  0  0  0
   -1.6749   -2.1286    0.4584 C   0  0  0  0  0  0  0  0  0  0  0  0
   -1.5521    1.7658    0.1785 H   0  0  0  0  0  0  0  0  0  0  0  0
   -2.2386    3.1814    2.0562 H   0  0  0  0  0  0  0  0  0  0  0  0
   -0.8507    4.0236    1.3712 H   0  0  0  0  0  0  0  0  0  0  0  0
   -1.1530    3.2570    4.3567 H   0  0  0  0  0  0  0  0  0  0  0  0
   -1.3416    4.8962    3.6779 H   0  0  0  0  0  0  0  0  0  0  0  0
    0.2502    4.0873    3.6604 H   0  0  0  0  0  0  0  0  0  0  0  0
    1.1954   -0.2095    2.4509 H   0  0  0  0  0  0  0  0  0  0  0  0
    2.1021   -3.6289    3.3718 H   0  0  0  0  0  0  0  0  0  0  0  0
    4.0275   -2.3441    7.0047 H   0  0  0  0  0  0  0  0  0  0  0  0
    3.2512   -0.0059    6.5804 H   0  0  0  0  0  0  0  0  0  0  0  0
    1.8416    0.4991    4.5853 H   0  0  0  0  0  0  0  0  0  0  0  0
   -0.0974   -3.4515    3.6620 H   0  0  0  0  0  0  0  0  0  0  0  0
   -2.0021   -4.5605    2.5856 H   0  0  0  0  0  0  0  0  0  0  0  0
   -2.1318   -1.7703   -0.4690 H   0  0  0  0  0  0  0  0  0  0  0  0
  1  2  2  0
  1  3  2  0
  1  4  1  0
  1  9  1  0
  4  5  1  0
  4 26  1  0
  5  6  2  0
  5  7  1  0
  7  8  1  0
  7 27  1  0
  7 28  1  0
  8 29  1  0
  8 30  1  0
  8 31  1  0
  9 10  2  0
  9 25  1  0
 10 11  1  0
 10 22  1  0
 11 12  1  0
 11 32  1  0
 12 13  2  0
 12 17  1  0
 13 14  1  0
 13 33  1  0
 14 15  2  0
 14 18  1  0
 15 16  1  0
 15 34  1  0
 16 17  2  0
 16 35  1  0
 17 36  1  0
 18 19  1  0
 18 20  1  0
 18 21  1  0
 22 23  2  0
 22 37  1  0
 23 24  1  0
 23 38  1  0
 24 25  2  0
 25 39  1  0
M  END

