39
rmsd231.gzmat
S          0.00000        0.00000        0.00000
O          1.44450        0.00000        0.00000
O         -0.76740        0.00000       -1.22190
N         -0.48350        1.54880        0.71340
C         -0.00700        2.00190        1.93290
O          0.69460        1.27500        2.61110
C         -0.43530        3.37210        2.40630
C         -0.20460        4.45270        1.35770
C         -0.59990       -1.18080        1.09390
C          0.11100       -1.64810        2.23110
N          1.43160       -1.33970        2.41020
C          2.11490       -1.59580        3.63450
C          2.39810       -2.91120        4.01550
C          3.10120       -3.12920        5.19830
C          3.55470       -2.06080        5.97010
C          3.27970       -0.75310        5.56790
C          2.55390       -0.51220        4.40760
C          3.38960       -4.54170        5.62060
F          4.49280       -5.04610        5.06690
F          3.56690       -4.71120        6.93100
F          2.42990       -5.41530        5.31370
C         -0.58310       -2.50080        3.13800
C         -1.86860       -2.90480        2.83710
N         -2.51960       -2.52380        1.70230
C         -1.89750       -1.68950        0.86950
H         -1.03530        2.17750        0.13320
H          0.13070        3.61160        3.33520
H         -1.50030        3.33950        2.71790
H          0.80420        4.39240        0.92600
H         -0.30230        5.45470        1.79610
H         -0.92400        4.39520        0.53280
H          1.86380       -0.60940        1.81240
H          2.07680       -3.73800        3.37680
H          4.12770       -2.22580        6.88410
H          3.63360        0.08500        6.16930
H          2.31540        0.51070        4.09590
H         -0.11140       -2.82090        4.06130
H         -2.44300       -3.56560        3.49980
H         -2.47690       -1.41340       -0.03330
