37
rmsd174.gzmat
N          0.00000        0.00000        0.00000
C          1.46880        0.00000        0.00000
H          1.83250        0.00000        1.06360
C          1.86470        1.30630       -0.68150
O          1.68550        1.64870       -1.81730
O          2.54280        2.09450        0.19210
C          2.13490       -1.14320       -0.79990
C          1.91030       -2.51170       -0.15550
C          0.56760       -3.08280       -0.53540
O         -0.28930       -2.48400       -1.16160
N          0.32130       -4.38580       -0.13450
C         -0.98200       -4.99700       -0.42390
H         -1.36120       -4.59950       -1.41360
C         -1.95020       -4.58190        0.70740
O         -2.29370       -5.33230        1.59550
N         -2.41960       -3.28530        0.62730
C         -3.12880       -2.72220        1.76570
C         -2.14450       -2.05180        2.70250
O         -1.01350       -1.71210        2.47030
O         -2.70400       -1.87370        3.91830
C         -0.84300       -6.51870       -0.46930
S         -2.41570       -7.31300       -0.96490
H         -0.37090       -0.64090        0.68700
H         -0.37160       -0.26170       -0.90680
H          2.78580        2.97890       -0.17350
H          1.74460       -1.13960       -1.84300
H          3.22200       -0.94790       -0.88980
H          1.98320       -2.43360        0.95270
H          2.72120       -3.20680       -0.46260
H          0.95080       -4.89800        0.46170
H         -1.99840       -2.62680       -0.02810
H         -3.69710       -3.52390        2.31430
H         -3.88870       -1.97990        1.41670
H         -2.10790       -1.42670        4.57350
H         -0.07970       -6.81680       -1.21660
H         -0.50990       -6.92080        0.50800
H         -3.10920       -7.16270        0.17620
