rmsd154.gzmat
 OpenBabel08211713423D

 37 36  0  0  1  0  0  0  0  0999 V2000
    0.0000    0.0000    0.0000 N   0  0  0  0  0  0  0  0  0  0  0  0
    1.4646    0.0000    0.0000 C   0  0  2  0  0  0  0  0  0  0  0  0
    1.8141    0.0000    1.0730 H   0  0  0  0  0  0  0  0  0  0  0  0
    2.0232    1.2321   -0.7094 C   0  0  0  0  0  0  0  0  0  0  0  0
    1.5321    1.8354   -1.6269 O   0  0  0  0  0  0  0  0  0  0  0  0
    3.2006    1.6071   -0.1620 O   0  0  0  0  0  0  0  0  0  0  0  0
    2.0189   -1.2574   -0.6961 C   0  0  0  0  0  0  0  0  0  0  0  0
    1.6590   -1.3421   -2.1812 C   0  0  0  0  0  0  0  0  0  0  0  0
    2.3721   -2.5157   -2.8049 C   0  0  0  0  0  0  0  0  0  0  0  0
    2.8976   -3.4112   -2.1710 O   0  0  0  0  0  0  0  0  0  0  0  0
    2.3718   -2.5508   -4.1885 N   0  0  0  0  0  0  0  0  0  0  0  0
    2.9556   -3.6959   -4.8934 C   0  0  2  0  0  0  0  0  0  0  0  0
    2.7639   -4.6319   -4.2859 H   0  0  0  0  0  0  0  0  0  0  0  0
    4.4832   -3.4925   -5.0295 C   0  0  0  0  0  0  0  0  0  0  0  0
    5.0201   -3.2203   -6.0842 O   0  0  0  0  0  0  0  0  0  0  0  0
    5.1988   -3.6359   -3.8661 N   0  0  0  0  0  0  0  0  0  0  0  0
    6.6496   -3.5842   -3.8979 C   0  0  0  0  0  0  0  0  0  0  0  0
    7.2297   -4.9836   -3.9220 C   0  0  0  0  0  0  0  0  0  0  0  0
    6.6752   -6.0458   -3.9178 O   0  0  0  0  0  0  0  0  0  0  0  0
    8.5861   -4.8910   -3.9421 O   0  0  0  0  0  0  0  0  0  0  0  0
    2.3268   -3.8147   -6.2834 C   0  0  0  0  0  0  0  0  0  0  0  0
    2.8483   -5.3529   -7.1266 S   0  0  0  0  0  0  0  0  0  0  0  0
   -0.3893    0.0294   -0.9301 H   0  0  0  0  0  0  0  0  0  0  0  0
   -0.3886    0.7543    0.5438 H   0  0  0  0  0  0  0  0  0  0  0  0
    3.6134    2.3993   -0.5900 H   0  0  0  0  0  0  0  0  0  0  0  0
    3.1205   -1.3004   -0.5632 H   0  0  0  0  0  0  0  0  0  0  0  0
    1.6292   -2.1596   -0.1697 H   0  0  0  0  0  0  0  0  0  0  0  0
    1.9043   -0.3950   -2.7060 H   0  0  0  0  0  0  0  0  0  0  0  0
    0.5614   -1.4811   -2.3033 H   0  0  0  0  0  0  0  0  0  0  0  0
    2.0361   -1.7830   -4.7471 H   0  0  0  0  0  0  0  0  0  0  0  0
    4.7420   -3.8894   -2.9921 H   0  0  0  0  0  0  0  0  0  0  0  0
    7.0398   -3.0240   -3.0133 H   0  0  0  0  0  0  0  0  0  0  0  0
    7.0074   -3.0238   -4.8074 H   0  0  0  0  0  0  0  0  0  0  0  0
    9.0457   -5.7652   -3.9761 H   0  0  0  0  0  0  0  0  0  0  0  0
    1.2213   -3.8484   -6.2086 H   0  0  0  0  0  0  0  0  0  0  0  0
    2.5824   -2.9371   -6.9105 H   0  0  0  0  0  0  0  0  0  0  0  0
    4.1213   -5.0303   -7.4148 H   0  0  0  0  0  0  0  0  0  0  0  0
  1  2  1  0  0  0  0
  1 24  1  0  0  0  0
  2  3  1  1  0  0  0
  4  6  1  0  0  0  0
  4  2  1  0  0  0  0
  5  4  2  0  0  0  0
  7 26  1  0  0  0  0
  7 27  1  0  0  0  0
  7  2  1  0  0  0  0
  8  7  1  0  0  0  0
  9  8  1  0  0  0  0
  9 10  2  0  0  0  0
 11  9  1  0  0  0  0
 12 13  1  1  0  0  0
 12 11  1  0  0  0  0
 14 12  1  0  0  0  0
 14 16  1  0  0  0  0
 15 14  2  0  0  0  0
 16 31  1  0  0  0  0
 17 16  1  0  0  0  0
 17 32  1  0  0  0  0
 18 19  2  0  0  0  0
 18 17  1  0  0  0  0
 20 18  1  0  0  0  0
 21 35  1  0  0  0  0
 21 12  1  0  0  0  0
 22 21  1  0  0  0  0
 23  1  1  0  0  0  0
 25  6  1  0  0  0  0
 28  8  1  0  0  0  0
 29  8  1  0  0  0  0
 30 11  1  0  0  0  0
 33 17  1  0  0  0  0
 34 20  1  0  0  0  0
 36 21  1  0  0  0  0
 37 22  1  0  0  0  0
M  END
$$$$
