37
rmsd154.gzmat
N          0.00000        0.00000        0.00000
C          1.46460        0.00000        0.00000
H          1.81410        0.00000        1.07300
C          2.02320        1.23210       -0.70940
O          1.53210        1.83540       -1.62690
O          3.20060        1.60710       -0.16200
C          2.01890       -1.25740       -0.69610
C          1.65900       -1.34210       -2.18120
C          2.37210       -2.51570       -2.80490
O          2.89760       -3.41120       -2.17100
N          2.37180       -2.55080       -4.18850
C          2.95560       -3.69590       -4.89340
H          2.76390       -4.63190       -4.28590
C          4.48320       -3.49250       -5.02950
O          5.02010       -3.22030       -6.08420
N          5.19880       -3.63590       -3.86610
C          6.64960       -3.58420       -3.89790
C          7.22970       -4.98360       -3.92200
O          6.67520       -6.04580       -3.91780
O          8.58610       -4.89100       -3.94210
C          2.32680       -3.81470       -6.28340
S          2.84830       -5.35290       -7.12660
H         -0.38930        0.02940       -0.93010
H         -0.38860        0.75430        0.54380
H          3.61340        2.39930       -0.59000
H          3.12050       -1.30040       -0.56320
H          1.62920       -2.15960       -0.16970
H          1.90430       -0.39500       -2.70600
H          0.56140       -1.48110       -2.30330
H          2.03610       -1.78300       -4.74710
H          4.74200       -3.88940       -2.99210
H          7.03980       -3.02400       -3.01330
H          7.00740       -3.02380       -4.80740
H          9.04570       -5.76520       -3.97610
H          1.22130       -3.84840       -6.20860
H          2.58240       -2.93710       -6.91050
H          4.12130       -5.03030       -7.41480
