37
rmsd116.gzmat
N          0.00000        0.00000        0.00000
C          1.47210        0.00000        0.00000
H          1.80980        0.00000        1.07710
C          1.99450        1.29250       -0.62590
O          1.43270        2.35470       -0.65130
O          3.23420        1.14340       -1.14980
C          2.04030       -1.23320       -0.72530
C          1.85930       -2.52730        0.07140
C          0.59610       -3.27010       -0.30590
O          0.59650       -4.24950       -1.03040
N         -0.57300       -2.83000        0.27980
C         -1.83850       -3.51220        0.02630
H         -1.64350       -4.49860       -0.48820
C         -2.74250       -2.61920       -0.84430
O         -3.60980       -1.92260       -0.35400
N         -2.66370       -2.64770       -2.22510
C         -1.59090       -3.23990       -2.99880
C         -0.61620       -2.16540       -3.43450
O         -0.35690       -1.12410       -2.88870
O         -0.03140       -2.50570       -4.60360
C         -2.53570       -3.75180        1.37570
S         -4.06370       -4.73810        1.18230
H         -0.37870       -0.27970       -0.89960
H         -0.38070        0.90580        0.25070
H          3.59450        1.97180       -1.55590
H          1.59250       -1.32620       -1.73640
H          3.12660       -1.07900       -0.91580
H          1.88260       -2.33050        1.16240
H          2.71890       -3.20900       -0.12450
H         -0.61270       -1.89990        0.70920
H         -3.29050       -2.02720       -2.73560
H         -2.01330       -3.77570       -3.88830
H         -1.02820       -4.03080       -2.42540
H          0.63500       -1.84380       -4.92480
H         -1.86400       -4.31300        2.05600
H         -2.75780       -2.78940        1.87990
H         -4.88280       -3.79310        0.69140
