
     RDKit          3D

 37 36  0  0  0  0  0  0  0  0999 V2000
   -0.0959    0.7712   -1.1726 N   0  0  0  0  0  0  0  0  0  0  0  0
    0.7690    0.0531   -0.2558 C   0  0  2  0  0  0  0  0  0  0  0  0
    0.2470   -0.1064    0.7030 H   0  0  0  0  0  0  0  0  0  0  0  0
    1.9829    0.9165    0.0350 C   0  0  0  0  0  0  0  0  0  0  0  0
    2.4610    1.7120   -0.7377 O   0  0  0  0  0  0  0  0  0  0  0  0
    2.5254    0.6475    1.2349 O   0  0  0  0  0  0  0  0  0  0  0  0
    1.2599   -1.3368   -0.7340 C   0  0  0  0  0  0  0  0  0  0  0  0
    2.0093   -1.2993   -2.0675 C   0  0  0  0  0  0  0  0  0  0  0  0
    2.2913   -2.7009   -2.5673 C   0  0  0  0  0  0  0  0  0  0  0  0
    1.4131   -3.5639   -2.6075 O   0  0  0  0  0  0  0  0  0  0  0  0
    3.5635   -2.9502   -2.9605 N   0  0  0  0  0  0  0  0  0  0  0  0
    3.9876   -4.2470   -3.4699 C   0  0  2  0  0  0  0  0  0  0  0  0
    3.1527   -4.6501   -4.0663 H   0  0  0  0  0  0  0  0  0  0  0  0
    4.2349   -5.1923   -2.2692 C   0  0  0  0  0  0  0  0  0  0  0  0
    5.3539   -5.4772   -1.8799 O   0  0  0  0  0  0  0  0  0  0  0  0
    3.0848   -5.6293   -1.6805 N   0  0  0  0  0  0  0  0  0  0  0  0
    3.1367   -6.1506   -0.3442 C   0  0  0  0  0  0  0  0  0  0  0  0
    3.1504   -5.0404    0.6991 C   0  0  0  0  0  0  0  0  0  0  0  0
    3.1674   -3.8593    0.4572 O   0  0  0  0  0  0  0  0  0  0  0  0
    3.1422   -5.5405    1.9448 O   0  0  0  0  0  0  0  0  0  0  0  0
    5.2519   -4.1433   -4.3167 C   0  0  0  0  0  0  0  0  0  0  0  0
    5.2402   -2.8114   -5.5698 S   0  0  0  0  0  0  0  0  0  0  0  0
   -0.7378    0.1378   -1.6452 H   0  0  0  0  0  0  0  0  0  0  0  0
    0.4628    1.2514   -1.8775 H   0  0  0  0  0  0  0  0  0  0  0  0
    3.3297    1.1899    1.3093 H   0  0  0  0  0  0  0  0  0  0  0  0
    1.8940   -1.7989    0.0375 H   0  0  0  0  0  0  0  0  0  0  0  0
    0.3816   -1.9911   -0.8530 H   0  0  0  0  0  0  0  0  0  0  0  0
    2.9365   -0.7110   -1.9930 H   0  0  0  0  0  0  0  0  0  0  0  0
    1.3791   -0.8035   -2.8254 H   0  0  0  0  0  0  0  0  0  0  0  0
    4.2483   -2.2044   -2.9333 H   0  0  0  0  0  0  0  0  0  0  0  0
    2.2307   -5.1427   -1.9736 H   0  0  0  0  0  0  0  0  0  0  0  0
    4.0557   -6.7420   -0.2152 H   0  0  0  0  0  0  0  0  0  0  0  0
    2.2837   -6.8159   -0.1394 H   0  0  0  0  0  0  0  0  0  0  0  0
    3.1613   -4.7864    2.5591 H   0  0  0  0  0  0  0  0  0  0  0  0
    6.1119   -3.9323   -3.6643 H   0  0  0  0  0  0  0  0  0  0  0  0
    5.4533   -5.1158   -4.7861 H   0  0  0  0  0  0  0  0  0  0  0  0
    4.1172   -3.2063   -6.2150 H   0  0  0  0  0  0  0  0  0  0  0  0
  1  2  1  0
  1 23  1  0
  1 24  1  0
  2  3  1  1
  2  4  1  0
  2  7  1  0
  4  5  2  0
  4  6  1  0
  6 25  1  0
  7  8  1  0
  7 26  1  0
  7 27  1  0
  8  9  1  0
  8 28  1  0
  8 29  1  0
  9 10  2  0
  9 11  1  0
 11 12  1  0
 11 30  1  0
 12 13  1  6
 12 14  1  0
 12 21  1  0
 14 15  2  0
 14 16  1  0
 16 17  1  0
 16 31  1  0
 17 18  1  0
 17 32  1  0
 17 33  1  0
 18 19  2  0
 18 20  1  0
 20 34  1  0
 21 22  1  0
 21 35  1  0
 21 36  1  0
 22 37  1  0
M  END

