
     RDKit          3D

 37 36  0  0  0  0  0  0  0  0999 V2000
   -0.0838   -0.3531    0.0345 N   0  0  0  0  0  0  0  0  0  0  0  0
    1.3431   -0.1153   -0.0116 C   0  0  2  0  0  0  0  0  0  0  0  0
    1.7191   -0.1427    1.0198 H   0  0  0  0  0  0  0  0  0  0  0  0
    1.7498    1.2486   -0.5545 C   0  0  0  0  0  0  0  0  0  0  0  0
    2.7313    1.8825   -0.2082 O   0  0  0  0  0  0  0  0  0  0  0  0
    0.9422    1.6987   -1.5230 O   0  0  0  0  0  0  0  0  0  0  0  0
    2.0598   -1.2179   -0.8171 C   0  0  0  0  0  0  0  0  0  0  0  0
    3.5912   -1.1351   -0.7725 C   0  0  0  0  0  0  0  0  0  0  0  0
    4.0744   -1.1953    0.6715 C   0  0  0  0  0  0  0  0  0  0  0  0
    3.8428   -2.1554    1.3830 O   0  0  0  0  0  0  0  0  0  0  0  0
    4.7389   -0.0797    1.1165 N   0  0  0  0  0  0  0  0  0  0  0  0
    5.1463    0.0697    2.4957 C   0  0  2  0  0  0  0  0  0  0  0  0
    4.9979   -0.9156    2.9615 H   0  0  0  0  0  0  0  0  0  0  0  0
    4.2949    1.0554    3.3188 C   0  0  0  0  0  0  0  0  0  0  0  0
    4.5240    1.2091    4.5077 O   0  0  0  0  0  0  0  0  0  0  0  0
    3.3228    1.7350    2.6493 N   0  0  0  0  0  0  0  0  0  0  0  0
    2.4968    2.6877    3.3336 C   0  0  0  0  0  0  0  0  0  0  0  0
    1.0224    2.5283    3.0300 C   0  0  0  0  0  0  0  0  0  0  0  0
    0.5381    1.7804    2.2137 O   0  0  0  0  0  0  0  0  0  0  0  0
    0.2883    3.3681    3.7738 O   0  0  0  0  0  0  0  0  0  0  0  0
    6.6213    0.4667    2.6281 C   0  0  0  0  0  0  0  0  0  0  0  0
    7.7909   -0.7878    2.0014 S   0  0  0  0  0  0  0  0  0  0  0  0
   -0.5066   -0.1804   -0.8772 H   0  0  0  0  0  0  0  0  0  0  0  0
   -0.5074    0.2956    0.6968 H   0  0  0  0  0  0  0  0  0  0  0  0
    1.3014    2.5520   -1.8231 H   0  0  0  0  0  0  0  0  0  0  0  0
    1.7364   -2.1717   -0.3767 H   0  0  0  0  0  0  0  0  0  0  0  0
    1.7105   -1.1987   -1.8632 H   0  0  0  0  0  0  0  0  0  0  0  0
    3.9644   -0.2348   -1.2841 H   0  0  0  0  0  0  0  0  0  0  0  0
    4.0107   -2.0093   -1.2936 H   0  0  0  0  0  0  0  0  0  0  0  0
    4.8028    0.7170    0.4925 H   0  0  0  0  0  0  0  0  0  0  0  0
    3.1928    1.6214    1.6435 H   0  0  0  0  0  0  0  0  0  0  0  0
    2.7619    3.7346    3.0899 H   0  0  0  0  0  0  0  0  0  0  0  0
    2.6634    2.5755    4.4161 H   0  0  0  0  0  0  0  0  0  0  0  0
   -0.6437    3.2355    3.5290 H   0  0  0  0  0  0  0  0  0  0  0  0
    6.8028    1.4378    2.1379 H   0  0  0  0  0  0  0  0  0  0  0  0
    6.8497    0.5891    3.6953 H   0  0  0  0  0  0  0  0  0  0  0  0
    7.2660   -0.8581    0.7564 H   0  0  0  0  0  0  0  0  0  0  0  0
  1  2  1  0
  1 23  1  0
  1 24  1  0
  2  3  1  1
  2  4  1  0
  2  7  1  0
  4  5  2  0
  4  6  1  0
  6 25  1  0
  7  8  1  0
  7 26  1  0
  7 27  1  0
  8  9  1  0
  8 28  1  0
  8 29  1  0
  9 10  2  0
  9 11  1  0
 11 12  1  0
 11 30  1  0
 12 13  1  1
 12 14  1  0
 12 21  1  0
 14 15  2  0
 14 16  1  0
 16 17  1  0
 16 31  1  0
 17 18  1  0
 17 32  1  0
 17 33  1  0
 18 19  2  0
 18 20  1  0
 20 34  1  0
 21 22  1  0
 21 35  1  0
 21 36  1  0
 22 37  1  0
M  END

