
     RDKit          3D

 37 36  0  0  0  0  0  0  0  0999 V2000
    0.3557   -0.0938   -0.0837 N   0  0  0  0  0  0  0  0  0  0  0  0
    1.7812    0.1254   -0.2086 C   0  0  2  0  0  0  0  0  0  0  0  0
    2.2137    0.1335    0.8072 H   0  0  0  0  0  0  0  0  0  0  0  0
    2.2313    1.4559   -0.8028 C   0  0  0  0  0  0  0  0  0  0  0  0
    3.3922    1.8039   -0.8809 O   0  0  0  0  0  0  0  0  0  0  0  0
    1.2270    2.2344   -1.2283 O   0  0  0  0  0  0  0  0  0  0  0  0
    2.4473   -1.0357   -0.9825 C   0  0  0  0  0  0  0  0  0  0  0  0
    2.8186   -2.2037   -0.0532 C   0  0  0  0  0  0  0  0  0  0  0  0
    3.8939   -1.7399    0.9162 C   0  0  0  0  0  0  0  0  0  0  0  0
    3.6267   -1.2680    2.0130 O   0  0  0  0  0  0  0  0  0  0  0  0
    5.1687   -1.7791    0.4244 N   0  0  0  0  0  0  0  0  0  0  0  0
    6.2764   -1.1061    1.0923 C   0  0  2  0  0  0  0  0  0  0  0  0
    5.8320   -0.5138    1.9062 H   0  0  0  0  0  0  0  0  0  0  0  0
    6.9249   -0.1774    0.0542 C   0  0  0  0  0  0  0  0  0  0  0  0
    8.0392   -0.3783   -0.4039 O   0  0  0  0  0  0  0  0  0  0  0  0
    6.1251    0.8410   -0.3738 N   0  0  0  0  0  0  0  0  0  0  0  0
    6.3894    1.4423   -1.6491 C   0  0  0  0  0  0  0  0  0  0  0  0
    5.9917    0.5138   -2.7888 C   0  0  0  0  0  0  0  0  0  0  0  0
    5.5008   -0.5836   -2.6592 O   0  0  0  0  0  0  0  0  0  0  0  0
    6.2466    1.0621   -3.9847 O   0  0  0  0  0  0  0  0  0  0  0  0
    7.2791   -2.0952    1.6830 C   0  0  0  0  0  0  0  0  0  0  0  0
    8.5653   -1.3004    2.7157 S   0  0  0  0  0  0  0  0  0  0  0  0
   -0.1108    0.0531   -0.9787 H   0  0  0  0  0  0  0  0  0  0  0  0
   -0.0614    0.5636    0.5731 H   0  0  0  0  0  0  0  0  0  0  0  0
    1.6251    3.0561   -1.5661 H   0  0  0  0  0  0  0  0  0  0  0  0
    1.7423   -1.3848   -1.7546 H   0  0  0  0  0  0  0  0  0  0  0  0
    3.3505   -0.6870   -1.5029 H   0  0  0  0  0  0  0  0  0  0  0  0
    3.1677   -3.0608   -0.6502 H   0  0  0  0  0  0  0  0  0  0  0  0
    1.9402   -2.5101    0.5305 H   0  0  0  0  0  0  0  0  0  0  0  0
    5.3056   -2.0516   -0.5446 H   0  0  0  0  0  0  0  0  0  0  0  0
    5.1507    0.8728   -0.0837 H   0  0  0  0  0  0  0  0  0  0  0  0
    7.4606    1.6681   -1.7540 H   0  0  0  0  0  0  0  0  0  0  0  0
    5.8243    2.3789   -1.7543 H   0  0  0  0  0  0  0  0  0  0  0  0
    5.9811    0.4158   -4.6617 H   0  0  0  0  0  0  0  0  0  0  0  0
    6.7432   -2.7870    2.3476 H   0  0  0  0  0  0  0  0  0  0  0  0
    7.7581   -2.6787    0.8844 H   0  0  0  0  0  0  0  0  0  0  0  0
    9.2194   -0.7342    1.6767 H   0  0  0  0  0  0  0  0  0  0  0  0
  1  2  1  0
  1 23  1  0
  1 24  1  0
  2  3  1  1
  2  4  1  0
  2  7  1  0
  4  5  2  0
  4  6  1  0
  6 25  1  0
  7  8  1  0
  7 26  1  0
  7 27  1  0
  8  9  1  0
  8 28  1  0
  8 29  1  0
  9 10  2  0
  9 11  1  0
 11 12  1  0
 11 30  1  0
 12 13  1  1
 12 14  1  0
 12 21  1  0
 14 15  2  0
 14 16  1  0
 16 17  1  0
 16 31  1  0
 17 18  1  0
 17 32  1  0
 17 33  1  0
 18 19  2  0
 18 20  1  0
 20 34  1  0
 21 22  1  0
 21 35  1  0
 21 36  1  0
 22 37  1  0
M  END

