
     RDKit          3D

 37 36  0  0  0  0  0  0  0  0999 V2000
   -0.0341   -0.3231    0.5073 N   0  0  0  0  0  0  0  0  0  0  0  0
    1.3571   -0.0733    0.1969 C   0  0  2  0  0  0  0  0  0  0  0  0
    1.9349   -0.1114    1.1357 H   0  0  0  0  0  0  0  0  0  0  0  0
    1.4968    1.3332   -0.3666 C   0  0  0  0  0  0  0  0  0  0  0  0
    0.6450    1.9234   -0.9791 O   0  0  0  0  0  0  0  0  0  0  0  0
    2.7330    1.8366   -0.1618 O   0  0  0  0  0  0  0  0  0  0  0  0
    2.0312   -1.0363   -0.8190 C   0  0  0  0  0  0  0  0  0  0  0  0
    1.9142   -2.5126   -0.4476 C   0  0  0  0  0  0  0  0  0  0  0  0
    0.5578   -3.1229   -0.7788 C   0  0  0  0  0  0  0  0  0  0  0  0
   -0.2358   -2.6052   -1.5602 O   0  0  0  0  0  0  0  0  0  0  0  0
    0.2954   -4.3175   -0.1806 N   0  0  0  0  0  0  0  0  0  0  0  0
   -0.9796   -5.0102   -0.3638 C   0  0  2  0  0  0  0  0  0  0  0  0
   -1.3223   -4.7809   -1.3824 H   0  0  0  0  0  0  0  0  0  0  0  0
   -1.9838   -4.4312    0.6497 C   0  0  0  0  0  0  0  0  0  0  0  0
   -2.3452   -5.0363    1.6472 O   0  0  0  0  0  0  0  0  0  0  0  0
   -2.3621   -3.1503    0.3861 N   0  0  0  0  0  0  0  0  0  0  0  0
   -2.9502   -2.3754    1.4447 C   0  0  0  0  0  0  0  0  0  0  0  0
   -2.0060   -2.2429    2.6355 C   0  0  0  0  0  0  0  0  0  0  0  0
   -0.8112   -2.4211    2.5946 O   0  0  0  0  0  0  0  0  0  0  0  0
   -2.6568   -1.8673    3.7400 O   0  0  0  0  0  0  0  0  0  0  0  0
   -0.8034   -6.5139   -0.1931 C   0  0  0  0  0  0  0  0  0  0  0  0
   -2.3085   -7.4698   -0.6025 S   0  0  0  0  0  0  0  0  0  0  0  0
   -0.1364   -1.1935    1.0266 H   0  0  0  0  0  0  0  0  0  0  0  0
   -0.5673   -0.3967   -0.3579 H   0  0  0  0  0  0  0  0  0  0  0  0
    2.7572    2.7036   -0.6026 H   0  0  0  0  0  0  0  0  0  0  0  0
    1.5673   -0.8896   -1.8072 H   0  0  0  0  0  0  0  0  0  0  0  0
    3.0940   -0.7634   -0.9073 H   0  0  0  0  0  0  0  0  0  0  0  0
    2.1372   -2.6760    0.6212 H   0  0  0  0  0  0  0  0  0  0  0  0
    2.6643   -3.0961   -1.0094 H   0  0  0  0  0  0  0  0  0  0  0  0
    0.8680   -4.5991    0.6079 H   0  0  0  0  0  0  0  0  0  0  0  0
   -1.9183   -2.6847   -0.4055 H   0  0  0  0  0  0  0  0  0  0  0  0
   -3.8905   -2.8215    1.8007 H   0  0  0  0  0  0  0  0  0  0  0  0
   -3.1758   -1.3608    1.0820 H   0  0  0  0  0  0  0  0  0  0  0  0
   -1.9955   -1.7642    4.4464 H   0  0  0  0  0  0  0  0  0  0  0  0
   -0.0198   -6.8684   -0.8778 H   0  0  0  0  0  0  0  0  0  0  0  0
   -0.4996   -6.7477    0.8377 H   0  0  0  0  0  0  0  0  0  0  0  0
   -2.9943   -7.0861    0.4980 H   0  0  0  0  0  0  0  0  0  0  0  0
  1  2  1  0
  1 23  1  0
  1 24  1  0
  2  3  1  1
  2  4  1  0
  2  7  1  0
  4  5  2  0
  4  6  1  0
  6 25  1  0
  7  8  1  0
  7 26  1  0
  7 27  1  0
  8  9  1  0
  8 28  1  0
  8 29  1  0
  9 10  2  0
  9 11  1  0
 11 12  1  0
 11 30  1  0
 12 13  1  6
 12 14  1  0
 12 21  1  0
 14 15  2  0
 14 16  1  0
 16 17  1  0
 16 31  1  0
 17 18  1  0
 17 32  1  0
 17 33  1  0
 18 19  2  0
 18 20  1  0
 20 34  1  0
 21 22  1  0
 21 35  1  0
 21 36  1  0
 22 37  1  0
M  END

