37

N          0.15010       -0.32150        0.14610
C          1.54820        0.03210       -0.02860
H          2.02430        0.14260        0.95810
C          1.72620        1.35740       -0.76720
O          0.88930        1.86340       -1.47640
O          2.94820        1.88990       -0.58650
C          2.32160       -1.07220       -0.78120
C          1.69100       -1.43210       -2.12460
C          2.41090       -2.58740       -2.79640
O          2.88610       -3.52180       -2.15680
N          2.47940       -2.53310       -4.15320
C          3.03910       -3.61630       -4.96010
H          2.79500       -4.55950       -4.44790
C          4.57920       -3.50800       -5.02930
O          5.17530       -3.25850       -6.06700
N          5.19130       -3.68540       -3.83170
C          6.61970       -3.74180       -3.73260
C          7.15920       -5.15610       -3.90450
O          6.50060       -6.12950       -4.15560
O          8.49590       -5.17920       -3.74200
C          2.41530       -3.60800       -6.35210
S          2.78850       -5.10240       -7.33640
H         -0.37350       -0.01010       -0.67430
H         -0.24640        0.19650        0.92900
H          2.99050        2.70120       -1.12250
H          3.36730       -0.75470       -0.92090
H          2.33370       -1.97450       -0.15430
H          1.63880       -0.56110       -2.79860
H          0.65220       -1.76140       -1.94910
H          2.15980       -1.69860       -4.63090
H          4.60410       -3.93630       -3.03410
H          6.96920       -3.34580       -2.76630
H          7.06360       -3.12070       -4.52560
H          8.78230       -6.09880       -3.87730
H          1.31990       -3.58160       -6.25600
H          2.74160       -2.71690       -6.90880
H          4.10090       -4.81520       -7.48880
