37
rmsd91.gzmat
N          0.00000        0.00000        0.00000
C          1.48090        0.00000        0.00000
H          1.89520        0.00000        1.05230
C          1.97570        1.26300       -0.67830
O          1.39930        2.31730       -0.75900
O          3.22290        1.11310       -1.18390
C          1.94440       -1.27710       -0.73170
C          3.36450       -1.68880       -0.33960
C          3.39970       -2.22250        1.06650
O          2.73320       -1.77240        1.98630
N          4.24510       -3.29070        1.30350
C          4.36320       -3.83760        2.65460
H          3.35070       -3.76850        3.16130
C          5.36340       -2.97460        3.46210
O          6.47280       -3.35040        3.77660
N          4.87460       -1.74480        3.85440
C          5.79810       -0.74960        4.37660
C          6.28600        0.14300        3.25380
O          5.99030        0.11470        2.09040
O          7.15650        1.05870        3.74410
C          4.79470       -5.30410        2.64070
S          6.32770       -5.63850        1.69500
H         -0.38710        0.90800       -0.21580
H         -0.36740       -0.31990        0.88220
H          3.58530        1.93920       -1.59340
H          1.22850       -2.09680       -0.50360
H          1.87860       -1.13080       -1.82780
H          4.05630       -0.81080       -0.40070
H          3.75940       -2.41770       -1.07510
H          4.89000       -3.63320        0.60240
H          3.99470       -1.39900        3.46100
H          6.67690       -1.24320        4.87600
H          5.29500       -0.13840        5.16610
H          7.52740        1.66670        3.05620
H          4.91560       -5.66550        3.68230
H          4.00120       -5.93090        2.18250
H          7.22520       -5.00700        2.47500
