rmsd82.gzmat
 OpenBabel08211713423D

 37 36  0  0  1  0  0  0  0  0999 V2000
    0.0000    0.0000    0.0000 N   0  0  0  0  0  0  0  0  0  0  0  0
    1.4702    0.0000    0.0000 C   0  0  2  0  0  0  0  0  0  0  0  0
    1.8000    0.0000    1.0813 H   0  0  0  0  0  0  0  0  0  0  0  0
    1.9285    1.2842   -0.6699 C   0  0  0  0  0  0  0  0  0  0  0  0
    1.5343    1.7790   -1.6913 O   0  0  0  0  0  0  0  0  0  0  0  0
    2.9472    1.8341    0.0350 O   0  0  0  0  0  0  0  0  0  0  0  0
    2.1302   -1.1952   -0.7170 C   0  0  0  0  0  0  0  0  0  0  0  0
    1.8472   -1.2297   -2.2195 C   0  0  0  0  0  0  0  0  0  0  0  0
    2.2596   -2.5732   -2.7652 C   0  0  0  0  0  0  0  0  0  0  0  0
    1.4696   -3.4512   -3.0638 O   0  0  0  0  0  0  0  0  0  0  0  0
    3.6178   -2.7858   -2.9036 N   0  0  0  0  0  0  0  0  0  0  0  0
    4.1110   -4.0775   -3.3766 C   0  0  2  0  0  0  0  0  0  0  0  0
    3.3938   -4.4930   -4.1430 H   0  0  0  0  0  0  0  0  0  0  0  0
    4.1565   -5.0387   -2.1588 C   0  0  0  0  0  0  0  0  0  0  0  0
    5.1864   -5.3382   -1.5972 O   0  0  0  0  0  0  0  0  0  0  0  0
    2.9332   -5.5689   -1.7993 N   0  0  0  0  0  0  0  0  0  0  0  0
    2.8193   -6.3153   -0.5571 C   0  0  0  0  0  0  0  0  0  0  0  0
    2.2860   -5.4330    0.5516 C   0  0  0  0  0  0  0  0  0  0  0  0
    2.0728   -4.2507    0.5420 O   0  0  0  0  0  0  0  0  0  0  0  0
    2.0407   -6.1863    1.6508 O   0  0  0  0  0  0  0  0  0  0  0  0
    5.5216   -3.9719   -3.9516 C   0  0  0  0  0  0  0  0  0  0  0  0
    5.6600   -2.7539   -5.3081 S   0  0  0  0  0  0  0  0  0  0  0  0
   -0.3685   -0.8731    0.3464 H   0  0  0  0  0  0  0  0  0  0  0  0
   -0.3891    0.1876   -0.9138 H   0  0  0  0  0  0  0  0  0  0  0  0
    3.2896    2.6793   -0.3470 H   0  0  0  0  0  0  0  0  0  0  0  0
    3.2212   -1.1865   -0.5229 H   0  0  0  0  0  0  0  0  0  0  0  0
    1.7681   -2.1370   -0.2411 H   0  0  0  0  0  0  0  0  0  0  0  0
    2.3522   -0.3973   -2.7528 H   0  0  0  0  0  0  0  0  0  0  0  0
    0.7635   -1.0811   -2.4249 H   0  0  0  0  0  0  0  0  0  0  0  0
    4.2991   -2.0914   -2.6360 H   0  0  0  0  0  0  0  0  0  0  0  0
    2.0736   -5.1666   -2.1829 H   0  0  0  0  0  0  0  0  0  0  0  0
    3.8180   -6.7352   -0.2515 H   0  0  0  0  0  0  0  0  0  0  0  0
    2.1441   -7.1957   -0.7056 H   0  0  0  0  0  0  0  0  0  0  0  0
    1.6787   -5.6751    2.4173 H   0  0  0  0  0  0  0  0  0  0  0  0
    6.2530   -3.6731   -3.1667 H   0  0  0  0  0  0  0  0  0  0  0  0
    5.8680   -4.9707   -4.2875 H   0  0  0  0  0  0  0  0  0  0  0  0
    4.6797   -3.1888   -6.1101 H   0  0  0  0  0  0  0  0  0  0  0  0
  1  2  1  0  0  0  0
  1 23  1  0  0  0  0
  2  3  1  1  0  0  0
  4  2  1  0  0  0  0
  4  6  1  0  0  0  0
  5  4  2  0  0  0  0
  7 26  1  0  0  0  0
  7 27  1  0  0  0  0
  7  2  1  0  0  0  0
  8  7  1  0  0  0  0
  9  8  1  0  0  0  0
 10  9  2  0  0  0  0
 11  9  1  0  0  0  0
 11 30  1  0  0  0  0
 12 13  1  6  0  0  0
 12 11  1  0  0  0  0
 12 14  1  0  0  0  0
 14 16  1  0  0  0  0
 14 15  2  0  0  0  0
 16 17  1  0  0  0  0
 17 32  1  0  0  0  0
 17 18  1  0  0  0  0
 18 20  1  0  0  0  0
 19 18  2  0  0  0  0
 20 34  1  0  0  0  0
 21 12  1  0  0  0  0
 21 35  1  0  0  0  0
 22 21  1  0  0  0  0
 24  1  1  0  0  0  0
 25  6  1  0  0  0  0
 28  8  1  0  0  0  0
 29  8  1  0  0  0  0
 31 16  1  0  0  0  0
 33 17  1  0  0  0  0
 36 21  1  0  0  0  0
 37 22  1  0  0  0  0
M  END
$$$$
