
     RDKit          3D

 37 36  0  0  0  0  0  0  0  0999 V2000
    1.0565    1.1757    0.3037 N   0  0  0  0  0  0  0  0  0  0  0  0
    2.2057    0.2686    0.4030 C   0  0  2  0  0  0  0  0  0  0  0  0
    2.5008    0.0539    1.4444 H   0  0  0  0  0  0  0  0  0  0  0  0
    3.3682    1.0427   -0.2049 C   0  0  0  0  0  0  0  0  0  0  0  0
    3.8863    2.0029    0.3382 O   0  0  0  0  0  0  0  0  0  0  0  0
    3.7485    0.6386   -1.4135 O   0  0  0  0  0  0  0  0  0  0  0  0
    1.8756   -1.0551   -0.2890 C   0  0  0  0  0  0  0  0  0  0  0  0
    2.9466   -2.1377   -0.1774 C   0  0  0  0  0  0  0  0  0  0  0  0
    3.1182   -2.6868    1.2318 C   0  0  0  0  0  0  0  0  0  0  0  0
    2.3638   -2.3850    2.1586 O   0  0  0  0  0  0  0  0  0  0  0  0
    4.1567   -3.5433    1.3871 N   0  0  0  0  0  0  0  0  0  0  0  0
    4.5896   -4.0692    2.6747 C   0  0  2  0  0  0  0  0  0  0  0  0
    3.6850   -4.3022    3.2597 H   0  0  0  0  0  0  0  0  0  0  0  0
    5.3766   -2.9699    3.4261 C   0  0  0  0  0  0  0  0  0  0  0  0
    6.5923   -2.9778    3.5399 O   0  0  0  0  0  0  0  0  0  0  0  0
    4.5727   -1.9739    3.8968 N   0  0  0  0  0  0  0  0  0  0  0  0
    5.0931   -0.6350    4.0446 C   0  0  0  0  0  0  0  0  0  0  0  0
    4.9409    0.1097    2.7183 C   0  0  0  0  0  0  0  0  0  0  0  0
    5.0756   -0.4422    1.6451 O   0  0  0  0  0  0  0  0  0  0  0  0
    4.6034    1.3834    2.8661 O   0  0  0  0  0  0  0  0  0  0  0  0
    5.4054   -5.3486    2.4865 C   0  0  0  0  0  0  0  0  0  0  0  0
    6.7589   -5.2143    1.2505 S   0  0  0  0  0  0  0  0  0  0  0  0
    1.2449    2.0253    0.8365 H   0  0  0  0  0  0  0  0  0  0  0  0
    0.2459    0.7345    0.7383 H   0  0  0  0  0  0  0  0  0  0  0  0
    4.4811    1.2168   -1.6922 H   0  0  0  0  0  0  0  0  0  0  0  0
    0.9498   -1.4340    0.1714 H   0  0  0  0  0  0  0  0  0  0  0  0
    1.6575   -0.8514   -1.3469 H   0  0  0  0  0  0  0  0  0  0  0  0
    3.9232   -1.7655   -0.5230 H   0  0  0  0  0  0  0  0  0  0  0  0
    2.6860   -2.9820   -0.8381 H   0  0  0  0  0  0  0  0  0  0  0  0
    4.8484   -3.6330    0.6445 H   0  0  0  0  0  0  0  0  0  0  0  0
    3.5948   -2.0422    3.6014 H   0  0  0  0  0  0  0  0  0  0  0  0
    6.1639   -0.7038    4.2905 H   0  0  0  0  0  0  0  0  0  0  0  0
    4.5819   -0.0847    4.8462 H   0  0  0  0  0  0  0  0  0  0  0  0
    4.4202    1.7681    1.9686 H   0  0  0  0  0  0  0  0  0  0  0  0
    5.8241   -5.6639    3.4515 H   0  0  0  0  0  0  0  0  0  0  0  0
    4.7523   -6.1507    2.1145 H   0  0  0  0  0  0  0  0  0  0  0  0
    7.4242   -4.2568    1.9393 H   0  0  0  0  0  0  0  0  0  0  0  0
  1  2  1  0
  1 23  1  0
  1 24  1  0
  2  3  1  1
  2  4  1  0
  2  7  1  0
  4  5  2  0
  4  6  1  0
  6 25  1  0
  7  8  1  0
  7 26  1  0
  7 27  1  0
  8  9  1  0
  8 28  1  0
  8 29  1  0
  9 10  2  0
  9 11  1  0
 11 12  1  0
 11 30  1  0
 12 13  1  1
 12 14  1  0
 12 21  1  0
 14 15  2  0
 14 16  1  0
 16 17  1  0
 16 31  1  0
 17 18  1  0
 17 32  1  0
 17 33  1  0
 18 19  2  0
 18 20  1  0
 20 34  1  0
 21 22  1  0
 21 35  1  0
 21 36  1  0
 22 37  1  0
M  END

