37

N         -0.00470        0.02200        0.02480
C          1.44900        0.02800        0.04580
H          1.79700        0.02440        1.08990
C          2.09120        1.25840       -0.58810
O          3.14900        1.74840       -0.24070
O          1.36650        1.77720       -1.58420
C          1.96630       -1.26410       -0.62170
C          3.47930       -1.46030       -0.56030
C          4.21350       -0.63000       -1.60820
O          3.64500       -0.15850       -2.58130
N          5.55200       -0.41810       -1.40810
C          6.40370       -0.96620       -0.36670
H          6.00290       -1.94200       -0.05440
C          6.45330       -0.11670        0.92150
O          7.20560       -0.41340        1.84170
N          5.61700        0.94810        0.96600
C          5.37240        1.62620        2.20470
C          4.21410        1.00550        2.97040
O          3.62410        0.00050        2.65720
O          3.91830        1.72040        4.06660
C          7.81610       -1.21680       -0.92660
S          8.79810       -2.45630       -0.00810
H         -0.33610        0.08930       -0.93830
H         -0.37570        0.83840        0.50980
H          1.90360        2.47770       -1.99300
H          1.45860       -2.08730       -0.09920
H          1.64040       -1.28020       -1.67340
H          3.72240       -2.51940       -0.75730
H          3.84880       -1.23680        0.45110
H          5.98280        0.16680       -2.11900
H          4.91340        1.08420        0.24260
H          5.14770        2.69040        2.03790
H          6.26880        1.56200        2.84000
H          3.19000        1.26330        4.52160
H          7.71460       -1.62680       -1.94190
H          8.37100       -0.26760       -1.00210
H          8.64020       -1.84170        1.18830
