rmsd169.gzmat
 OpenBabel08211713423D

 37 36  0  0  1  0  0  0  0  0999 V2000
    0.0000    0.0000    0.0000 N   0  0  0  0  0  0  0  0  0  0  0  0
    1.4678    0.0000    0.0000 C   0  0  2  0  0  0  0  0  0  0  0  0
    1.8146    0.0000    1.0723 H   0  0  0  0  0  0  0  0  0  0  0  0
    2.0793    1.2215   -0.6846 C   0  0  0  0  0  0  0  0  0  0  0  0
    3.1370    1.7426   -0.4412 O   0  0  0  0  0  0  0  0  0  0  0  0
    1.2419    1.7273   -1.6167 O   0  0  0  0  0  0  0  0  0  0  0  0
    1.9609   -1.2770   -0.7134 C   0  0  0  0  0  0  0  0  0  0  0  0
    3.4587   -1.5170   -0.5243 C   0  0  0  0  0  0  0  0  0  0  0  0
    4.2463   -0.6090   -1.4403 C   0  0  0  0  0  0  0  0  0  0  0  0
    3.8013   -0.1807   -2.4925 O   0  0  0  0  0  0  0  0  0  0  0  0
    5.5245   -0.2818   -1.0433 N   0  0  0  0  0  0  0  0  0  0  0  0
    6.2643    0.7399   -1.7865 C   0  0  2  0  0  0  0  0  0  0  0  0
    5.5327    1.4694   -2.2485 H   0  0  0  0  0  0  0  0  0  0  0  0
    7.0446    0.0387   -2.9263 C   0  0  0  0  0  0  0  0  0  0  0  0
    8.2478   -0.0984   -2.9113 O   0  0  0  0  0  0  0  0  0  0  0  0
    6.2650   -0.3424   -3.9988 N   0  0  0  0  0  0  0  0  0  0  0  0
    6.8544   -1.1412   -5.0594 C   0  0  0  0  0  0  0  0  0  0  0  0
    6.6182   -2.6292   -4.9174 C   0  0  0  0  0  0  0  0  0  0  0  0
    7.0980   -3.4986   -5.5948 O   0  0  0  0  0  0  0  0  0  0  0  0
    5.7472   -2.9212   -3.9205 O   0  0  0  0  0  0  0  0  0  0  0  0
    7.2572    1.4774   -0.8929 C   0  0  0  0  0  0  0  0  0  0  0  0
    6.4921    2.1875    0.6146 S   0  0  0  0  0  0  0  0  0  0  0  0
   -0.3824   -0.0306   -0.9357 H   0  0  0  0  0  0  0  0  0  0  0  0
   -0.3824    0.8014    0.4792 H   0  0  0  0  0  0  0  0  0  0  0  0
    1.6323    2.4727   -2.1411 H   0  0  0  0  0  0  0  0  0  0  0  0
    1.3842   -2.1414   -0.3171 H   0  0  0  0  0  0  0  0  0  0  0  0
    1.7150   -1.2292   -1.7983 H   0  0  0  0  0  0  0  0  0  0  0  0
    3.7042   -2.5732   -0.7753 H   0  0  0  0  0  0  0  0  0  0  0  0
    3.7479   -1.3845    0.5373 H   0  0  0  0  0  0  0  0  0  0  0  0
    5.9335   -0.6213   -0.1858 H   0  0  0  0  0  0  0  0  0  0  0  0
    5.2477   -0.3679   -3.8997 H   0  0  0  0  0  0  0  0  0  0  0  0
    7.9670   -0.9648   -5.1063 H   0  0  0  0  0  0  0  0  0  0  0  0
    6.4410   -0.8085   -6.0465 H   0  0  0  0  0  0  0  0  0  0  0  0
    5.5817   -3.8925   -3.8221 H   0  0  0  0  0  0  0  0  0  0  0  0
    8.0794    0.8046   -0.5638 H   0  0  0  0  0  0  0  0  0  0  0  0
    7.7597    2.2802   -1.4709 H   0  0  0  0  0  0  0  0  0  0  0  0
    5.2553    2.4528    0.1580 H   0  0  0  0  0  0  0  0  0  0  0  0
  1  2  1  0  0  0  0
  1 24  1  0  0  0  0
  2  3  1  1  0  0  0
  4  5  2  0  0  0  0
  4  2  1  0  0  0  0
  6  4  1  0  0  0  0
  7  8  1  0  0  0  0
  7 26  1  0  0  0  0
  7  2  1  0  0  0  0
  8 29  1  0  0  0  0
  9 11  1  0  0  0  0
  9  8  1  0  0  0  0
 10  9  2  0  0  0  0
 11 30  1  0  0  0  0
 12 13  1  6  0  0  0
 12 11  1  0  0  0  0
 12 21  1  0  0  0  0
 14 15  2  0  0  0  0
 14 12  1  0  0  0  0
 16 31  1  0  0  0  0
 16 14  1  0  0  0  0
 17 18  1  0  0  0  0
 17 16  1  0  0  0  0
 18 20  1  0  0  0  0
 19 18  2  0  0  0  0
 20 34  1  0  0  0  0
 21 35  1  0  0  0  0
 21 22  1  0  0  0  0
 23  1  1  0  0  0  0
 25  6  1  0  0  0  0
 27  7  1  0  0  0  0
 28  8  1  0  0  0  0
 32 17  1  0  0  0  0
 33 17  1  0  0  0  0
 36 21  1  0  0  0  0
 37 22  1  0  0  0  0
M  END
$$$$
