rmsd218.gzmat
 OpenBabel08211713423D

 37 36  0  0  1  0  0  0  0  0999 V2000
    0.0000    0.0000    0.0000 N   0  0  0  0  0  0  0  0  0  0  0  0
    1.4670    0.0000    0.0000 C   0  0  2  0  0  0  0  0  0  0  0  0
    1.8180    0.0000    1.0759 H   0  0  0  0  0  0  0  0  0  0  0  0
    2.0749    1.2180   -0.6905 C   0  0  0  0  0  0  0  0  0  0  0  0
    3.1722    1.6931   -0.5292 O   0  0  0  0  0  0  0  0  0  0  0  0
    1.1874    1.8090   -1.5191 O   0  0  0  0  0  0  0  0  0  0  0  0
    1.9608   -1.2814   -0.7042 C   0  0  0  0  0  0  0  0  0  0  0  0
    3.4702   -1.4806   -0.5590 C   0  0  0  0  0  0  0  0  0  0  0  0
    4.2072   -0.6726   -1.5982 C   0  0  0  0  0  0  0  0  0  0  0  0
    3.6694   -0.1751   -2.5668 O   0  0  0  0  0  0  0  0  0  0  0  0
    5.5734   -0.4592   -1.4531 N   0  0  0  0  0  0  0  0  0  0  0  0
    6.3942   -1.0128   -0.3837 C   0  0  2  0  0  0  0  0  0  0  0  0
    5.9753   -2.0160   -0.0746 H   0  0  0  0  0  0  0  0  0  0  0  0
    6.4034   -0.1365    0.8914 C   0  0  0  0  0  0  0  0  0  0  0  0
    7.1474   -0.4127    1.8150 O   0  0  0  0  0  0  0  0  0  0  0  0
    5.5689    0.9508    0.9626 N   0  0  0  0  0  0  0  0  0  0  0  0
    5.4216    1.6387    2.2367 C   0  0  0  0  0  0  0  0  0  0  0  0
    4.2495    1.0575    2.9993 C   0  0  0  0  0  0  0  0  0  0  0  0
    3.4855    0.1915    2.6637 O   0  0  0  0  0  0  0  0  0  0  0  0
    4.1301    1.6780    4.1970 O   0  0  0  0  0  0  0  0  0  0  0  0
    7.8383   -1.1717   -0.8834 C   0  0  0  0  0  0  0  0  0  0  0  0
    8.7796   -2.4239    0.0660 S   0  0  0  0  0  0  0  0  0  0  0  0
   -0.3827   -0.0034   -0.9354 H   0  0  0  0  0  0  0  0  0  0  0  0
   -0.3817    0.7859    0.5031 H   0  0  0  0  0  0  0  0  0  0  0  0
    1.5772    2.5437   -2.0607 H   0  0  0  0  0  0  0  0  0  0  0  0
    1.4200   -2.1456   -0.2589 H   0  0  0  0  0  0  0  0  0  0  0  0
    1.6707   -1.2687   -1.7772 H   0  0  0  0  0  0  0  0  0  0  0  0
    3.7226   -2.5562   -0.6808 H   0  0  0  0  0  0  0  0  0  0  0  0
    3.7877   -1.2115    0.4737 H   0  0  0  0  0  0  0  0  0  0  0  0
    6.0317    0.1420   -2.1307 H   0  0  0  0  0  0  0  0  0  0  0  0
    4.8515    1.1456    0.2643 H   0  0  0  0  0  0  0  0  0  0  0  0
    5.2622    2.7328    2.0629 H   0  0  0  0  0  0  0  0  0  0  0  0
    6.3564    1.5478    2.8556 H   0  0  0  0  0  0  0  0  0  0  0  0
    3.3872    1.3363    4.7543 H   0  0  0  0  0  0  0  0  0  0  0  0
    7.8482   -1.5220   -1.9378 H   0  0  0  0  0  0  0  0  0  0  0  0
    8.3742   -0.2040   -0.8695 H   0  0  0  0  0  0  0  0  0  0  0  0
    8.7008   -1.8877    1.2985 H   0  0  0  0  0  0  0  0  0  0  0  0
  1  2  1  0  0  0  0
  1 24  1  0  0  0  0
  2  3  1  1  0  0  0
  4  5  2  0  0  0  0
  4  2  1  0  0  0  0
  6  4  1  0  0  0  0
  7  8  1  0  0  0  0
  7 26  1  0  0  0  0
  7  2  1  0  0  0  0
  8 29  1  0  0  0  0
  9 11  1  0  0  0  0
  9  8  1  0  0  0  0
 10  9  2  0  0  0  0
 11 12  1  0  0  0  0
 12 13  1  1  0  0  0
 12 14  1  0  0  0  0
 14 16  1  0  0  0  0
 14 15  2  0  0  0  0
 16 17  1  0  0  0  0
 17 33  1  0  0  0  0
 17 18  1  0  0  0  0
 18 20  1  0  0  0  0
 19 18  2  0  0  0  0
 20 34  1  0  0  0  0
 21 36  1  0  0  0  0
 21 12  1  0  0  0  0
 21 22  1  0  0  0  0
 22 37  1  0  0  0  0
 23  1  1  0  0  0  0
 25  6  1  0  0  0  0
 27  7  1  0  0  0  0
 28  8  1  0  0  0  0
 30 11  1  0  0  0  0
 31 16  1  0  0  0  0
 32 17  1  0  0  0  0
 35 21  1  0  0  0  0
M  END
$$$$
