
     RDKit          3D

 49 51  0  0  0  0  0  0  0  0999 V2000
    0.5952    0.5352    0.0739 C   0  0  0  0  0  0  0  0  0  0  0  0
    1.7523   -0.2638    0.1007 C   0  0  0  0  0  0  0  0  0  0  0  0
    2.5829   -0.2391    1.2173 C   0  0  0  0  0  0  0  0  0  0  0  0
    2.2692    0.5790    2.3095 C   0  0  0  0  0  0  0  0  0  0  0  0
    1.1214    1.3710    2.2813 C   0  0  0  0  0  0  0  0  0  0  0  0
    0.2835    1.3469    1.1593 C   0  0  0  0  0  0  0  0  0  0  0  0
    2.0885   -1.0752   -0.9545 O   0  0  0  0  0  0  0  0  0  0  0  0
    1.1997   -1.0751   -2.0076 C   0  0  0  0  0  0  0  0  0  0  0  0
    0.0983   -0.3202   -2.0454 C   0  0  0  0  0  0  0  0  0  0  0  0
   -0.2490    0.5364   -1.0151 O   0  0  0  0  0  0  0  0  0  0  0  0
   -0.8969   -0.3044   -3.1799 C   0  0  1  0  0  0  0  0  0  0  0  0
   -0.9553    0.7332   -3.5577 H   0  0  0  0  0  0  0  0  0  0  0  0
   -0.5004   -1.1520   -4.2235 O   0  0  0  0  0  0  0  0  0  0  0  0
   -2.2962   -0.7227   -2.6845 C   0  0  0  0  0  0  0  0  0  0  0  0
   -2.2829   -2.1645   -2.4773 N   0  0  0  0  0  0  0  0  0  0  0  0
   -3.5753   -2.8265   -2.4006 C   0  0  0  0  0  0  0  0  0  0  0  0
   -4.4631   -2.4221   -1.2052 C   0  0  0  0  0  0  0  0  0  0  0  0
   -5.7767   -3.1629   -1.1973 C   0  0  0  0  0  0  0  0  0  0  0  0
   -5.9243   -4.3693   -0.5076 C   0  0  0  0  0  0  0  0  0  0  0  0
   -7.1294   -5.0761   -0.5705 C   0  0  0  0  0  0  0  0  0  0  0  0
   -8.2086   -4.5965   -1.3097 C   0  0  0  0  0  0  0  0  0  0  0  0
   -8.0750   -3.3691   -2.0044 C   0  0  0  0  0  0  0  0  0  0  0  0
   -9.1722   -2.9377   -2.6798 O   0  0  0  0  0  0  0  0  0  0  0  0
   -9.1125   -1.7093   -3.3658 C   0  0  0  0  0  0  0  0  0  0  0  0
   -6.8619   -2.6751   -1.9462 C   0  0  0  0  0  0  0  0  0  0  0  0
   -9.3843   -5.2885   -1.2947 O   0  0  0  0  0  0  0  0  0  0  0  0
   -9.8258   -5.8322   -2.5287 C   0  0  0  0  0  0  0  0  0  0  0  0
    3.4741   -0.8693    1.2094 H   0  0  0  0  0  0  0  0  0  0  0  0
    2.9280    0.5923    3.1801 H   0  0  0  0  0  0  0  0  0  0  0  0
    0.8707    2.0119    3.1289 H   0  0  0  0  0  0  0  0  0  0  0  0
   -0.6207    1.9561    1.1057 H   0  0  0  0  0  0  0  0  0  0  0  0
    1.4821   -1.7302   -2.8265 H   0  0  0  0  0  0  0  0  0  0  0  0
   -0.9418   -1.9976   -4.0026 H   0  0  0  0  0  0  0  0  0  0  0  0
   -3.0253   -0.5014   -3.4808 H   0  0  0  0  0  0  0  0  0  0  0  0
   -2.5735   -0.1267   -1.7956 H   0  0  0  0  0  0  0  0  0  0  0  0
   -1.7094   -2.3966   -1.6658 H   0  0  0  0  0  0  0  0  0  0  0  0
   -3.4084   -3.9158   -2.3670 H   0  0  0  0  0  0  0  0  0  0  0  0
   -4.1220   -2.6289   -3.3387 H   0  0  0  0  0  0  0  0  0  0  0  0
   -4.6451   -1.3354   -1.2384 H   0  0  0  0  0  0  0  0  0  0  0  0
   -3.9108   -2.6232   -0.2715 H   0  0  0  0  0  0  0  0  0  0  0  0
   -5.0946   -4.7630    0.0849 H   0  0  0  0  0  0  0  0  0  0  0  0
   -7.2642   -6.0173   -0.0339 H   0  0  0  0  0  0  0  0  0  0  0  0
  -10.0989   -1.5576   -3.8235 H   0  0  0  0  0  0  0  0  0  0  0  0
   -8.3450   -1.7190   -4.1609 H   0  0  0  0  0  0  0  0  0  0  0  0
   -8.9014   -0.8689   -2.6806 H   0  0  0  0  0  0  0  0  0  0  0  0
   -6.7504   -1.7278   -2.4748 H   0  0  0  0  0  0  0  0  0  0  0  0
  -10.7341   -6.4114   -2.3112 H   0  0  0  0  0  0  0  0  0  0  0  0
   -9.0646   -6.5094   -2.9580 H   0  0  0  0  0  0  0  0  0  0  0  0
  -10.0631   -5.0455   -3.2614 H   0  0  0  0  0  0  0  0  0  0  0  0
  1  2  1  0
  1  6  2  0
  1 10  1  0
  2  3  2  0
  2  7  1  0
  3  4  1  0
  3 28  1  0
  4  5  2  0
  4 29  1  0
  5  6  1  0
  5 30  1  0
  6 31  1  0
  7  8  1  0
  8  9  2  0
  8 32  1  0
  9 10  1  0
  9 11  1  0
 11 12  1  6
 11 13  1  0
 11 14  1  0
 13 33  1  0
 14 15  1  0
 14 34  1  0
 14 35  1  0
 15 16  1  0
 15 36  1  0
 16 17  1  0
 16 37  1  0
 16 38  1  0
 17 18  1  0
 17 39  1  0
 17 40  1  0
 18 19  2  0
 18 25  1  0
 19 20  1  0
 19 41  1  0
 20 21  2  0
 20 42  1  0
 21 22  1  0
 21 26  1  0
 22 23  1  0
 22 25  2  0
 23 24  1  0
 24 43  1  0
 24 44  1  0
 24 45  1  0
 25 46  1  0
 26 27  1  0
 27 47  1  0
 27 48  1  0
 27 49  1  0
M  END

