49

C          0.23370        0.06350        0.02950
C          1.62050       -0.15700       -0.05820
C          2.37830       -0.25430        1.10540
C          1.76470       -0.13280        2.35820
C          0.39000        0.08560        2.44340
C         -0.37510        0.18370        1.27420
O          2.25280       -0.28020       -1.26940
C          1.43490       -0.19270       -2.37660
C          0.11980        0.02090       -2.30320
O         -0.54770        0.16820       -1.09920
C         -0.80490        0.10740       -3.47640
H         -1.38090        1.05320       -3.36020
O         -0.07740        0.10070       -4.67280
C         -1.80950       -1.06650       -3.48850
N         -2.50440       -1.07860       -4.77180
C         -3.67230       -0.21270       -4.88770
C         -4.91110       -0.66100       -4.08650
C         -6.06000        0.30550       -4.22820
C         -6.22220        1.37340       -3.34140
C         -7.25630        2.30200       -3.50610
C         -8.15590        2.18210       -4.57110
C         -7.99420        1.11440       -5.48790
O         -8.86410        0.91510       -6.51950
C         -8.91890        1.91740       -7.52290
C         -6.95680        0.20280       -5.30330
O         -9.20740        3.01500       -4.78970
C         -9.43540        4.07320       -3.88860
H          3.45190       -0.42520        1.00630
H          2.36900       -0.21020        3.26440
H         -0.09590        0.18170        3.41650
H         -1.45260        0.35560        1.30690
H          1.95430       -0.30110       -3.32410
H         -0.71180       -0.27360       -5.31620
H         -2.47360       -1.00070       -2.60750
H         -1.23120       -1.99900       -3.40060
H         -2.73170       -2.02900       -5.05370
H         -3.94530       -0.13020       -5.95280
H         -3.38710        0.80360       -4.57090
H         -4.64120       -0.76280       -3.02330
H         -5.21410       -1.66310       -4.43600
H         -5.53740        1.48540       -2.49640
H         -7.36210        3.11290       -2.78600
H         -9.60090        1.54670       -8.30070
H         -7.92190        2.08280       -7.97120
H         -9.29990        2.87170       -7.12850
H         -6.87560       -0.61190       -6.02700
H        -10.32860        4.60240       -4.24600
H         -8.58620        4.77970       -3.86040
H         -9.62250        3.70370       -2.86450
