rmsd77.gzmat
 OpenBabel08211713383D

 49 51  0  0  1  0  0  0  0  0999 V2000
    0.0000    0.0000    0.0000 C   0  0  0  0  0  0  0  0  0  0  0  0
    1.4019    0.0000    0.0000 C   0  0  0  0  0  0  0  0  0  0  0  0
    2.1125    0.0000    1.1920 C   0  0  0  0  0  0  0  0  0  0  0  0
    1.3953   -0.0013    2.3922 C   0  0  0  0  0  0  0  0  0  0  0  0
    0.0034   -0.0023    2.3915 C   0  0  0  0  0  0  0  0  0  0  0  0
   -0.7128   -0.0013    1.1905 C   0  0  0  0  0  0  0  0  0  0  0  0
    2.1370   -0.0014   -1.1633 O   0  0  0  0  0  0  0  0  0  0  0  0
    1.3746    0.0342   -2.3082 C   0  0  0  0  0  0  0  0  0  0  0  0
    0.0382    0.0348   -2.3106 C   0  0  0  0  0  0  0  0  0  0  0  0
   -0.7376   -0.0030   -1.1623 O   0  0  0  0  0  0  0  0  0  0  0  0
   -0.8530    0.0871   -3.5144 C   0  0  1  0  0  0  0  0  0  0  0  0
   -1.4708    1.0174   -3.5154 H   0  0  0  0  0  0  0  0  0  0  0  0
    0.0122    0.1662   -4.6290 O   0  0  0  0  0  0  0  0  0  0  0  0
   -1.7317   -1.1884   -3.5784 C   0  0  0  0  0  0  0  0  0  0  0  0
   -2.3842   -1.2327   -4.9031 N   0  0  0  0  0  0  0  0  0  0  0  0
   -3.5469   -0.3375   -5.0298 C   0  0  0  0  0  0  0  0  0  0  0  0
   -4.7996   -0.7974   -4.2496 C   0  0  0  0  0  0  0  0  0  0  0  0
   -5.8612    0.2497   -4.3773 C   0  0  0  0  0  0  0  0  0  0  0  0
   -5.8959    1.3215   -3.4879 C   0  0  0  0  0  0  0  0  0  0  0  0
   -6.8680    2.3140   -3.6157 C   0  0  0  0  0  0  0  0  0  0  0  0
   -7.8092    2.2382   -4.6359 C   0  0  0  0  0  0  0  0  0  0  0  0
   -7.7769    1.1565   -5.5423 C   0  0  0  0  0  0  0  0  0  0  0  0
   -8.6085    0.9209   -6.5895 O   0  0  0  0  0  0  0  0  0  0  0  0
   -9.6212    1.8759   -6.8734 C   0  0  0  0  0  0  0  0  0  0  0  0
   -6.8023    0.1657   -5.4044 C   0  0  0  0  0  0  0  0  0  0  0  0
   -8.8085    3.1447   -4.8481 O   0  0  0  0  0  0  0  0  0  0  0  0
   -8.8322    4.2826   -3.9984 C   0  0  0  0  0  0  0  0  0  0  0  0
    3.2002    0.0000    1.1842 H   0  0  0  0  0  0  0  0  0  0  0  0
    1.9382   -0.0015    3.3364 H   0  0  0  0  0  0  0  0  0  0  0  0
   -0.5396   -0.0042    3.3354 H   0  0  0  0  0  0  0  0  0  0  0  0
   -1.7998   -0.0012    1.1816 H   0  0  0  0  0  0  0  0  0  0  0  0
    2.0389    0.0614   -3.1656 H   0  0  0  0  0  0  0  0  0  0  0  0
   -0.4369   -0.2439   -5.4108 H   0  0  0  0  0  0  0  0  0  0  0  0
   -2.4365   -1.1982   -2.7208 H   0  0  0  0  0  0  0  0  0  0  0  0
   -1.0825   -2.0863   -3.4729 H   0  0  0  0  0  0  0  0  0  0  0  0
   -2.6281   -2.1887   -5.1547 H   0  0  0  0  0  0  0  0  0  0  0  0
   -3.7875   -0.2659   -6.1164 H   0  0  0  0  0  0  0  0  0  0  0  0
   -3.2583    0.6888   -4.7118 H   0  0  0  0  0  0  0  0  0  0  0  0
   -4.5485   -0.9731   -3.1846 H   0  0  0  0  0  0  0  0  0  0  0  0
   -5.1526   -1.7744   -4.6325 H   0  0  0  0  0  0  0  0  0  0  0  0
   -5.1631    1.3909   -2.6868 H   0  0  0  0  0  0  0  0  0  0  0  0
   -6.8769    3.1390   -2.9086 H   0  0  0  0  0  0  0  0  0  0  0  0
  -10.0945    1.4479   -7.7675 H   0  0  0  0  0  0  0  0  0  0  0  0
   -9.1864    2.8553   -7.0988 H   0  0  0  0  0  0  0  0  0  0  0  0
  -10.3384    1.9388   -6.0480 H   0  0  0  0  0  0  0  0  0  0  0  0
   -6.7909   -0.6646   -6.1086 H   0  0  0  0  0  0  0  0  0  0  0  0
   -9.6931    4.8425   -4.3886 H   0  0  0  0  0  0  0  0  0  0  0  0
   -7.9147    4.8704   -4.1019 H   0  0  0  0  0  0  0  0  0  0  0  0
   -9.0077    3.9900   -2.9582 H   0  0  0  0  0  0  0  0  0  0  0  0
  1  2  2  0  0  0  0
  1  6  1  0  0  0  0
  2  3  1  0  0  0  0
  3  4  2  0  0  0  0
  4 29  1  0  0  0  0
  5  4  1  0  0  0  0
  5 30  1  0  0  0  0
  6  5  2  0  0  0  0
  7  2  1  0  0  0  0
  8  7  1  0  0  0  0
  9  8  2  0  0  0  0
  9 10  1  0  0  0  0
 10  1  1  0  0  0  0
 11 12  1  1  0  0  0
 11  9  1  0  0  0  0
 13 11  1  0  0  0  0
 14 11  1  0  0  0  0
 14 35  1  0  0  0  0
 14 34  1  0  0  0  0
 15 14  1  0  0  0  0
 16 15  1  0  0  0  0
 16 38  1  0  0  0  0
 16 17  1  0  0  0  0
 17 39  1  0  0  0  0
 18 17  1  0  0  0  0
 18 19  2  0  0  0  0
 19 41  1  0  0  0  0
 20 19  1  0  0  0  0
 20 42  1  0  0  0  0
 21 20  2  0  0  0  0
 22 25  2  0  0  0  0
 22 21  1  0  0  0  0
 23 22  1  0  0  0  0
 24 23  1  0  0  0  0
 24 45  1  0  0  0  0
 25 18  1  0  0  0  0
 26 21  1  0  0  0  0
 26 27  1  0  0  0  0
 27 49  1  0  0  0  0
 28  3  1  0  0  0  0
 31  6  1  0  0  0  0
 32  8  1  0  0  0  0
 33 13  1  0  0  0  0
 36 15  1  0  0  0  0
 37 16  1  0  0  0  0
 40 17  1  0  0  0  0
 43 24  1  0  0  0  0
 44 24  1  0  0  0  0
 46 25  1  0  0  0  0
 47 27  1  0  0  0  0
 48 27  1  0  0  0  0
M  END
$$$$
