49

C         -0.11360       -0.32170        0.03740
C          1.26280       -0.10460        0.22200
C          1.82030       -0.24160        1.48920
C          1.01260       -0.59480        2.57720
C         -0.35290       -0.80980        2.39230
C         -0.91590       -0.67190        1.11730
O          2.08190        0.24350       -0.82580
C          1.46430        0.35000       -2.04960
C          0.15680        0.15910       -2.24220
O         -0.69620       -0.19040       -1.20560
C         -0.57210        0.27090       -3.54510
H          0.15750        0.41880       -4.35540
O         -1.25520       -0.94240       -3.83920
C         -1.55150        1.45060       -3.56640
N         -2.18240        1.52050       -4.86610
C         -3.19320        2.54360       -5.03840
C         -4.49280        2.36320       -4.21770
C         -5.48340        3.47190       -4.46550
C         -5.50180        4.61690       -3.66380
C         -6.38820        5.66190       -3.94290
C         -7.25960        5.59680       -5.02800
C         -7.24010        4.44900       -5.85730
O         -8.09740        4.45470       -6.91220
C         -8.09720        3.35940       -7.79680
C         -6.35920        3.40300       -5.56320
O         -8.07220        6.66090       -5.29550
C         -9.46890        6.44470       -5.17610
H          2.89170       -0.06690        1.60240
H          1.45890       -0.70010        3.56800
H         -0.98860       -1.08530        3.23600
H         -1.98120       -0.83190        0.94120
H          2.15070        0.60960       -2.85300
H         -1.73130       -1.19410       -3.03380
H         -0.99400        2.38440       -3.37500
H         -2.25530        1.32410       -2.71370
H         -2.53980        0.59660       -5.10740
H         -3.46060        2.59840       -6.10760
H         -2.75070        3.52340       -4.78680
H         -4.24620        2.32170       -3.14500
H         -4.93820        1.38790       -4.48070
H         -4.82610        4.69200       -2.80810
H         -6.41980        6.56050       -3.32350
H         -8.84280        3.58190       -8.57160
H         -8.37750        2.41910       -7.28830
H         -7.11140        3.22150       -8.27580
H         -6.33940        2.51360       -6.19380
H         -9.95540        7.41390       -5.35500
H         -9.73080        6.09580       -4.16010
H         -9.83460        5.71330       -5.91370
