49

C          0.20090       -0.09120        0.08820
C          1.54620       -0.49080        0.16640
C          2.17470       -0.56370        1.40460
C          1.47490       -0.22230        2.56770
C          0.14560        0.19300        2.48770
C         -0.49230        0.25690        1.24160
O          2.26080       -0.82340       -0.95770
C          1.54420       -0.82800       -2.13380
C          0.25910       -0.47310       -2.21720
O         -0.46620       -0.05710       -1.11570
C         -0.58870       -0.55240       -3.46340
H         -1.12450        0.40920       -3.56360
O          0.18680       -0.77870       -4.61070
C         -1.62270       -1.68590       -3.30310
N         -0.90500       -2.94110       -3.48030
C         -1.69450       -4.15860       -3.39380
C         -2.23200       -4.47580       -1.97850
C         -1.14550       -4.36710       -0.93120
C         -1.19040       -3.38750        0.06270
C         -0.13960       -3.25360        0.97760
C          0.98640       -4.06580        0.89930
C          1.05180       -5.05940       -0.10910
O          2.18410       -5.80850       -0.14060
C          2.33470       -6.77540       -1.15310
C         -0.01510       -5.20410       -1.00140
O          2.03020       -3.84600        1.75100
C          2.31560       -4.86680        2.69280
H          3.20740       -0.91220        1.43770
H          1.97510       -0.28900        3.53570
H         -0.40460        0.46490        3.39080
H         -1.53480        0.56540        1.14490
H          2.12110       -1.13010       -3.00330
H          0.13350       -1.74620       -4.74110
H         -2.38340       -1.60090       -4.09700
H         -2.13390       -1.57730       -2.32840
H         -0.15830       -2.98890       -2.78300
H         -1.06210       -4.99550       -3.73520
H         -2.53300       -4.09340       -4.10730
H         -2.66680       -5.49050       -1.98830
H         -3.05130       -3.78670       -1.72140
H         -2.04800       -2.71430        0.12730
H         -0.16520       -2.49320        1.75800
H          3.31930       -7.23700       -1.00210
H          2.30160       -6.32040       -2.15930
H          1.55760       -7.55880       -1.09330
H          0.02940       -5.96690       -1.77910
H          3.13400       -4.49440        3.32470
H          2.63270       -5.80000        2.20120
H          1.43710       -5.07370        3.33130
