49
rmsd201.gzmat
C          0.00000        0.00000        0.00000
C          1.40120        0.00000        0.00000
C          2.11240        0.00000        1.19170
C          1.39490        0.00540        2.39160
C          0.00270        0.01060        2.39090
C         -0.71360        0.00660        1.19000
O          2.13530        0.00470       -1.16390
C          1.37190       -0.02320       -2.30820
C          0.03470       -0.02800       -2.31310
O         -0.73620       -0.00870       -1.16360
C         -0.83370       -0.05620       -3.53970
H         -0.95880        0.97350       -3.95680
O         -0.13860       -0.73850       -4.55560
C         -2.20420       -0.72540       -3.28280
N         -1.95150       -2.13210       -2.89450
C         -3.18810       -2.94550       -2.94090
C         -2.84170       -4.38900       -2.52150
C         -3.97370       -5.30090       -2.87910
C         -4.11420       -5.75120       -4.19060
C         -5.16400       -6.60030       -4.53940
C         -6.07850       -7.00560       -3.57340
C         -5.94190       -6.55370       -2.24410
O         -6.76130       -6.81900       -1.19290
C         -7.69590       -7.88080       -1.32800
C         -4.88910       -5.70120       -1.90470
O         -7.14060       -7.83430       -3.79860
C         -7.29460       -8.33120       -5.12040
H          3.20010       -0.00200        1.18330
H          1.93720        0.00680        3.33590
H         -0.54090        0.01880        3.33470
H         -1.80070        0.01280        1.18200
H          2.03760       -0.04320       -3.16370
H         -0.26050       -1.71540       -4.43680
H         -2.79230       -0.70650       -4.22720
H         -2.77690       -0.15110       -2.52480
H         -1.52190       -2.16010       -1.96830
H         -3.56870       -2.93800       -3.98690
H         -3.99880       -2.54470       -2.29710
H         -2.61300       -4.43120       -1.43890
H         -1.90630       -4.70960       -3.02970
H         -3.40020       -5.44140       -4.95130
H         -5.25360       -6.93570       -5.56870
H         -8.09360       -7.96730       -0.30820
H         -7.20550       -8.81010       -1.63320
H         -8.49060       -7.60370       -2.02960
H         -4.79770       -5.35960       -0.87480
H         -8.17960       -8.97390       -5.02320
H         -6.42490       -8.92210       -5.42350
H         -7.49020       -7.51490       -5.82270
