rmsd155.gzmat
 OpenBabel08211713383D

 49 51  0  0  1  0  0  0  0  0999 V2000
    0.0000    0.0000    0.0000 C   0  0  0  0  0  0  0  0  0  0  0  0
    1.4017    0.0000    0.0000 C   0  0  0  0  0  0  0  0  0  0  0  0
    2.1115    0.0000    1.1926 C   0  0  0  0  0  0  0  0  0  0  0  0
    1.3932   -0.0013    2.3923 C   0  0  0  0  0  0  0  0  0  0  0  0
    0.0013   -0.0042    2.3908 C   0  0  0  0  0  0  0  0  0  0  0  0
   -0.7145   -0.0025    1.1896 C   0  0  0  0  0  0  0  0  0  0  0  0
    2.1365    0.0000   -1.1637 O   0  0  0  0  0  0  0  0  0  0  0  0
    1.3744   -0.0162   -2.3096 C   0  0  0  0  0  0  0  0  0  0  0  0
    0.0382   -0.0143   -2.3123 C   0  0  0  0  0  0  0  0  0  0  0  0
   -0.7365    0.0024   -1.1624 O   0  0  0  0  0  0  0  0  0  0  0  0
   -0.8603   -0.0172   -3.5113 C   0  0  1  0  0  0  0  0  0  0  0  0
   -1.4180    0.9468   -3.5968 H   0  0  0  0  0  0  0  0  0  0  0  0
   -0.0046   -0.1070   -4.6334 O   0  0  0  0  0  0  0  0  0  0  0  0
   -1.8175   -1.2340   -3.4564 C   0  0  0  0  0  0  0  0  0  0  0  0
   -2.5976   -1.2553   -4.7115 N   0  0  0  0  0  0  0  0  0  0  0  0
   -3.7516   -0.3388   -4.7042 C   0  0  0  0  0  0  0  0  0  0  0  0
   -4.9164   -0.7882   -3.7926 C   0  0  0  0  0  0  0  0  0  0  0  0
   -5.9315    0.3083   -3.7154 C   0  0  0  0  0  0  0  0  0  0  0  0
   -7.0611    0.2835   -4.5288 C   0  0  0  0  0  0  0  0  0  0  0  0
   -7.9978    1.3128   -4.4605 C   0  0  0  0  0  0  0  0  0  0  0  0
   -7.8022    2.3781   -3.5807 C   0  0  0  0  0  0  0  0  0  0  0  0
   -6.6514    2.4058   -2.7633 C   0  0  0  0  0  0  0  0  0  0  0  0
   -6.5456    3.4969   -1.9524 O   0  0  0  0  0  0  0  0  0  0  0  0
   -5.4338    3.5347   -1.0679 C   0  0  0  0  0  0  0  0  0  0  0  0
   -5.7263    1.3711   -2.8290 C   0  0  0  0  0  0  0  0  0  0  0  0
   -8.7768    3.3231   -3.6653 O   0  0  0  0  0  0  0  0  0  0  0  0
   -8.8909    4.2503   -2.5943 C   0  0  0  0  0  0  0  0  0  0  0  0
    3.1994    0.0000    1.1855 H   0  0  0  0  0  0  0  0  0  0  0  0
    1.9347   -0.0020    3.3373 H   0  0  0  0  0  0  0  0  0  0  0  0
   -0.5415   -0.0100    3.3348 H   0  0  0  0  0  0  0  0  0  0  0  0
   -1.8015   -0.0041    1.1811 H   0  0  0  0  0  0  0  0  0  0  0  0
    2.0396   -0.0289   -3.1667 H   0  0  0  0  0  0  0  0  0  0  0  0
   -0.5225   -0.4684   -5.3950 H   0  0  0  0  0  0  0  0  0  0  0  0
   -2.4377   -1.1829   -2.5365 H   0  0  0  0  0  0  0  0  0  0  0  0
   -1.2167   -2.1677   -3.3871 H   0  0  0  0  0  0  0  0  0  0  0  0
   -2.8865   -2.2037   -4.9427 H   0  0  0  0  0  0  0  0  0  0  0  0
   -4.1092   -0.2504   -5.7558 H   0  0  0  0  0  0  0  0  0  0  0  0
   -3.4108    0.6786   -4.4110 H   0  0  0  0  0  0  0  0  0  0  0  0
   -4.5406   -1.0407   -2.7806 H   0  0  0  0  0  0  0  0  0  0  0  0
   -5.3639   -1.7242   -4.1784 H   0  0  0  0  0  0  0  0  0  0  0  0
   -7.2217   -0.5405   -5.2209 H   0  0  0  0  0  0  0  0  0  0  0  0
   -8.8879    1.2994   -5.0889 H   0  0  0  0  0  0  0  0  0  0  0  0
   -5.5925    4.4853   -0.5412 H   0  0  0  0  0  0  0  0  0  0  0  0
   -4.4907    3.5604   -1.6236 H   0  0  0  0  0  0  0  0  0  0  0  0
   -5.4636    2.6975   -0.3640 H   0  0  0  0  0  0  0  0  0  0  0  0
   -4.8384    1.3762   -2.2025 H   0  0  0  0  0  0  0  0  0  0  0  0
   -9.8613    4.7214   -2.7994 H   0  0  0  0  0  0  0  0  0  0  0  0
   -8.0824    4.9885   -2.6493 H   0  0  0  0  0  0  0  0  0  0  0  0
   -8.9027    3.7488   -1.6224 H   0  0  0  0  0  0  0  0  0  0  0  0
  1  6  1  0  0  0  0
  2  1  2  0  0  0  0
  2  3  1  0  0  0  0
  3  4  2  0  0  0  0
  4 29  1  0  0  0  0
  5  4  1  0  0  0  0
  5 30  1  0  0  0  0
  6  5  2  0  0  0  0
  7  2  1  0  0  0  0
  8  7  1  0  0  0  0
  9  8  2  0  0  0  0
  9 10  1  0  0  0  0
 10  1  1  0  0  0  0
 11 12  1  6  0  0  0
 11 14  1  0  0  0  0
 11  9  1  0  0  0  0
 13 11  1  0  0  0  0
 14 35  1  0  0  0  0
 14 34  1  0  0  0  0
 15 16  1  0  0  0  0
 15 14  1  0  0  0  0
 16 38  1  0  0  0  0
 16 17  1  0  0  0  0
 17 18  1  0  0  0  0
 17 39  1  0  0  0  0
 18 25  2  0  0  0  0
 19 20  2  0  0  0  0
 19 18  1  0  0  0  0
 20 21  1  0  0  0  0
 21 22  2  0  0  0  0
 22 23  1  0  0  0  0
 23 24  1  0  0  0  0
 24 43  1  0  0  0  0
 24 45  1  0  0  0  0
 25 22  1  0  0  0  0
 25 46  1  0  0  0  0
 26 21  1  0  0  0  0
 26 27  1  0  0  0  0
 27 49  1  0  0  0  0
 28  3  1  0  0  0  0
 31  6  1  0  0  0  0
 32  8  1  0  0  0  0
 33 13  1  0  0  0  0
 36 15  1  0  0  0  0
 37 16  1  0  0  0  0
 40 17  1  0  0  0  0
 41 19  1  0  0  0  0
 42 20  1  0  0  0  0
 44 24  1  0  0  0  0
 47 27  1  0  0  0  0
 48 27  1  0  0  0  0
M  END
$$$$
