49

C          0.59520        0.53520        0.07390
C          1.75230       -0.26380        0.10070
C          2.58290       -0.23910        1.21730
C          2.26920        0.57900        2.30950
C          1.12140        1.37100        2.28130
C          0.28350        1.34690        1.15930
O          2.08850       -1.07520       -0.95450
C          1.19970       -1.07510       -2.00760
C          0.09830       -0.32020       -2.04540
O         -0.24900        0.53640       -1.01510
C         -0.89690       -0.30440       -3.17990
H         -0.95530        0.73320       -3.55770
O         -0.50040       -1.15200       -4.22350
C         -2.29620       -0.72270       -2.68450
N         -2.28290       -2.16450       -2.47730
C         -3.57530       -2.82650       -2.40060
C         -4.46310       -2.42210       -1.20520
C         -5.77670       -3.16290       -1.19730
C         -5.92430       -4.36930       -0.50760
C         -7.12940       -5.07610       -0.57050
C         -8.20860       -4.59650       -1.30970
C         -8.07500       -3.36910       -2.00440
O         -9.17220       -2.93770       -2.67980
C         -9.11250       -1.70930       -3.36580
C         -6.86190       -2.67510       -1.94620
O         -9.38430       -5.28850       -1.29470
C         -9.82580       -5.83220       -2.52870
H          3.47410       -0.86930        1.20940
H          2.92800        0.59230        3.18010
H          0.87070        2.01190        3.12890
H         -0.62070        1.95610        1.10570
H          1.48210       -1.73020       -2.82650
H         -0.94180       -1.99760       -4.00260
H         -3.02530       -0.50140       -3.48080
H         -2.57350       -0.12670       -1.79560
H         -1.70940       -2.39660       -1.66580
H         -3.40840       -3.91580       -2.36700
H         -4.12200       -2.62890       -3.33870
H         -4.64510       -1.33540       -1.23840
H         -3.91080       -2.62320       -0.27150
H         -5.09460       -4.76300        0.08490
H         -7.26420       -6.01730       -0.03390
H        -10.09890       -1.55760       -3.82350
H         -8.34500       -1.71900       -4.16090
H         -8.90140       -0.86890       -2.68060
H         -6.75040       -1.72780       -2.47480
H        -10.73410       -6.41140       -2.31120
H         -9.06460       -6.50940       -2.95800
H        -10.06310       -5.04550       -3.26140
