
     RDKit          3D

 49 51  0  0  0  0  0  0  0  0999 V2000
    0.3882   -0.1187    0.1777 C   0  0  0  0  0  0  0  0  0  0  0  0
    1.7615   -0.3866    0.0293 C   0  0  0  0  0  0  0  0  0  0  0  0
    2.5639   -0.5212    1.1588 C   0  0  0  0  0  0  0  0  0  0  0  0
    2.0084   -0.3907    2.4375 C   0  0  0  0  0  0  0  0  0  0  0  0
    0.6469   -0.1257    2.5829 C   0  0  0  0  0  0  0  0  0  0  0  0
   -0.1628    0.0101    1.4481 C   0  0  0  0  0  0  0  0  0  0  0  0
    2.3374   -0.5204   -1.2087 O   0  0  0  0  0  0  0  0  0  0  0  0
    1.4773   -0.3945   -2.2793 C   0  0  0  0  0  0  0  0  0  0  0  0
    0.1748   -0.1358   -2.1486 C   0  0  0  0  0  0  0  0  0  0  0  0
   -0.4359    0.0245   -0.9160 O   0  0  0  0  0  0  0  0  0  0  0  0
   -0.7949   -0.0041   -3.2803 C   0  0  1  0  0  0  0  0  0  0  0  0
   -1.3309    0.9603   -3.1292 H   0  0  0  0  0  0  0  0  0  0  0  0
   -0.1201   -0.0217   -4.5067 O   0  0  0  0  0  0  0  0  0  0  0  0
   -1.8410   -1.1405   -3.2610 C   0  0  0  0  0  0  0  0  0  0  0  0
   -2.5964   -1.1063   -4.5088 N   0  0  0  0  0  0  0  0  0  0  0  0
   -3.7189   -0.1769   -4.5631 C   0  0  0  0  0  0  0  0  0  0  0  0
   -4.9331   -0.5512   -3.6889 C   0  0  0  0  0  0  0  0  0  0  0  0
   -6.0108    0.5030   -3.7355 C   0  0  0  0  0  0  0  0  0  0  0  0
   -7.0861    0.4071   -4.6221 C   0  0  0  0  0  0  0  0  0  0  0  0
   -8.0434    1.4252   -4.6832 C   0  0  0  0  0  0  0  0  0  0  0  0
   -7.9418    2.5593   -3.8807 C   0  0  0  0  0  0  0  0  0  0  0  0
   -6.8463    2.6757   -2.9893 C   0  0  0  0  0  0  0  0  0  0  0  0
   -6.7888    3.8147   -2.2518 O   0  0  0  0  0  0  0  0  0  0  0  0
   -5.6999    4.0087   -1.3792 C   0  0  0  0  0  0  0  0  0  0  0  0
   -5.9022    1.6461   -2.9239 C   0  0  0  0  0  0  0  0  0  0  0  0
   -8.8682    3.5520   -4.0124 O   0  0  0  0  0  0  0  0  0  0  0  0
   -9.6909    3.8176   -2.8871 C   0  0  0  0  0  0  0  0  0  0  0  0
    3.6256   -0.7284    1.0127 H   0  0  0  0  0  0  0  0  0  0  0  0
    2.6473   -0.4976    3.3165 H   0  0  0  0  0  0  0  0  0  0  0  0
    0.2063   -0.0226    3.5766 H   0  0  0  0  0  0  0  0  0  0  0  0
   -1.2315    0.2183    1.5282 H   0  0  0  0  0  0  0  0  0  0  0  0
    1.9521   -0.5121   -3.2489 H   0  0  0  0  0  0  0  0  0  0  0  0
   -0.7929   -0.3660   -5.1272 H   0  0  0  0  0  0  0  0  0  0  0  0
   -2.4584   -1.0649   -2.3472 H   0  0  0  0  0  0  0  0  0  0  0  0
   -1.2941   -2.0946   -3.2148 H   0  0  0  0  0  0  0  0  0  0  0  0
   -2.8865   -2.0408   -4.7857 H   0  0  0  0  0  0  0  0  0  0  0  0
   -4.0483   -0.0810   -5.6106 H   0  0  0  0  0  0  0  0  0  0  0  0
   -3.3579    0.8222   -4.2700 H   0  0  0  0  0  0  0  0  0  0  0  0
   -4.6004   -0.6979   -2.6485 H   0  0  0  0  0  0  0  0  0  0  0  0
   -5.3358   -1.5183   -4.0343 H   0  0  0  0  0  0  0  0  0  0  0  0
   -7.1864   -0.4717   -5.2640 H   0  0  0  0  0  0  0  0  0  0  0  0
   -8.8938    1.3646   -5.3652 H   0  0  0  0  0  0  0  0  0  0  0  0
   -5.8466    4.9897   -0.9086 H   0  0  0  0  0  0  0  0  0  0  0  0
   -4.7378    4.0106   -1.9219 H   0  0  0  0  0  0  0  0  0  0  0  0
   -5.6607    3.2345   -0.5918 H   0  0  0  0  0  0  0  0  0  0  0  0
   -5.0580    1.7240   -2.2377 H   0  0  0  0  0  0  0  0  0  0  0  0
  -10.4144    4.5836   -3.1993 H   0  0  0  0  0  0  0  0  0  0  0  0
   -9.1074    4.1951   -2.0332 H   0  0  0  0  0  0  0  0  0  0  0  0
  -10.2420    2.9108   -2.5769 H   0  0  0  0  0  0  0  0  0  0  0  0
  1  2  1  0
  1  6  2  0
  1 10  1  0
  2  3  2  0
  2  7  1  0
  3  4  1  0
  3 28  1  0
  4  5  2  0
  4 29  1  0
  5  6  1  0
  5 30  1  0
  6 31  1  0
  7  8  1  0
  8  9  2  0
  8 32  1  0
  9 10  1  0
  9 11  1  0
 11 12  1  1
 11 13  1  0
 11 14  1  0
 13 33  1  0
 14 15  1  0
 14 34  1  0
 14 35  1  0
 15 16  1  0
 15 36  1  0
 16 17  1  0
 16 37  1  0
 16 38  1  0
 17 18  1  0
 17 39  1  0
 17 40  1  0
 18 19  2  0
 18 25  1  0
 19 20  1  0
 19 41  1  0
 20 21  2  0
 20 42  1  0
 21 22  1  0
 21 26  1  0
 22 23  1  0
 22 25  2  0
 23 24  1  0
 24 43  1  0
 24 44  1  0
 24 45  1  0
 25 46  1  0
 26 27  1  0
 27 47  1  0
 27 48  1  0
 27 49  1  0
M  END

