
     RDKit          3D

 49 51  0  0  0  0  0  0  0  0999 V2000
    0.0488    0.4413    0.2138 C   0  0  0  0  0  0  0  0  0  0  0  0
    1.3005   -0.1852    0.3516 C   0  0  0  0  0  0  0  0  0  0  0  0
    1.9315   -0.2022    1.5920 C   0  0  0  0  0  0  0  0  0  0  0  0
    1.3238    0.4032    2.6988 C   0  0  0  0  0  0  0  0  0  0  0  0
    0.0827    1.0243    2.5605 C   0  0  0  0  0  0  0  0  0  0  0  0
   -0.5547    1.0417    1.3135 C   0  0  0  0  0  0  0  0  0  0  0  0
    1.9232   -0.7858   -0.7144 O   0  0  0  0  0  0  0  0  0  0  0  0
    1.2220   -0.7601   -1.9005 C   0  0  0  0  0  0  0  0  0  0  0  0
    0.0332   -0.1678   -2.0440 C   0  0  0  0  0  0  0  0  0  0  0  0
   -0.6040    0.4778   -0.9989 O   0  0  0  0  0  0  0  0  0  0  0  0
   -0.7607   -0.1298   -3.3271 C   0  0  1  0  0  0  0  0  0  0  0  0
   -0.9269    0.9327   -3.5844 H   0  0  0  0  0  0  0  0  0  0  0  0
   -0.0699   -0.7542   -4.3762 O   0  0  0  0  0  0  0  0  0  0  0  0
   -2.1317   -0.8095   -3.1456 C   0  0  0  0  0  0  0  0  0  0  0  0
   -1.9142   -2.2481   -3.0989 N   0  0  0  0  0  0  0  0  0  0  0  0
   -3.1051   -3.0696   -3.2471 C   0  0  0  0  0  0  0  0  0  0  0  0
   -2.7587   -4.5616   -3.2107 C   0  0  0  0  0  0  0  0  0  0  0  0
   -3.9707   -5.4394   -3.4020 C   0  0  0  0  0  0  0  0  0  0  0  0
   -4.3405   -5.9005   -4.6679 C   0  0  0  0  0  0  0  0  0  0  0  0
   -5.4979   -6.6661   -4.8515 C   0  0  0  0  0  0  0  0  0  0  0  0
   -6.3184   -6.9849   -3.7639 C   0  0  0  0  0  0  0  0  0  0  0  0
   -5.9499   -6.5350   -2.4723 C   0  0  0  0  0  0  0  0  0  0  0  0
   -6.7271   -6.7802   -1.3783 O   0  0  0  0  0  0  0  0  0  0  0  0
   -6.8748   -8.1348   -0.9813 C   0  0  0  0  0  0  0  0  0  0  0  0
   -4.7929   -5.7750   -2.3146 C   0  0  0  0  0  0  0  0  0  0  0  0
   -7.4721   -7.6982   -3.8510 O   0  0  0  0  0  0  0  0  0  0  0  0
   -7.9022   -8.1432   -5.1161 C   0  0  0  0  0  0  0  0  0  0  0  0
    2.9023   -0.6952    1.6685 H   0  0  0  0  0  0  0  0  0  0  0  0
    1.8277    0.3857    3.6673 H   0  0  0  0  0  0  0  0  0  0  0  0
   -0.3970    1.4992    3.4187 H   0  0  0  0  0  0  0  0  0  0  0  0
   -1.5254    1.5208    1.1721 H   0  0  0  0  0  0  0  0  0  0  0  0
    1.7309   -1.2470   -2.7272 H   0  0  0  0  0  0  0  0  0  0  0  0
   -0.4000   -1.6750   -4.3445 H   0  0  0  0  0  0  0  0  0  0  0  0
   -2.7481   -0.5854   -4.0309 H   0  0  0  0  0  0  0  0  0  0  0  0
   -2.6524   -0.3984   -2.2595 H   0  0  0  0  0  0  0  0  0  0  0  0
   -1.4239   -2.4931   -2.2373 H   0  0  0  0  0  0  0  0  0  0  0  0
   -3.5748   -2.8305   -4.2165 H   0  0  0  0  0  0  0  0  0  0  0  0
   -3.8727   -2.8548   -2.4729 H   0  0  0  0  0  0  0  0  0  0  0  0
   -2.2790   -4.7931   -2.2434 H   0  0  0  0  0  0  0  0  0  0  0  0
   -2.0090   -4.7630   -3.9923 H   0  0  0  0  0  0  0  0  0  0  0  0
   -3.7179   -5.6622   -5.5343 H   0  0  0  0  0  0  0  0  0  0  0  0
   -5.7575   -7.0053   -5.8540 H   0  0  0  0  0  0  0  0  0  0  0  0
   -7.4587   -8.1280   -0.0504 H   0  0  0  0  0  0  0  0  0  0  0  0
   -5.8909   -8.5980   -0.7825 H   0  0  0  0  0  0  0  0  0  0  0  0
   -7.4066   -8.7284   -1.7406 H   0  0  0  0  0  0  0  0  0  0  0  0
   -4.5482   -5.4443   -1.3023 H   0  0  0  0  0  0  0  0  0  0  0  0
   -8.8482   -8.6770   -4.9558 H   0  0  0  0  0  0  0  0  0  0  0  0
   -7.1739   -8.8335   -5.5790 H   0  0  0  0  0  0  0  0  0  0  0  0
   -8.0783   -7.2995   -5.8072 H   0  0  0  0  0  0  0  0  0  0  0  0
  1  2  1  0
  1  6  2  0
  1 10  1  0
  2  3  2  0
  2  7  1  0
  3  4  1  0
  3 28  1  0
  4  5  2  0
  4 29  1  0
  5  6  1  0
  5 30  1  0
  6 31  1  0
  7  8  1  0
  8  9  2  0
  8 32  1  0
  9 10  1  0
  9 11  1  0
 11 12  1  6
 11 13  1  0
 11 14  1  0
 13 33  1  0
 14 15  1  0
 14 34  1  0
 14 35  1  0
 15 16  1  0
 15 36  1  0
 16 17  1  0
 16 37  1  0
 16 38  1  0
 17 18  1  0
 17 39  1  0
 17 40  1  0
 18 19  2  0
 18 25  1  0
 19 20  1  0
 19 41  1  0
 20 21  2  0
 20 42  1  0
 21 22  1  0
 21 26  1  0
 22 23  1  0
 22 25  2  0
 23 24  1  0
 24 43  1  0
 24 44  1  0
 24 45  1  0
 25 46  1  0
 26 27  1  0
 27 47  1  0
 27 48  1  0
 27 49  1  0
M  END

