49

C          0.11190        0.25620        0.17620
C          1.48920       -0.03130        0.17750
C          2.19570       -0.01640        1.37680
C          1.54010        0.28380        2.57720
C          0.17490        0.56860        2.57410
C         -0.53860        0.55400        1.36890
O          2.16180       -0.32870       -0.98050
C          1.39220       -0.34660       -2.12510
C          0.08670       -0.07100       -2.13660
O         -0.61910        0.25370       -0.99050
C         -0.78740       -0.09550       -3.35090
H         -1.32090        0.88150       -3.38010
O         -0.01670       -0.28630       -4.50420
C         -1.84570       -1.21710       -3.25810
N         -2.48300       -1.37440       -4.56040
C         -3.59230       -0.47650       -4.85580
C         -4.86930       -0.69400       -4.01160
C         -5.40530       -2.09770       -4.14480
C         -5.01770       -3.10510       -3.25580
C         -5.46480       -4.41870       -3.43700
C         -6.28980       -4.75790       -4.50650
C         -6.67980       -3.74810       -5.42170
O         -7.46680       -4.14540       -6.45430
C         -7.86100       -3.19640       -7.41800
C         -6.23730       -2.43560       -5.22690
O         -6.65760       -6.06000       -4.67650
C         -8.03970       -6.35970       -4.55440
H          3.26300       -0.24300        1.34700
H          2.10430        0.29340        3.51210
H         -0.34340        0.80400        3.50590
H         -1.60720        0.77380        1.33250
H          1.94170       -0.59510       -3.02810
H         -0.63810       -0.73000       -5.11590
H         -2.54170       -1.00630       -2.42610
H         -1.31960       -2.15420       -3.02030
H         -2.76690       -2.34060       -4.70660
H         -3.84670       -0.59490       -5.92210
H         -3.24720        0.56310       -4.73140
H         -5.62500        0.03900       -4.33810
H         -4.65590       -0.47480       -2.95360
H         -4.37630       -2.86380       -2.40490
H         -5.17650       -5.21600       -2.74910
H         -8.47140       -3.73400       -8.15530
H         -6.99020       -2.74930       -7.92970
H         -8.46550       -2.38560       -6.97310
H         -6.53230       -1.65220       -5.92580
H         -8.13480       -7.45060       -4.64580
H         -8.63470       -5.87530       -5.34390
H         -8.42590       -6.04860       -3.56650
