49

C          0.45680       -0.12250        0.19480
C          1.80980       -0.45610        0.00050
C          2.64070       -0.63720        1.10250
C          2.13380       -0.48800        2.39930
C          0.79250       -0.15740        2.59020
C         -0.04590        0.02530        1.48310
O          2.33820       -0.60930       -1.25620
C          1.45140       -0.43220       -2.29780
C          0.16800       -0.11140       -2.12320
O         -0.39440        0.06720       -0.87060
C         -0.82970        0.07500       -3.22260
H         -1.31340        1.06310       -3.05110
O         -0.19490        0.03110       -4.46980
C         -1.92820       -1.01060       -3.17560
N         -2.71390       -0.93920       -4.40320
C         -3.80710        0.02580       -4.42210
C         -5.01580       -0.32500       -3.53090
C         -6.08240        0.73990       -3.57850
C         -6.07350        1.81400       -2.68440
C         -7.02250        2.83880       -2.77270
C         -8.00560        2.81300       -3.76810
C         -8.03500        1.72450       -4.67400
O         -8.94360        1.65930       -5.68930
C        -10.31070        1.53920       -5.32720
C         -7.07900        0.71630       -4.56690
O         -8.94800        3.77590       -3.94640
C         -8.94220        4.89860       -3.09590
H          3.68570       -0.89490        0.92090
H          2.79480       -0.63170        3.25650
H          0.38980       -0.03880        3.59820
H         -1.09970        0.28580        1.59880
H          1.88870       -0.56440       -3.28290
H         -0.90400       -0.27560       -5.06950
H         -2.51770       -0.90720       -2.24640
H         -1.42590       -1.98960       -3.14400
H         -3.04210       -1.86110       -4.67990
H         -4.15230        0.14700       -5.46220
H         -3.41130        1.00910       -4.12060
H         -4.67600       -0.46380       -2.49210
H         -5.43050       -1.29240       -3.86300
H         -5.31360        1.86000       -1.89970
H         -6.98230        3.66320       -2.06120
H        -10.87460        1.42030       -6.26290
H        -10.67310        2.43140       -4.79410
H        -10.47520        0.64730       -4.69510
H         -7.13430       -0.10110       -5.28990
H         -9.76610        5.54550       -3.42500
H         -7.99360        5.46020       -3.16820
H         -9.10670        4.61610       -2.04030
