rmsd151.gzmat
 OpenBabel08211713383D

 49 51  0  0  1  0  0  0  0  0999 V2000
    0.0000    0.0000    0.0000 C   0  0  0  0  0  0  0  0  0  0  0  0
    1.4018    0.0000    0.0000 C   0  0  0  0  0  0  0  0  0  0  0  0
    2.1126    0.0000    1.1919 C   0  0  0  0  0  0  0  0  0  0  0  0
    1.3955   -0.0026    2.3920 C   0  0  0  0  0  0  0  0  0  0  0  0
    0.0037   -0.0101    2.3913 C   0  0  0  0  0  0  0  0  0  0  0  0
   -0.7132   -0.0102    1.1902 C   0  0  0  0  0  0  0  0  0  0  0  0
    2.1362   -0.0026   -1.1635 O   0  0  0  0  0  0  0  0  0  0  0  0
    1.3737   -0.0618   -2.3080 C   0  0  0  0  0  0  0  0  0  0  0  0
    0.0376   -0.0542   -2.3106 C   0  0  0  0  0  0  0  0  0  0  0  0
   -0.7362    0.0130   -1.1627 O   0  0  0  0  0  0  0  0  0  0  0  0
   -0.8550   -0.1029   -3.5140 C   0  0  1  0  0  0  0  0  0  0  0  0
   -1.3463    0.8843   -3.6872 H   0  0  0  0  0  0  0  0  0  0  0  0
   -0.0005   -0.3317   -4.6174 O   0  0  0  0  0  0  0  0  0  0  0  0
   -1.8906   -1.2438   -3.3632 C   0  0  0  0  0  0  0  0  0  0  0  0
   -2.5925   -1.4076   -4.6534 N   0  0  0  0  0  0  0  0  0  0  0  0
   -3.6505   -0.4080   -4.8891 C   0  0  0  0  0  0  0  0  0  0  0  0
   -4.8640   -0.4952   -3.9337 C   0  0  0  0  0  0  0  0  0  0  0  0
   -5.4387   -1.8765   -3.9274 C   0  0  0  0  0  0  0  0  0  0  0  0
   -5.2690   -2.7050   -2.8212 C   0  0  0  0  0  0  0  0  0  0  0  0
   -5.7750   -4.0028   -2.8303 C   0  0  0  0  0  0  0  0  0  0  0  0
   -6.4572   -4.4800   -3.9506 C   0  0  0  0  0  0  0  0  0  0  0  0
   -6.6420   -3.6340   -5.0658 C   0  0  0  0  0  0  0  0  0  0  0  0
   -7.3368   -4.1847   -6.1019 O   0  0  0  0  0  0  0  0  0  0  0  0
   -7.5424   -3.3672   -7.2457 C   0  0  0  0  0  0  0  0  0  0  0  0
   -6.1337   -2.3412   -5.0498 C   0  0  0  0  0  0  0  0  0  0  0  0
   -6.8380   -5.7774   -3.8184 O   0  0  0  0  0  0  0  0  0  0  0  0
   -7.7104   -6.3213   -4.7991 C   0  0  0  0  0  0  0  0  0  0  0  0
    3.2003    0.0011    1.1838 H   0  0  0  0  0  0  0  0  0  0  0  0
    1.9379   -0.0005    3.3363 H   0  0  0  0  0  0  0  0  0  0  0  0
   -0.5392   -0.0161    3.3350 H   0  0  0  0  0  0  0  0  0  0  0  0
   -1.8002   -0.0176    1.1819 H   0  0  0  0  0  0  0  0  0  0  0  0
    2.0386   -0.1127   -3.1638 H   0  0  0  0  0  0  0  0  0  0  0  0
   -0.5015   -0.8318   -5.3096 H   0  0  0  0  0  0  0  0  0  0  0  0
   -2.5617   -1.0339   -2.5043 H   0  0  0  0  0  0  0  0  0  0  0  0
   -1.3592   -2.1936   -3.1280 H   0  0  0  0  0  0  0  0  0  0  0  0
   -2.9769   -2.3526   -4.7297 H   0  0  0  0  0  0  0  0  0  0  0  0
   -3.9918   -0.5461   -5.9408 H   0  0  0  0  0  0  0  0  0  0  0  0
   -3.2060    0.6090   -4.8350 H   0  0  0  0  0  0  0  0  0  0  0  0
   -5.6312    0.2419   -4.2456 H   0  0  0  0  0  0  0  0  0  0  0  0
   -4.5659   -0.1801   -2.9137 H   0  0  0  0  0  0  0  0  0  0  0  0
   -4.7427   -2.3443   -1.9393 H   0  0  0  0  0  0  0  0  0  0  0  0
   -5.6437   -4.6588   -1.9697 H   0  0  0  0  0  0  0  0  0  0  0  0
   -8.1280   -4.0296   -7.8978 H   0  0  0  0  0  0  0  0  0  0  0  0
   -6.5897   -3.1089   -7.7184 H   0  0  0  0  0  0  0  0  0  0  0  0
   -8.1207   -2.4732   -6.9926 H   0  0  0  0  0  0  0  0  0  0  0  0
   -6.2649   -1.6806   -5.9017 H   0  0  0  0  0  0  0  0  0  0  0  0
   -7.9422   -7.3087   -4.3778 H   0  0  0  0  0  0  0  0  0  0  0  0
   -7.1908   -6.4230   -5.7584 H   0  0  0  0  0  0  0  0  0  0  0  0
   -8.6202   -5.7220   -4.9011 H   0  0  0  0  0  0  0  0  0  0  0  0
  1  6  1  0  0  0  0
  2  1  2  0  0  0  0
  2  3  1  0  0  0  0
  3  4  2  0  0  0  0
  4 29  1  0  0  0  0
  5  4  1  0  0  0  0
  5 30  1  0  0  0  0
  6  5  2  0  0  0  0
  7  2  1  0  0  0  0
  8  7  1  0  0  0  0
  9  8  2  0  0  0  0
  9 10  1  0  0  0  0
 10  1  1  0  0  0  0
 11 12  1  6  0  0  0
 11 14  1  0  0  0  0
 11  9  1  0  0  0  0
 13 11  1  0  0  0  0
 14 35  1  0  0  0  0
 14 34  1  0  0  0  0
 15 14  1  0  0  0  0
 16 38  1  0  0  0  0
 16 15  1  0  0  0  0
 16 17  1  0  0  0  0
 17 18  1  0  0  0  0
 17 40  1  0  0  0  0
 18 19  2  0  0  0  0
 19 41  1  0  0  0  0
 20 19  1  0  0  0  0
 20 42  1  0  0  0  0
 21 26  1  0  0  0  0
 21 20  2  0  0  0  0
 22 25  2  0  0  0  0
 22 21  1  0  0  0  0
 23 22  1  0  0  0  0
 24 45  1  0  0  0  0
 24 23  1  0  0  0  0
 25 18  1  0  0  0  0
 27 47  1  0  0  0  0
 27 26  1  0  0  0  0
 28  3  1  0  0  0  0
 31  6  1  0  0  0  0
 32  8  1  0  0  0  0
 33 13  1  0  0  0  0
 36 15  1  0  0  0  0
 37 16  1  0  0  0  0
 39 17  1  0  0  0  0
 43 24  1  0  0  0  0
 44 24  1  0  0  0  0
 46 25  1  0  0  0  0
 48 27  1  0  0  0  0
 49 27  1  0  0  0  0
M  END
$$$$
