rmsd117.gzmat
 OpenBabel08211713403D

 56 57  0  0  1  0  0  0  0  0999 V2000
    0.0000    0.0000    0.0000 N   0  0  0  0  0  0  0  0  0  0  0  0
    1.3633    0.0000    0.0000 C   0  0  0  0  0  0  0  0  0  0  0  0
    2.3479    0.0000    1.3062 S   0  0  0  0  0  0  0  0  0  0  0  0
    1.9742    0.0500   -1.6841 S   0  0  0  0  0  0  0  0  0  0  0  0
    0.2961    0.1501   -2.4190 C   0  0  0  0  0  0  0  0  0  0  0  0
   -0.6824    0.4138   -1.2653 C   0  0  2  0  0  0  0  0  0  0  0  0
   -1.5891   -0.2440   -1.3814 H   0  0  0  0  0  0  0  0  0  0  0  0
   -1.1713    1.8862   -1.1759 C   0  0  0  0  0  0  0  0  0  0  0  0
   -0.0432    2.9149   -1.1768 C   0  0  0  0  0  0  0  0  0  0  0  0
   -2.1429    2.1570   -2.3284 C   0  0  0  0  0  0  0  0  0  0  0  0
   -0.8584   -0.3670    1.0969 C   0  0  0  0  0  0  0  0  0  0  0  0
   -1.8456    0.2956    1.2777 O   0  0  0  0  0  0  0  0  0  0  0  0
   -0.5357   -1.6229    1.8518 C   0  0  1  0  0  0  0  0  0  0  0  0
    0.5646   -1.7534    2.0167 H   0  0  0  0  0  0  0  0  0  0  0  0
   -1.2170   -1.6181    3.2413 C   0  0  2  0  0  0  0  0  0  0  0  0
   -0.8962   -0.6861    3.7782 H   0  0  0  0  0  0  0  0  0  0  0  0
   -0.7977   -2.8110    3.9875 N   0  0  0  0  0  0  0  0  0  0  0  0
   -1.8431   -3.6779    4.2737 C   0  0  0  0  0  0  0  0  0  0  0  0
   -1.6995   -4.7085    4.8873 O   0  0  0  0  0  0  0  0  0  0  0  0
   -3.1221   -3.1266    3.6771 C   0  0  0  0  0  0  0  0  0  0  0  0
   -2.7693   -1.7081    3.2024 C   0  0  0  0  0  0  0  0  0  0  0  0
    0.5032   -2.8749    4.6335 C   0  0  0  0  0  0  0  0  0  0  0  0
   -1.1121   -2.9746    0.7380 S   0  0  0  0  0  0  0  0  0  0  0  0
    0.0988   -4.3399    1.0913 C   0  0  0  0  0  0  0  0  0  0  0  0
   -0.5347   -5.6545    0.6328 C   0  0  0  0  0  0  0  0  0  0  0  0
   -0.5840   -5.7945   -0.8939 C   0  0  0  0  0  0  0  0  0  0  0  0
    0.8103   -5.6024   -1.5028 C   0  0  0  0  0  0  0  0  0  0  0  0
    1.3893   -4.2401   -1.1032 C   0  0  0  0  0  0  0  0  0  0  0  0
    1.4517   -4.1062    0.4236 C   0  0  0  0  0  0  0  0  0  0  0  0
    0.2623    0.9510   -3.1782 H   0  0  0  0  0  0  0  0  0  0  0  0
    0.0611   -0.7947   -2.9412 H   0  0  0  0  0  0  0  0  0  0  0  0
   -1.7355    1.9929   -0.2087 H   0  0  0  0  0  0  0  0  0  0  0  0
    0.6588    2.7496   -0.3502 H   0  0  0  0  0  0  0  0  0  0  0  0
   -0.4428    3.9290   -1.0493 H   0  0  0  0  0  0  0  0  0  0  0  0
    0.5302    2.9145   -2.1090 H   0  0  0  0  0  0  0  0  0  0  0  0
   -2.9900    1.4615   -2.3198 H   0  0  0  0  0  0  0  0  0  0  0  0
   -1.6568    2.0876   -3.3064 H   0  0  0  0  0  0  0  0  0  0  0  0
   -2.5626    3.1684   -2.2507 H   0  0  0  0  0  0  0  0  0  0  0  0
   -3.4661   -3.7733    2.8478 H   0  0  0  0  0  0  0  0  0  0  0  0
   -3.9326   -3.1343    4.4256 H   0  0  0  0  0  0  0  0  0  0  0  0
   -3.1797   -1.4891    2.2026 H   0  0  0  0  0  0  0  0  0  0  0  0
   -3.2076   -0.9442    3.8680 H   0  0  0  0  0  0  0  0  0  0  0  0
    0.6686   -2.0123    5.3027 H   0  0  0  0  0  0  0  0  0  0  0  0
    1.3145   -2.8997    3.8845 H   0  0  0  0  0  0  0  0  0  0  0  0
    0.5745   -3.7988    5.2434 H   0  0  0  0  0  0  0  0  0  0  0  0
    0.2309   -4.3709    2.2024 H   0  0  0  0  0  0  0  0  0  0  0  0
   -1.5482   -5.7851    1.0615 H   0  0  0  0  0  0  0  0  0  0  0  0
    0.0599   -6.4929    1.0561 H   0  0  0  0  0  0  0  0  0  0  0  0
   -0.9805   -6.7914   -1.1632 H   0  0  0  0  0  0  0  0  0  0  0  0
   -1.2918   -5.0671   -1.3328 H   0  0  0  0  0  0  0  0  0  0  0  0
    1.4837   -6.4137   -1.1701 H   0  0  0  0  0  0  0  0  0  0  0  0
    0.7574   -5.6836   -2.6034 H   0  0  0  0  0  0  0  0  0  0  0  0
    2.4021   -4.1171   -1.5308 H   0  0  0  0  0  0  0  0  0  0  0  0
    0.7814   -3.4271   -1.5410 H   0  0  0  0  0  0  0  0  0  0  0  0
    2.1757   -4.8485    0.8230 H   0  0  0  0  0  0  0  0  0  0  0  0
    1.8767   -3.1219    0.6973 H   0  0  0  0  0  0  0  0  0  0  0  0
  1  2  1  0  0  0  0
  1 11  1  0  0  0  0
  2  3  2  0  0  0  0
  4  2  1  0  0  0  0
  5  4  1  0  0  0  0
  5  6  1  0  0  0  0
  6  7  1  6  0  0  0
  6  8  1  0  0  0  0
  6  1  1  0  0  0  0
  8 32  1  0  0  0  0
  9  8  1  0  0  0  0
  9 34  1  0  0  0  0
  9 33  1  0  0  0  0
 10 36  1  0  0  0  0
 10 38  1  0  0  0  0
 10  8  1  0  0  0  0
 11 12  2  0  0  0  0
 11 13  1  0  0  0  0
 13 14  1  1  0  0  0
 13 15  1  0  0  0  0
 15 16  1  1  0  0  0
 15 17  1  0  0  0  0
 17 18  1  0  0  0  0
 17 22  1  0  0  0  0
 18 19  2  0  0  0  0
 20 18  1  0  0  0  0
 20 40  1  0  0  0  0
 21 15  1  0  0  0  0
 21 20  1  0  0  0  0
 21 42  1  0  0  0  0
 22 45  1  0  0  0  0
 22 43  1  0  0  0  0
 23 24  1  0  0  0  0
 23 13  1  0  0  0  0
 24 46  1  0  0  0  0
 25 48  1  0  0  0  0
 25 47  1  0  0  0  0
 25 24  1  0  0  0  0
 26 25  1  0  0  0  0
 27 51  1  0  0  0  0
 27 28  1  0  0  0  0
 27 26  1  0  0  0  0
 28 29  1  0  0  0  0
 29 56  1  0  0  0  0
 29 55  1  0  0  0  0
 29 24  1  0  0  0  0
 30  5  1  0  0  0  0
 31  5  1  0  0  0  0
 35  9  1  0  0  0  0
 37 10  1  0  0  0  0
 39 20  1  0  0  0  0
 41 21  1  0  0  0  0
 44 22  1  0  0  0  0
 49 26  1  0  0  0  0
 50 26  1  0  0  0  0
 53 28  1  0  0  0  0
 54 28  1  0  0  0  0
M  RAD  2  27   2  52   2
M  END
$$$$
