rmsd115.gzmat
 OpenBabel08211713403D

 56 58  0  0  1  0  0  0  0  0999 V2000
    0.0000    0.0000    0.0000 N   0  0  0  0  0  0  0  0  0  0  0  0
    1.3681    0.0000    0.0000 C   0  0  0  0  0  0  0  0  0  0  0  0
    2.3634    0.0000    1.2934 S   0  0  0  0  0  0  0  0  0  0  0  0
    1.9774    0.0861   -1.6829 S   0  0  0  0  0  0  0  0  0  0  0  0
    0.3047    0.2602   -2.4128 C   0  0  0  0  0  0  0  0  0  0  0  0
   -0.6704    0.4852   -1.2491 C   0  0  2  0  0  0  0  0  0  0  0  0
   -1.5901   -0.1478   -1.3989 H   0  0  0  0  0  0  0  0  0  0  0  0
   -1.1341    1.9587   -1.0826 C   0  0  0  0  0  0  0  0  0  0  0  0
    0.0127    2.9627   -0.9990 C   0  0  0  0  0  0  0  0  0  0  0  0
   -2.0777    2.3189   -2.2340 C   0  0  0  0  0  0  0  0  0  0  0  0
   -0.8755   -0.4306    1.0473 C   0  0  0  0  0  0  0  0  0  0  0  0
   -1.9488    0.1148    1.1235 O   0  0  0  0  0  0  0  0  0  0  0  0
   -0.4905   -1.6004    1.9064 C   0  0  1  0  0  0  0  0  0  0  0  0
    0.5390   -1.4945    2.3342 H   0  0  0  0  0  0  0  0  0  0  0  0
   -1.4817   -1.7180    3.0910 C   0  0  2  0  0  0  0  0  0  0  0  0
   -1.5026   -0.7272    3.6188 H   0  0  0  0  0  0  0  0  0  0  0  0
   -1.0278   -2.7759    4.0031 N   0  0  0  0  0  0  0  0  0  0  0  0
   -1.9461   -3.8096    4.1450 C   0  0  0  0  0  0  0  0  0  0  0  0
   -1.7773   -4.7468    4.8880 O   0  0  0  0  0  0  0  0  0  0  0  0
   -3.1137   -3.5686    3.2110 C   0  0  0  0  0  0  0  0  0  0  0  0
   -2.9256   -2.1357    2.6890 C   0  0  0  0  0  0  0  0  0  0  0  0
    0.0452   -2.5256    4.9529 C   0  0  0  0  0  0  0  0  0  0  0  0
   -0.5108   -3.0464    0.7637 S   0  0  0  0  0  0  0  0  0  0  0  0
    0.6530   -4.2580    1.5607 C   0  0  0  0  0  0  0  0  0  0  0  0
    0.2403   -5.6623    1.1154 C   0  0  0  0  0  0  0  0  0  0  0  0
    0.5801   -5.9476   -0.3530 C   0  0  0  0  0  0  0  0  0  0  0  0
    2.0641   -5.6795   -0.6325 C   0  0  0  0  0  0  0  0  0  0  0  0
    2.4313   -4.2386   -0.2595 C   0  0  0  0  0  0  0  0  0  0  0  0
    2.1118   -3.9707    1.2163 C   0  0  0  0  0  0  0  0  0  0  0  0
    0.2902    1.1014   -3.1282 H   0  0  0  0  0  0  0  0  0  0  0  0
    0.0496   -0.6507   -2.9844 H   0  0  0  0  0  0  0  0  0  0  0  0
   -1.7166    2.0146   -0.1218 H   0  0  0  0  0  0  0  0  0  0  0  0
    0.7106    2.7194   -0.1887 H   0  0  0  0  0  0  0  0  0  0  0  0
   -0.3690    3.9704   -0.7904 H   0  0  0  0  0  0  0  0  0  0  0  0
    0.5881    3.0262   -1.9280 H   0  0  0  0  0  0  0  0  0  0  0  0
   -2.9198    1.6210   -2.3047 H   0  0  0  0  0  0  0  0  0  0  0  0
   -1.5665    2.3320   -3.2015 H   0  0  0  0  0  0  0  0  0  0  0  0
   -2.5056    3.3188   -2.0843 H   0  0  0  0  0  0  0  0  0  0  0  0
   -3.1098   -4.3153    2.3942 H   0  0  0  0  0  0  0  0  0  0  0  0
   -4.0704   -3.7048    3.7435 H   0  0  0  0  0  0  0  0  0  0  0  0
   -3.0980   -2.0641    1.6025 H   0  0  0  0  0  0  0  0  0  0  0  0
   -3.6569   -1.4440    3.1424 H   0  0  0  0  0  0  0  0  0  0  0  0
   -0.1706   -1.6553    5.5967 H   0  0  0  0  0  0  0  0  0  0  0  0
    0.9989   -2.3471    4.4253 H   0  0  0  0  0  0  0  0  0  0  0  0
    0.1798   -3.4096    5.6089 H   0  0  0  0  0  0  0  0  0  0  0  0
    0.5086   -4.1706    2.6665 H   0  0  0  0  0  0  0  0  0  0  0  0
   -0.8369   -5.8435    1.2999 H   0  0  0  0  0  0  0  0  0  0  0  0
    0.7654   -6.3992    1.7612 H   0  0  0  0  0  0  0  0  0  0  0  0
    0.3341   -6.9987   -0.5939 H   0  0  0  0  0  0  0  0  0  0  0  0
   -0.0473   -5.3355   -1.0269 H   0  0  0  0  0  0  0  0  0  0  0  0
    2.6904   -6.3891   -0.0609 H   0  0  0  0  0  0  0  0  0  0  0  0
    2.2874   -5.8644   -1.6984 H   0  0  0  0  0  0  0  0  0  0  0  0
    3.5052   -4.0550   -0.4487 H   0  0  0  0  0  0  0  0  0  0  0  0
    1.8919   -3.5263   -0.9113 H   0  0  0  0  0  0  0  0  0  0  0  0
    2.7580   -4.6148    1.8502 H   0  0  0  0  0  0  0  0  0  0  0  0
    2.3951   -2.9351    1.4822 H   0  0  0  0  0  0  0  0  0  0  0  0
  1  2  1  0  0  0  0
  1 11  1  0  0  0  0
  2  3  2  0  0  0  0
  4  2  1  0  0  0  0
  5  4  1  0  0  0  0
  5  6  1  0  0  0  0
  6  7  1  6  0  0  0
  6  8  1  0  0  0  0
  6  1  1  0  0  0  0
  8  9  1  0  0  0  0
  8 32  1  0  0  0  0
  9 34  1  0  0  0  0
  9 33  1  0  0  0  0
 10 38  1  0  0  0  0
 10  8  1  0  0  0  0
 11 12  2  0  0  0  0
 11 13  1  0  0  0  0
 13 14  1  1  0  0  0
 13 15  1  0  0  0  0
 15 16  1  1  0  0  0
 15 17  1  0  0  0  0
 17 18  1  0  0  0  0
 17 22  1  0  0  0  0
 18 19  2  0  0  0  0
 20 40  1  0  0  0  0
 20 18  1  0  0  0  0
 21 15  1  0  0  0  0
 21 42  1  0  0  0  0
 21 20  1  0  0  0  0
 22 43  1  0  0  0  0
 22 45  1  0  0  0  0
 23 24  1  0  0  0  0
 23 13  1  0  0  0  0
 24 46  1  0  0  0  0
 25 47  1  0  0  0  0
 25 24  1  0  0  0  0
 25 48  1  0  0  0  0
 26 25  1  0  0  0  0
 27 26  1  0  0  0  0
 27 28  1  0  0  0  0
 27 51  1  0  0  0  0
 28 29  1  0  0  0  0
 29 56  1  0  0  0  0
 29 24  1  0  0  0  0
 29 55  1  0  0  0  0
 30  5  1  0  0  0  0
 31  5  1  0  0  0  0
 35  9  1  0  0  0  0
 36 10  1  0  0  0  0
 37 10  1  0  0  0  0
 39 20  1  0  0  0  0
 41 21  1  0  0  0  0
 44 22  1  0  0  0  0
 49 26  1  0  0  0  0
 50 26  1  0  0  0  0
 52 27  1  0  0  0  0
 53 28  1  0  0  0  0
 54 28  1  0  0  0  0
M  END
$$$$
