
     RDKit          3D

 56 58  0  0  0  0  0  0  0  0999 V2000
   -0.3454   -0.1346   -0.1370 N   0  0  0  0  0  0  0  0  0  0  0  0
    1.0215   -0.3089   -0.1545 C   0  0  0  0  0  0  0  0  0  0  0  0
    2.0510   -0.4136    1.1331 S   0  0  0  0  0  0  0  0  0  0  0  0
    1.6085   -0.3413   -1.8136 S   0  0  0  0  0  0  0  0  0  0  0  0
   -0.0718   -0.1470   -2.5163 C   0  0  0  0  0  0  0  0  0  0  0  0
   -0.9435    0.4104   -1.3787 C   0  0  2  0  0  0  0  0  0  0  0  0
   -1.9534   -0.0169   -1.4521 H   0  0  0  0  0  0  0  0  0  0  0  0
   -1.0963    1.9476   -1.3382 C   0  0  0  0  0  0  0  0  0  0  0  0
    0.2215    2.7123   -1.1905 C   0  0  0  0  0  0  0  0  0  0  0  0
   -1.9014    2.4328   -2.5479 C   0  0  0  0  0  0  0  0  0  0  0  0
   -1.2111   -0.3598    0.9651 C   0  0  0  0  0  0  0  0  0  0  0  0
   -2.2291    0.2897    1.0634 O   0  0  0  0  0  0  0  0  0  0  0  0
   -0.9135   -1.5536    1.8466 C   0  0  1  0  0  0  0  0  0  0  0  0
    0.1262   -1.8523    1.7107 H   0  0  0  0  0  0  0  0  0  0  0  0
   -1.1438   -1.3053    3.3482 C   0  0  2  0  0  0  0  0  0  0  0  0
   -0.5806   -0.3871    3.5949 H   0  0  0  0  0  0  0  0  0  0  0  0
   -0.6321   -2.4160    4.1290 N   0  0  0  0  0  0  0  0  0  0  0  0
   -1.6011   -3.2039    4.7073 C   0  0  0  0  0  0  0  0  0  0  0  0
   -1.3899   -4.2235    5.3335 O   0  0  0  0  0  0  0  0  0  0  0  0
   -2.9523   -2.5646    4.4118 C   0  0  0  0  0  0  0  0  0  0  0  0
   -2.6208   -1.1972    3.7998 C   0  0  0  0  0  0  0  0  0  0  0  0
    0.7731   -2.7236    4.2277 C   0  0  0  0  0  0  0  0  0  0  0  0
   -1.9438   -2.9102    1.1334 S   0  0  0  0  0  0  0  0  0  0  0  0
   -0.6995   -4.2786    0.9983 C   0  0  0  0  0  0  0  0  0  0  0  0
   -1.4613   -5.5367    0.5528 C   0  0  0  0  0  0  0  0  0  0  0  0
   -1.9326   -5.4579   -0.9052 C   0  0  0  0  0  0  0  0  0  0  0  0
   -0.7761   -5.1295   -1.8575 C   0  0  0  0  0  0  0  0  0  0  0  0
   -0.0323   -3.8615   -1.4236 C   0  0  0  0  0  0  0  0  0  0  0  0
    0.4454   -3.9688    0.0263 C   0  0  0  0  0  0  0  0  0  0  0  0
   -0.0282    0.5348   -3.3749 H   0  0  0  0  0  0  0  0  0  0  0  0
   -0.4288   -1.1283   -2.8576 H   0  0  0  0  0  0  0  0  0  0  0  0
   -1.7031    2.1348   -0.4394 H   0  0  0  0  0  0  0  0  0  0  0  0
    0.7838    2.3985   -0.2986 H   0  0  0  0  0  0  0  0  0  0  0  0
    0.0162    3.7894   -1.0884 H   0  0  0  0  0  0  0  0  0  0  0  0
    0.8777    2.5813   -2.0654 H   0  0  0  0  0  0  0  0  0  0  0  0
   -2.8582    1.8945   -2.6416 H   0  0  0  0  0  0  0  0  0  0  0  0
   -1.3462    2.3059   -3.4924 H   0  0  0  0  0  0  0  0  0  0  0  0
   -2.1298    3.5049   -2.4497 H   0  0  0  0  0  0  0  0  0  0  0  0
   -3.4882   -3.2213    3.7108 H   0  0  0  0  0  0  0  0  0  0  0  0
   -3.5417   -2.5129    5.3385 H   0  0  0  0  0  0  0  0  0  0  0  0
   -3.2696   -0.9150    2.9630 H   0  0  0  0  0  0  0  0  0  0  0  0
   -2.7014   -0.4055    4.5590 H   0  0  0  0  0  0  0  0  0  0  0  0
    1.3395   -1.8584    4.6105 H   0  0  0  0  0  0  0  0  0  0  0  0
    1.2111   -3.0066    3.2547 H   0  0  0  0  0  0  0  0  0  0  0  0
    0.8769   -3.5708    4.9190 H   0  0  0  0  0  0  0  0  0  0  0  0
   -0.3089   -4.4323    2.0142 H   0  0  0  0  0  0  0  0  0  0  0  0
   -2.3083   -5.7266    1.2309 H   0  0  0  0  0  0  0  0  0  0  0  0
   -0.7699   -6.3902    0.6675 H   0  0  0  0  0  0  0  0  0  0  0  0
   -2.4070   -6.4106   -1.1918 H   0  0  0  0  0  0  0  0  0  0  0  0
   -2.7121   -4.6822   -0.9972 H   0  0  0  0  0  0  0  0  0  0  0  0
   -0.0653   -5.9762   -1.8704 H   0  0  0  0  0  0  0  0  0  0  0  0
   -1.1509   -5.0227   -2.8889 H   0  0  0  0  0  0  0  0  0  0  0  0
    0.8256   -3.6620   -2.0853 H   0  0  0  0  0  0  0  0  0  0  0  0
   -0.7092   -2.9944   -1.5060 H   0  0  0  0  0  0  0  0  0  0  0  0
    1.1738   -4.7962    0.1111 H   0  0  0  0  0  0  0  0  0  0  0  0
    0.9917   -3.0631    0.3263 H   0  0  0  0  0  0  0  0  0  0  0  0
  1  2  1  0
  1  6  1  0
  1 11  1  0
  2  3  2  0
  2  4  1  0
  4  5  1  0
  5  6  1  0
  5 30  1  0
  5 31  1  0
  6  7  1  6
  6  8  1  0
  8  9  1  0
  8 10  1  0
  8 32  1  0
  9 33  1  0
  9 34  1  0
  9 35  1  0
 10 36  1  0
 10 37  1  0
 10 38  1  0
 11 12  2  0
 11 13  1  0
 13 14  1  1
 13 15  1  0
 13 23  1  0
 15 16  1  1
 15 17  1  0
 15 21  1  0
 17 18  1  0
 17 22  1  0
 18 19  2  0
 18 20  1  0
 20 21  1  0
 20 39  1  0
 20 40  1  0
 21 41  1  0
 21 42  1  0
 22 43  1  0
 22 44  1  0
 22 45  1  0
 23 24  1  0
 24 25  1  0
 24 29  1  0
 24 46  1  0
 25 26  1  0
 25 47  1  0
 25 48  1  0
 26 27  1  0
 26 49  1  0
 26 50  1  0
 27 28  1  0
 27 51  1  0
 27 52  1  0
 28 29  1  0
 28 53  1  0
 28 54  1  0
 29 55  1  0
 29 56  1  0
M  END

