rmsd84.gzmat
 OpenBabel08211713403D

 56 58  0  0  1  0  0  0  0  0999 V2000
    0.0000    0.0000    0.0000 N   0  0  0  0  0  0  0  0  0  0  0  0
    1.3614    0.0000    0.0000 C   0  0  0  0  0  0  0  0  0  0  0  0
    2.3395    0.0000    1.3122 S   0  0  0  0  0  0  0  0  0  0  0  0
    1.9772   -0.0070   -1.6810 S   0  0  0  0  0  0  0  0  0  0  0  0
    0.3011    0.0476   -2.4227 C   0  0  0  0  0  0  0  0  0  0  0  0
   -0.6938    0.3210   -1.2837 C   0  0  2  0  0  0  0  0  0  0  0  0
   -1.5658   -0.3874   -1.3661 H   0  0  0  0  0  0  0  0  0  0  0  0
   -1.2570    1.7689   -1.2849 C   0  0  0  0  0  0  0  0  0  0  0  0
   -0.1763    2.8446   -1.2176 C   0  0  0  0  0  0  0  0  0  0  0  0
   -2.1374    1.9602   -2.5236 C   0  0  0  0  0  0  0  0  0  0  0  0
   -0.8254   -0.1737    1.1803 C   0  0  0  0  0  0  0  0  0  0  0  0
   -1.6727    0.6428    1.4110 O   0  0  0  0  0  0  0  0  0  0  0  0
   -0.6191   -1.4429    1.9511 C   0  0  1  0  0  0  0  0  0  0  0  0
    0.4561   -1.7551    1.9858 H   0  0  0  0  0  0  0  0  0  0  0  0
   -1.1080   -1.2861    3.4139 C   0  0  2  0  0  0  0  0  0  0  0  0
   -0.6030   -0.3801    3.8454 H   0  0  0  0  0  0  0  0  0  0  0  0
   -0.7675   -2.4588    4.2249 N   0  0  0  0  0  0  0  0  0  0  0  0
   -1.8586   -3.2881    4.4568 C   0  0  0  0  0  0  0  0  0  0  0  0
   -1.7676   -4.3875    4.9474 O   0  0  0  0  0  0  0  0  0  0  0  0
   -3.1251   -2.5476    4.0712 C   0  0  0  0  0  0  0  0  0  0  0  0
   -2.6532   -1.1730    3.5670 C   0  0  0  0  0  0  0  0  0  0  0  0
    0.6086   -2.8900    4.4068 C   0  0  0  0  0  0  0  0  0  0  0  0
   -1.5807   -2.7063    1.0257 S   0  0  0  0  0  0  0  0  0  0  0  0
   -0.3117   -3.5520   -0.0324 C   0  0  0  0  0  0  0  0  0  0  0  0
    0.8090   -4.2150    0.7653 C   0  0  0  0  0  0  0  0  0  0  0  0
    0.3193   -5.4107    1.5899 C   0  0  0  0  0  0  0  0  0  0  0  0
   -0.3756   -6.4354    0.6864 C   0  0  0  0  0  0  0  0  0  0  0  0
   -1.5463   -5.7879   -0.0623 C   0  0  0  0  0  0  0  0  0  0  0  0
   -1.0694   -4.5788   -0.8796 C   0  0  0  0  0  0  0  0  0  0  0  0
    0.2625    0.8312   -3.2006 H   0  0  0  0  0  0  0  0  0  0  0  0
    0.0846   -0.9090   -2.9292 H   0  0  0  0  0  0  0  0  0  0  0  0
   -1.9089    1.8794   -0.3751 H   0  0  0  0  0  0  0  0  0  0  0  0
    0.4649    2.7173   -0.3358 H   0  0  0  0  0  0  0  0  0  0  0  0
   -0.6256    3.8428   -1.1358 H   0  0  0  0  0  0  0  0  0  0  0  0
    0.4680    2.8552   -2.1017 H   0  0  0  0  0  0  0  0  0  0  0  0
   -2.9235    1.1996   -2.5875 H   0  0  0  0  0  0  0  0  0  0  0  0
   -1.5611    1.9294   -3.4537 H   0  0  0  0  0  0  0  0  0  0  0  0
   -2.6393    2.9360   -2.4934 H   0  0  0  0  0  0  0  0  0  0  0  0
   -3.6810   -3.1158    3.3032 H   0  0  0  0  0  0  0  0  0  0  0  0
   -3.8034   -2.4687    4.9385 H   0  0  0  0  0  0  0  0  0  0  0  0
   -3.1520   -0.8691    2.6329 H   0  0  0  0  0  0  0  0  0  0  0  0
   -2.8977   -0.3805    4.2968 H   0  0  0  0  0  0  0  0  0  0  0  0
    1.2577   -2.0249    4.6280 H   0  0  0  0  0  0  0  0  0  0  0  0
    1.0068   -3.4234    3.5263 H   0  0  0  0  0  0  0  0  0  0  0  0
    0.6595   -3.5890    5.2666 H   0  0  0  0  0  0  0  0  0  0  0  0
    0.1260   -2.7720   -0.6992 H   0  0  0  0  0  0  0  0  0  0  0  0
    1.3327   -3.4884    1.4154 H   0  0  0  0  0  0  0  0  0  0  0  0
    1.5890   -4.5621    0.0523 H   0  0  0  0  0  0  0  0  0  0  0  0
    1.1710   -5.8837    2.1134 H   0  0  0  0  0  0  0  0  0  0  0  0
   -0.3740   -5.0833    2.3914 H   0  0  0  0  0  0  0  0  0  0  0  0
    0.3481   -6.8592   -0.0336 H   0  0  0  0  0  0  0  0  0  0  0  0
   -0.7402   -7.2861    1.2925 H   0  0  0  0  0  0  0  0  0  0  0  0
   -2.0227   -6.5271   -0.7328 H   0  0  0  0  0  0  0  0  0  0  0  0
   -2.3333   -5.4922    0.6578 H   0  0  0  0  0  0  0  0  0  0  0  0
   -0.3923   -4.9337   -1.6854 H   0  0  0  0  0  0  0  0  0  0  0  0
   -1.9260   -4.1165   -1.4075 H   0  0  0  0  0  0  0  0  0  0  0  0
  1 11  1  0  0  0  0
  2  1  1  0  0  0  0
  2  3  2  0  0  0  0
  4  2  1  0  0  0  0
  5  4  1  0  0  0  0
  5  6  1  0  0  0  0
  6  7  1  6  0  0  0
  6  1  1  0  0  0  0
  8  6  1  0  0  0  0
  8  9  1  0  0  0  0
  8 32  1  0  0  0  0
  9 34  1  0  0  0  0
  9 33  1  0  0  0  0
 10 38  1  0  0  0  0
 10  8  1  0  0  0  0
 11 12  2  0  0  0  0
 11 13  1  0  0  0  0
 13 14  1  6  0  0  0
 13 15  1  0  0  0  0
 15 21  1  0  0  0  0
 15 16  1  1  0  0  0
 15 17  1  0  0  0  0
 17 22  1  0  0  0  0
 17 18  1  0  0  0  0
 18 19  2  0  0  0  0
 20 18  1  0  0  0  0
 20 40  1  0  0  0  0
 21 20  1  0  0  0  0
 21 42  1  0  0  0  0
 22 43  1  0  0  0  0
 22 45  1  0  0  0  0
 23 13  1  0  0  0  0
 24 25  1  0  0  0  0
 24 23  1  0  0  0  0
 25 47  1  0  0  0  0
 25 26  1  0  0  0  0
 26 49  1  0  0  0  0
 26 50  1  0  0  0  0
 27 52  1  0  0  0  0
 27 26  1  0  0  0  0
 28 54  1  0  0  0  0
 28 27  1  0  0  0  0
 29 28  1  0  0  0  0
 29 24  1  0  0  0  0
 30  5  1  0  0  0  0
 31  5  1  0  0  0  0
 35  9  1  0  0  0  0
 36 10  1  0  0  0  0
 37 10  1  0  0  0  0
 39 20  1  0  0  0  0
 41 21  1  0  0  0  0
 44 22  1  0  0  0  0
 46 24  1  0  0  0  0
 48 25  1  0  0  0  0
 51 27  1  0  0  0  0
 53 28  1  0  0  0  0
 55 29  1  0  0  0  0
 56 29  1  0  0  0  0
M  END
$$$$
