56

N         -0.15390       -0.04370        0.04020
C          1.23060       -0.14470        0.04420
S          2.26120       -0.16030        1.32760
S          1.83130       -0.15350       -1.61490
C          0.13320       -0.12460       -2.30890
C         -0.70360        0.53450       -1.20840
H         -1.75290        0.21750       -1.26880
C         -0.64670        2.07850       -1.22690
C         -1.49650        2.61540       -2.38320
C         -1.08890        2.68730        0.10620
C         -1.06620       -0.57090        0.97570
O         -2.22750       -0.21970        0.93680
C         -0.58750       -1.67270        1.90530
H          0.36660       -1.35680        2.34180
C         -1.60030       -1.94770        3.03140
H         -1.83530       -0.96880        3.48580
N         -1.03160       -2.82880        4.03430
C         -1.59340       -4.08130        4.08800
O         -1.21680       -4.98510        4.81010
C         -2.73070       -4.12380        3.07850
C         -2.89970       -2.67580        2.60310
C          0.08540       -2.45230        4.86300
S         -0.22870       -3.15050        0.85820
C          1.45740       -3.68220        1.45950
C          1.38250       -4.99270        2.25120
C          0.99380       -6.17730        1.36120
C          1.93250       -6.30950        0.15630
C          2.01610       -5.00080       -0.63850
C          2.40320       -3.82170        0.26010
H          0.13100        0.44500       -3.24640
H         -0.18950       -1.15760       -2.50180
H          0.40510        2.36660       -1.40260
H         -1.19630        2.19970       -3.35790
H         -1.40870        3.71010       -2.45300
H         -2.56140        2.37440       -2.22790
H         -0.43020        2.37560        0.92990
H         -2.11460        2.38070        0.36030
H         -1.05710        3.78630        0.04960
H         -2.42560       -4.80050        2.26660
H         -3.62550       -4.55300        3.55190
H         -3.06460       -2.58940        1.52310
H         -3.75650       -2.19700        3.09780
H         -0.12580       -1.51520        5.40580
H          1.01110       -2.30800        4.27870
H          0.25230       -3.26480        5.58270
H          1.80120       -2.86110        2.10140
H          0.69450       -4.90790        3.10280
H          2.38830       -5.17390        2.67450
H          0.98960       -7.10520        1.95490
H         -0.04230       -6.03190        1.00660
H          2.94380       -6.57690        0.51460
H          1.60520       -7.13480       -0.49750
H          2.73820       -5.09550       -1.46590
H          1.03660       -4.79040       -1.10580
H          3.42040       -3.98710        0.65970
H          2.43380       -2.88150       -0.30900
